REMARK  Name = ZINC00038499
REMARK                            x       y       z     vdW  Elec       q    Type
REMARK                         _______ _______ _______ _____ _____    ______ ____
ROOT
ATOM      1  C   LIG    1       -0.285   0.747  -0.291  0.00  0.00    +0.347 C 
ATOM      2  O   LIG    1       -0.428  -0.435  -0.050  0.00  0.00    -0.244 OA
ENDROOT
BRANCH   1   3
ATOM      3  C   LIG    1       -1.441   1.663  -0.209  0.00  0.00    +0.089 A 
ATOM      4  C   LIG    1       -1.729   2.525  -1.270  0.00  0.00    +0.017 A 
ATOM      5  C   LIG    1       -2.813   3.374  -1.189  0.00  0.00    +0.001 A 
ATOM      6  C   LIG    1       -3.609   3.379  -0.057  0.00  0.00    +0.002 A 
ATOM      7  C   LIG    1       -3.326   2.531   0.999  0.00  0.00    +0.033 A 
ATOM      8  C   LIG    1       -2.248   1.674   0.930  0.00  0.00    +0.136 A 
BRANCH   8   9
ATOM      9  N   LIG    1       -1.947   0.768   2.061  0.00  0.00    +0.007 N 
ATOM     10  O   LIG    1       -2.717   0.691   3.002  0.00  0.00    -0.130 OA
BRANCH   9  11
ATOM     11  O   LIG    1       -0.929   0.098   2.051  0.00  0.00    -0.396 OA
ATOM     12  H   LIG    1       -0.337   0.157   1.327  0.00  0.00    +0.329 HD
ENDBRANCH   9  11
ENDBRANCH   8   9
ENDBRANCH   1   3
BRANCH   1  13
ATOM     13  O   LIG    1        0.927   1.222  -0.637  0.00  0.00    -0.421 OA
BRANCH  13  18
ATOM     14  C   LIG    1        5.227  -2.416  -0.526  0.00  0.00    +0.044 C 
ATOM     15  C   LIG    1        4.077  -1.442  -0.556  0.00  0.00    -0.049 A 
ATOM     16  C   LIG    1        3.833  -0.628   0.534  0.00  0.00    +0.007 A 
ATOM     17  C   LIG    1        2.779   0.265   0.510  0.00  0.00    +0.048 A 
ATOM     18  C   LIG    1        1.965   0.345  -0.610  0.00  0.00    +0.146 A 
ATOM     19  C   LIG    1        2.208  -0.477  -1.702  0.00  0.00    +0.060 A 
ATOM     20 BR   LIG    1        1.096  -0.379  -3.228  0.00  0.00    -0.046 Br
ATOM     21  C   LIG    1        3.267  -1.365  -1.674  0.00  0.00    +0.022 A 
ENDBRANCH  13  18
ENDBRANCH   1  13
TORSDOF 5
