REMARK  Name = ZINC27529342
REMARK                            x       y       z     vdW  Elec       q    Type
REMARK                         _______ _______ _______ _____ _____    ______ ____
ROOT
ATOM      1  C   LIG    1        1.214  -1.979   0.164  0.00  0.00    +0.178 A 
ATOM      2  N   LIG    1        1.176  -0.658   0.182  0.00  0.00    -0.224 NA
ATOM      3  C   LIG    1        0.048  -0.006   0.422  0.00  0.00    +0.080 A 
ATOM      4  C   LIG    1       -1.098  -0.714   0.661  0.00  0.00    +0.077 A 
ATOM      5  S   LIG    1       -0.490  -2.389   0.516  0.00  0.00    -0.059 S 
ENDROOT
BRANCH   3   6
ATOM      6  C   LIG    1        0.029   1.476   0.438  0.00  0.00    +0.001 A 
ATOM      7  C   LIG    1       -1.162   2.158   0.685  0.00  0.00    +0.012 A 
ATOM      8  C   LIG    1       -1.172   3.538   0.705  0.00  0.00    +0.033 A 
ATOM      9  C   LIG    1       -0.007   4.245   0.467  0.00  0.00    +0.122 A 
ATOM     10  C   LIG    1        1.176   3.573   0.215  0.00  0.00    +0.033 A 
ATOM     11  C   LIG    1        1.200   2.194   0.199  0.00  0.00    +0.012 A 
BRANCH   9  12
ATOM     12  N   LIG    1       -0.026   5.732   0.482  0.00  0.00    +0.006 N 
ATOM     13  O   LIG    1        0.998   6.356   0.273  0.00  0.00    -0.130 OA
BRANCH  12  14
ATOM     14  O   LIG    1       -1.067   6.325   0.704  0.00  0.00    -0.396 OA
ATOM     15  H   LIG    1       -1.855   5.845   0.865  0.00  0.00    +0.329 HD
ENDBRANCH  12  14
ENDBRANCH   9  12
ENDBRANCH   3   6
BRANCH   1  16
ATOM     16  N   LIG    1        2.289  -2.821  -0.066  0.00  0.00    -0.215 N 
ATOM     17  H   LIG    1        3.284  -2.400  -0.269  0.00  0.00    +0.176 HD
BRANCH  16  24
ATOM     18  C   LIG    1        6.170  -7.451   1.581  0.00  0.00    +0.007 C 
ATOM     19  C   LIG    1        5.268  -6.698   0.601  0.00  0.00    -0.013 C 
ATOM     20  C   LIG    1        3.823  -7.171   0.774  0.00  0.00    +0.009 C 
ATOM     21  C   LIG    1        2.935  -6.486  -0.269  0.00  0.00    +0.053 C 
ATOM     22  C   LIG    1        3.119  -4.989  -0.148  0.00  0.00    +0.037 C 
ATOM     23  C   LIG    1        4.526  -4.436  -0.166  0.00  0.00    +0.053 C 
ATOM     24  N   LIG    1        2.109  -4.210  -0.038  0.00  0.00    -0.190 NA
ATOM     25  C   LIG    1        5.358  -5.197   0.878  0.00  0.00    +0.009 C 
ENDBRANCH  16  24
ENDBRANCH   1  16
TORSDOF 5
