REMARK  Name = ZINC19685792
REMARK                            x       y       z     vdW  Elec       q    Type
REMARK                         _______ _______ _______ _____ _____    ______ ____
ROOT
ATOM      1  C   LIG    1       -1.559  -0.016   0.142  0.00  0.00    +0.338 C 
ATOM      2  O   LIG    1       -1.567   1.200   0.218  0.00  0.00    -0.245 OA
ENDROOT
BRANCH   1   5
ATOM      3  C   LIG    1        0.801   1.487  -0.226  0.00  0.00    +0.066 C 
ATOM      4  C   LIG    1        0.816  -0.018  -0.294  0.00  0.00    +0.049 C 
ATOM      5  C   LIG    1       -0.354  -0.696  -0.109  0.00  0.00    +0.069 C 
ATOM      6  C   LIG    1       -0.307  -2.212  -0.183  0.00  0.00    +0.096 C 
ATOM      7  C   LIG    1        1.056  -2.819  -0.460  0.00  0.00    +0.065 C 
ATOM      8  C   LIG    1        2.126  -1.935  -0.618  0.00  0.00    +0.049 C 
ATOM      9  C   LIG    1        3.500  -2.487  -0.894  0.00  0.00    +0.066 C 
ATOM     10  C   LIG    1        1.231  -4.182  -0.552  0.00  0.00    +0.285 C 
ATOM     11  N   LIG    1        1.963  -0.634  -0.536  0.00  0.00    -0.256 NA
BRANCH   6  12
ATOM     12  C   LIG    1       -0.807  -2.763   1.127  0.00  0.00    -0.033 A 
ATOM     13  C   LIG    1       -0.291  -2.288   2.319  0.00  0.00    +0.005 A 
ATOM     14  C   LIG    1       -0.749  -2.794   3.521  0.00  0.00    +0.003 A 
ATOM     15  C   LIG    1       -1.724  -3.775   3.531  0.00  0.00    +0.032 A 
ATOM     16  C   LIG    1       -2.241  -4.248   2.340  0.00  0.00    +0.122 A 
ATOM     17  C   LIG    1       -1.785  -3.739   1.138  0.00  0.00    +0.037 A 
BRANCH  16  18
ATOM     18  N   LIG    1       -3.284  -5.298   2.352  0.00  0.00    +0.006 N 
ATOM     19  O   LIG    1       -3.714  -5.712   3.403  0.00  0.00    -0.130 OA
BRANCH  18  20
ATOM     20  O   LIG    1       -3.706  -5.742   1.310  0.00  0.00    -0.396 OA
ATOM     21  H   LIG    1       -3.373  -5.422   0.495  0.00  0.00    +0.329 HD
ENDBRANCH  18  20
ENDBRANCH  16  18
ENDBRANCH   6  12
BRANCH  10  22
ATOM     22  O   LIG    1        0.163  -5.003  -0.514  0.00  0.00    -0.467 OA
ATOM     23  C   LIG    1        0.418  -6.405  -0.614  0.00  0.00    +0.280 C 
ENDBRANCH  10  22
BRANCH  10  24
ATOM     24  O   LIG    1        2.471  -4.696  -0.679  0.00  0.00    -0.480 OA
ATOM     25  H   LIG    1        3.214  -4.125  -0.705  0.00  0.00    +0.295 HD
ENDBRANCH  10  24
ENDBRANCH   1   5
BRANCH   1  26
ATOM     26  O   LIG    1       -2.707  -0.711   0.300  0.00  0.00    -0.460 OA
BRANCH  26  27
ATOM     27  C   LIG    1       -3.910   0.048   0.438  0.00  0.00    +0.248 C 
BRANCH  27  28
ATOM     28  C   LIG    1       -5.075  -0.896   0.741  0.00  0.00    +0.125 C 
BRANCH  28  29
ATOM     29  N   LIG    1       -4.892  -1.488   2.073  0.00  0.00    -0.303 NA
ATOM     30  C   LIG    1       -5.090  -0.484   3.128  0.00  0.00    +0.066 C 
ATOM     31  C   LIG    1       -4.832  -1.125   4.493  0.00  0.00    -0.062 C 
ATOM     32  N   LIG    1       -5.754  -2.252   4.687  0.00  0.00    +0.389 N 
ATOM     33  H   LIG    1       -6.706  -1.920   4.635  0.00  0.00    -0.080 HD
ATOM     34  C   LIG    1       -5.527  -3.257   3.641  0.00  0.00    -0.062 C 
ATOM     35  C   LIG    1       -5.791  -2.634   2.268  0.00  0.00    +0.066 C 
BRANCH  32  36
ATOM     36  C   LIG    1       -5.518  -2.855   6.005  0.00  0.00    -0.007 C 
BRANCH  36  37
ATOM     37  C   LIG    1       -6.464  -4.012   6.205  0.00  0.00    -0.057 A 
ATOM     38  C   LIG    1       -7.773  -3.916   5.772  0.00  0.00    +0.002 A 
ATOM     39  C   LIG    1       -8.641  -4.977   5.955  0.00  0.00    +0.000 A 
ATOM     40  C   LIG    1       -8.199  -6.133   6.570  0.00  0.00    +0.000 A 
ATOM     41  C   LIG    1       -6.889  -6.229   7.002  0.00  0.00    +0.000 A 
ATOM     42  C   LIG    1       -6.021  -5.170   6.815  0.00  0.00    +0.002 A 
ENDBRANCH  36  37
BRANCH  36  43
ATOM     43  C   LIG    1       -5.753  -1.824   7.079  0.00  0.00    -0.057 A 
ATOM     44  C   LIG    1       -6.810  -0.940   6.970  0.00  0.00    +0.002 A 
ATOM     45  C   LIG    1       -7.025   0.005   7.955  0.00  0.00    +0.000 A 
ATOM     46  C   LIG    1       -6.182   0.067   9.049  0.00  0.00    +0.000 A 
ATOM     47  C   LIG    1       -5.126  -0.817   9.159  0.00  0.00    +0.000 A 
ATOM     48  C   LIG    1       -4.913  -1.766   8.176  0.00  0.00    +0.002 A 
ENDBRANCH  36  43
ENDBRANCH  32  36
ENDBRANCH  28  29
ENDBRANCH  27  28
ENDBRANCH  26  27
ENDBRANCH   1  26
TORSDOF 13
