REMARK  Name = ZINC20220036
REMARK                            x       y       z     vdW  Elec       q    Type
REMARK                         _______ _______ _______ _____ _____    ______ ____
ROOT
ATOM      1  C   LIG    1        1.224   1.784   0.300  0.00  0.00    -0.022 A 
ATOM      2  C   LIG    1        0.000   1.107   0.234  0.00  0.00    +0.026 A 
ATOM      3  C   LIG    1       -1.170   1.773   0.526  0.00  0.00    +0.056 A 
ATOM      4  I   LIG    1       -3.002   0.762   0.421  0.00  0.00    -0.040 I 
ATOM      5  C   LIG    1       -1.136   3.113   0.895  0.00  0.00    +0.143 A 
ATOM      6  C   LIG    1        0.076   3.791   0.961  0.00  0.00    +0.056 A 
ATOM      7  I   LIG    1        0.115   5.812   1.511  0.00  0.00    -0.040 I 
ATOM      8  C   LIG    1        1.251   3.136   0.667  0.00  0.00    +0.026 A 
ENDROOT
BRANCH   1  14
ATOM      9  C   LIG    1        7.364   1.767  -0.485  0.00  0.00    +0.139 C 
ATOM     10  N   LIG    1        5.970   2.195  -0.349  0.00  0.00    -0.258 N 
ATOM     11  C   LIG    1        5.019   1.280  -0.260  0.00  0.00    +0.258 C 
ATOM     12  C   LIG    1        3.634   1.776  -0.125  0.00  0.00    +0.077 C 
ATOM     13  S   LIG    1        3.907   3.542  -0.153  0.00  0.00    -0.061 S 
ATOM     14  C   LIG    1        2.474   1.081  -0.015  0.00  0.00    +0.028 C 
ATOM     15  O   LIG    1        5.272   0.090  -0.288  0.00  0.00    -0.269 OA
ATOM     16  C   LIG    1        5.684   3.513  -0.318  0.00  0.00    +0.120 C 
ATOM     17  S   LIG    1        6.765   4.837  -0.419  0.00  0.00    -0.027 S 
ENDBRANCH   1  14
BRANCH   5  18
ATOM     18  O   LIG    1       -2.292   3.763   1.186  0.00  0.00    -0.505 OA
ATOM     19  H   LIG    1       -3.110   3.308   1.142  0.00  0.00    +0.292 HD
ENDBRANCH   5  18
TORSDOF 2
