REMARK  Name = ZINC22441678
REMARK                            x       y       z     vdW  Elec       q    Type
REMARK                         _______ _______ _______ _____ _____    ______ ____
ROOT
ATOM      1  C   LIG    1       -0.018   1.465   0.010  0.00  0.00    -0.096 C 
ATOM      2  N   LIG    1        0.002  -0.004   0.002  0.00  0.00    +0.379 N 
ATOM      3  H   LIG    1        0.490  -0.338   0.820  0.00  0.00    -0.082 HD
ENDROOT
BRANCH   2   4
ATOM      4  C   LIG    1        0.690  -0.478  -1.207  0.00  0.00    -0.064 C 
BRANCH   4   5
ATOM      5  C   LIG    1        2.159  -0.053  -1.157  0.00  0.00    +0.066 C 
BRANCH   5   6
ATOM      6  N   LIG    1        2.846  -0.527  -2.366  0.00  0.00    -0.304 NA
ATOM      7  C   LIG    1        2.436   0.262  -3.555  0.00  0.00    +0.084 C 
ATOM      8  C   LIG    1        3.587   0.010  -4.562  0.00  0.00    +0.017 C 
ATOM      9  C   LIG    1        4.839  -0.017  -3.655  0.00  0.00    +0.017 C 
ATOM     10  C   LIG    1        4.310  -0.348  -2.248  0.00  0.00    +0.084 C 
ENDBRANCH   5   6
ENDBRANCH   4   5
ENDBRANCH   2   4
BRANCH   2  11
ATOM     11  C   LIG    1       -1.376  -0.512   0.012  0.00  0.00    -0.074 C 
BRANCH  11  12
ATOM     12  C   LIG    1       -2.053  -0.124   1.328  0.00  0.00    +0.016 C 
BRANCH  12  13
ATOM     13  C   LIG    1       -3.467  -0.646   1.339  0.00  0.00    -0.048 A 
ATOM     14  C   LIG    1       -4.495   0.134   0.842  0.00  0.00    +0.005 A 
ATOM     15  C   LIG    1       -5.792  -0.343   0.851  0.00  0.00    +0.022 A 
ATOM     16  C   LIG    1       -6.062  -1.602   1.359  0.00  0.00    +0.059 A 
ATOM     17 CL   LIG    1       -7.691  -2.201   1.371  0.00  0.00    -0.082 Cl
ATOM     18  C   LIG    1       -5.033  -2.382   1.856  0.00  0.00    +0.059 A 
ATOM     19 CL   LIG    1       -5.371  -3.962   2.493  0.00  0.00    -0.082 Cl
ATOM     20  C   LIG    1       -3.734  -1.905   1.841  0.00  0.00    +0.025 A 
ENDBRANCH  12  13
ENDBRANCH  11  12
ENDBRANCH   2  11
TORSDOF 6
