REMARK  Name = ZINC40423853
REMARK                            x       y       z     vdW  Elec       q    Type
REMARK                         _______ _______ _______ _____ _____    ______ ____
ROOT
ATOM      1  C   LIG    1        1.865  -8.938   0.094  0.00  0.00    +0.221 A 
ATOM      2  N   LIG    1        3.024  -8.289   0.075  0.00  0.00    -0.222 NA
ATOM      3  C   LIG    1        4.161  -8.931  -0.128  0.00  0.00    +0.129 A 
ATOM      4  C   LIG    1        4.119 -10.312  -0.324  0.00  0.00    +0.083 A 
ATOM      5  C   LIG    1        5.336 -11.104  -0.556  0.00  0.00    +0.205 A 
ATOM      6  C   LIG    1        5.165 -12.555  -0.749  0.00  0.00    +0.102 A 
ATOM      7  C   LIG    1        3.895 -13.087  -0.703  0.00  0.00    +0.110 A 
ATOM      8  N   LIG    1        2.806 -12.329  -0.488  0.00  0.00    -0.300 N 
ATOM      9  O   LIG    1        6.438 -10.583  -0.587  0.00  0.00    -0.286 OA
ATOM     10  C   LIG    1        2.874 -10.971  -0.298  0.00  0.00    +0.154 A 
ATOM     11  N   LIG    1        1.780 -10.248  -0.083  0.00  0.00    -0.196 NA
ENDROOT
BRANCH   8  12
ATOM     12  C   LIG    1        1.551 -12.949  -0.456  0.00  0.00    +0.048 A 
ATOM     13  C   LIG    1        1.286 -13.938   0.483  0.00  0.00    +0.026 A 
ATOM     14  C   LIG    1        0.048 -14.546   0.510  0.00  0.00    +0.006 A 
ATOM     15  C   LIG    1       -0.933 -14.174  -0.395  0.00  0.00    -0.044 A 
ATOM     16  C   LIG    1       -0.673 -13.190  -1.331  0.00  0.00    -0.042 A 
ATOM     17  C   LIG    1       -1.896 -12.970  -2.196  0.00  0.00    +0.036 C 
ATOM     18  C   LIG    1       -2.775 -14.219  -1.977  0.00  0.00    +0.009 C 
ATOM     19  C   LIG    1       -2.349 -14.682  -0.568  0.00  0.00    +0.036 C 
ATOM     20  C   LIG    1        0.566 -12.574  -1.358  0.00  0.00    +0.030 A 
ENDBRANCH   8  12
BRANCH   6  21
ATOM     21  C   LIG    1        6.330 -13.420  -0.987  0.00  0.00    +0.272 C 
ATOM     22  N   LIG    1        7.575 -12.909  -0.916  0.00  0.00    -0.191 N 
ATOM     23  H   LIG    1        7.707 -11.991  -0.630  0.00  0.00    +0.183 HD
ATOM     24  O   LIG    1        6.171 -14.598  -1.249  0.00  0.00    -0.268 OA
BRANCH  22  25
ATOM     25  O   LIG    1        8.691 -13.711  -1.257  0.00  0.00    -0.283 OA
ATOM     26  C   LIG    1        9.948 -13.042  -1.136  0.00  0.00    +0.226 C 
ENDBRANCH  22  25
ENDBRANCH   6  21
BRANCH   1  27
ATOM     27  N   LIG    1        0.705  -8.221   0.311  0.00  0.00    -0.284 N 
ATOM     28  H   LIG    1       -0.142  -8.685   0.406  0.00  0.00    +0.155 HD
BRANCH  27  32
ATOM     29  C   LIG    1        0.841  -4.065   0.556  0.00  0.00    -0.044 A 
ATOM     30  C   LIG    1        1.705  -4.735  -0.291  0.00  0.00    +0.006 A 
ATOM     31  C   LIG    1        1.663  -6.113  -0.375  0.00  0.00    +0.023 A 
ATOM     32  C   LIG    1        0.751  -6.826   0.393  0.00  0.00    +0.034 A 
ATOM     33  C   LIG    1       -0.116  -6.150   1.242  0.00  0.00    +0.023 A 
ATOM     34  C   LIG    1       -0.065  -4.772   1.325  0.00  0.00    +0.006 A 
BRANCH  29  40
ATOM     35  C   LIG    1        2.238   1.384  -0.234  0.00  0.00    -0.096 C 
ATOM     36  N   LIG    1        2.095  -0.078  -0.234  0.00  0.00    +0.378 N 
ATOM     37  H   LIG    1        2.761  -0.480  -0.877  0.00  0.00    -0.082 HD
ATOM     38  C   LIG    1        2.351  -0.593   1.116  0.00  0.00    -0.079 C 
ATOM     39  C   LIG    1        2.283  -2.122   1.105  0.00  0.00    -0.011 C 
ATOM     40  C   LIG    1        0.890  -2.562   0.644  0.00  0.00    +0.016 C 
ATOM     41  C   LIG    1        0.605  -1.958  -0.733  0.00  0.00    -0.011 C 
ATOM     42  C   LIG    1        0.735  -0.435  -0.654  0.00  0.00    -0.079 C 
ENDBRANCH  29  40
ENDBRANCH  27  32
ENDBRANCH   1  27
TORSDOF 6
