REMARK  Name = ZINC14960712
REMARK                            x       y       z     vdW  Elec       q    Type
REMARK                         _______ _______ _______ _____ _____    ______ ____
ROOT
ATOM      1  C   LIG    1        0.018   1.421  -0.020  0.00  0.00    +0.029 A 
ATOM      2  C   LIG    1        1.183   2.129  -0.018  0.00  0.00    +0.012 A 
ATOM      3  C   LIG    1        2.405   1.444  -0.024  0.00  0.00    +0.007 A 
ATOM      4  C   LIG    1        2.410   0.027  -0.032  0.00  0.00    +0.047 A 
ATOM      5  C   LIG    1        3.702  -0.658  -0.037  0.00  0.00    +0.240 A 
ATOM      6  N   LIG    1        4.813   0.067  -0.035  0.00  0.00    -0.220 NA
ATOM      7  C   LIG    1        4.797   1.392  -0.028  0.00  0.00    +0.135 A 
ATOM      8  C   LIG    1        1.198  -0.668  -0.033  0.00  0.00    +0.042 A 
ATOM      9  C   LIG    1        3.645   2.115  -0.022  0.00  0.00    +0.067 A 
ATOM     10 CL   LIG    1        3.701   3.850  -0.014  0.00  0.00    -0.081 Cl
ATOM     11  C   LIG    1        0.024   0.029  -0.028  0.00  0.00    +0.106 A 
ENDROOT
BRANCH  11  12
ATOM     12  S   LIG    1       -1.505  -0.846  -0.029  0.00  0.00    +0.059 S 
ATOM     13  O   LIG    1       -2.475   0.030   0.528  0.00  0.00    -0.153 OA
ATOM     14  O   LIG    1       -1.238  -2.131   0.514  0.00  0.00    -0.153 OA
BRANCH  12  15
ATOM     15  N   LIG    1       -1.933  -1.081  -1.611  0.00  0.00    -0.187 NA
ATOM     16  H   LIG    1       -2.731  -0.658  -1.966  0.00  0.00    +0.148 HD
BRANCH  15  17
ATOM     17  C   LIG    1       -1.107  -1.927  -2.476  0.00  0.00    +0.077 C 
ATOM     18  C   LIG    1       -0.156  -1.053  -3.319  0.00  0.00    +0.020 C 
ATOM     19  C   LIG    1       -0.099  -1.768  -4.691  0.00  0.00    +0.002 C 
ATOM     20  C   LIG    1       -1.557  -2.257  -4.883  0.00  0.00    +0.002 C 
ATOM     21  C   LIG    1       -1.998  -2.692  -3.470  0.00  0.00    +0.020 C 
ENDBRANCH  15  17
ENDBRANCH  12  15
ENDBRANCH  11  12
BRANCH   5  22
ATOM     22  N   LIG    1        3.764  -2.016  -0.044  0.00  0.00    -0.052 NA
ATOM     23  C   LIG    1        3.905  -2.675   1.088  0.00  0.00    +0.384 C 
BRANCH  23  24
ATOM     24  N   LIG    1        4.077  -4.033   1.073  0.00  0.00    -0.289 N 
ATOM     25  H   LIG    1        4.181  -4.518   1.907  0.00  0.00    +0.255 HD
ATOM     26  H   LIG    1        4.095  -4.511   0.229  0.00  0.00    +0.255 HD
ENDBRANCH  23  24
BRANCH  23  27
ATOM     27  N   LIG    1        3.879  -2.001   2.280  0.00  0.00    -0.289 N 
ATOM     28  H   LIG    1        4.058  -2.473   3.108  0.00  0.00    +0.255 HD
ATOM     29  H   LIG    1        3.682  -1.051   2.296  0.00  0.00    +0.255 HD
ENDBRANCH  23  27
ENDBRANCH   5  22
TORSDOF 6
