REMARK  Name = ZINC34842284
REMARK                            x       y       z     vdW  Elec       q    Type
REMARK                         _______ _______ _______ _____ _____    ______ ____
ROOT
ATOM      1  C   LIG    1        0.040  -3.290  -1.541  0.00  0.00    +0.004 A 
ATOM      2  C   LIG    1        0.054  -4.564  -0.981  0.00  0.00    +0.024 A 
ATOM      3  C   LIG    1        0.080  -5.665  -1.843  0.00  0.00    +0.048 A 
ATOM      4  C   LIG    1        0.123  -5.456  -3.239  0.00  0.00    +0.075 A 
ATOM      5  N   LIG    1        0.065  -4.209  -3.720  0.00  0.00    -0.254 NA
ATOM      6  C   LIG    1        0.253  -6.571  -4.161  0.00  0.00    +0.029 A 
ATOM      7  C   LIG    1       -0.341  -7.751  -4.086  0.00  0.00    +0.011 A 
ATOM      8  C   LIG    1       -1.265  -8.211  -3.064  0.00  0.00    -0.014 A 
ATOM      9  C   LIG    1       -2.386  -8.974  -3.431  0.00  0.00    +0.010 A 
ATOM     10  C   LIG    1       -3.236  -9.450  -2.479  0.00  0.00    +0.025 A 
ATOM     11  C   LIG    1       -3.008  -9.194  -1.126  0.00  0.00    +0.050 A 
ATOM     12  C   LIG    1       -1.922  -8.430  -0.734  0.00  0.00    +0.036 A 
ATOM     13  C   LIG    1       -1.055  -7.915  -1.700  0.00  0.00    +0.031 A 
ATOM     14  C   LIG    1        0.050  -7.030  -1.299  0.00  0.00    +0.196 A 
ATOM     15  O   LIG    1        0.917  -7.418  -0.538  0.00  0.00    -0.287 OA
ATOM     16  C   LIG    1        0.030  -3.160  -2.935  0.00  0.00    +0.120 A 
ENDROOT
BRANCH   1  20
ATOM     17  C   LIG    1       -0.018   1.461   0.010  0.00  0.00    +0.172 C 
ATOM     18  N   LIG    1        0.002  -0.004   0.002  0.00  0.00    -0.274 N 
ATOM     19  C   LIG    1        0.008  -0.788  -1.095  0.00  0.00    +0.116 A 
ATOM     20  C   LIG    1        0.028  -2.087  -0.673  0.00  0.00    +0.021 A 
ATOM     21  C   LIG    1        0.034  -2.076   0.735  0.00  0.00    +0.143 A 
ATOM     22  N   LIG    1        0.025  -0.831   1.132  0.00  0.00    -0.179 NA
ENDBRANCH   1  20
BRANCH  11  23
ATOM     23  N   LIG    1       -3.877  -9.710  -0.165  0.00  0.00    -0.206 N 
ATOM     24  H   LIG    1       -3.718  -9.530   0.790  0.00  0.00    +0.175 HD
BRANCH  23  25
ATOM     25  S   LIG    1       -5.178 -10.623  -0.630  0.00  0.00    +0.112 S 
ATOM     26  O   LIG    1       -4.654 -11.818  -1.195  0.00  0.00    -0.138 OA
ATOM     27  O   LIG    1       -6.046  -9.758  -1.350  0.00  0.00    -0.138 OA
BRANCH  25  28
ATOM     28  N   LIG    1       -5.984 -11.065   0.747  0.00  0.00    -0.164 NA
ATOM     29  C   LIG    1       -7.050 -10.211   1.277  0.00  0.00    +0.133 C 
BRANCH  28  30
ATOM     30  C   LIG    1       -5.631 -12.309   1.435  0.00  0.00    +0.144 C 
BRANCH  30  31
ATOM     31  C   LIG    1       -4.632 -12.008   2.554  0.00  0.00    +0.160 C 
ATOM     32  C   LIG    1       -4.170 -13.320   3.195  0.00  0.00    +0.192 C 
ATOM     33  O   LIG    1       -3.324 -13.025   4.310  0.00  0.00    -0.375 OA
ATOM     34  C   LIG    1       -3.952 -12.212   5.306  0.00  0.00    +0.188 C 
ATOM     35  C   LIG    1       -4.414 -10.900   4.665  0.00  0.00    +0.188 C 
ATOM     36  O   LIG    1       -5.260 -11.193   3.549  0.00  0.00    -0.371 OA
ENDBRANCH  30  31
ENDBRANCH  28  30
ENDBRANCH  25  28
ENDBRANCH  23  25
ENDBRANCH  11  23
TORSDOF 6
