REMARK  Name = ZINC64393103
REMARK                            x       y       z     vdW  Elec       q    Type
REMARK                         _______ _______ _______ _____ _____    ______ ____
ROOT
ATOM      1  C   LIG    1        0.044   1.468   0.439  0.00  0.00    +0.064 C 
ATOM      2  C   LIG    1        0.032  -0.020   0.207  0.00  0.00    +0.033 A 
ATOM      3  C   LIG    1       -1.141  -0.721   0.317  0.00  0.00    +0.085 A 
ATOM      4  C   LIG    1       -1.134  -2.173   0.087  0.00  0.00    +0.074 A 
ATOM      5  N   LIG    1       -2.426  -2.605   0.262  0.00  0.00    -0.294 N 
ATOM      6  N   LIG    1       -3.249  -1.523   0.587  0.00  0.00    -0.254 N 
ATOM      7  C   LIG    1       -4.688  -1.618   0.842  0.00  0.00    +0.174 C 
ATOM      8  H   LIG    1       -2.723  -3.524   0.173  0.00  0.00    +0.187 HD
ATOM      9  C   LIG    1        0.062  -2.777  -0.233  0.00  0.00    +0.098 A 
ATOM     10  C   LIG    1        1.215  -1.986  -0.326  0.00  0.00    +0.253 A 
ATOM     11  O   LIG    1        2.279  -2.513  -0.609  0.00  0.00    -0.268 OA
ATOM     12  C   LIG    1       -2.536  -0.379   0.633  0.00  0.00    +0.276 A 
ATOM     13  O   LIG    1       -2.967   0.729   0.889  0.00  0.00    -0.266 OA
ATOM     14  N   LIG    1        1.174  -0.661  -0.115  0.00  0.00    -0.315 N 
ATOM     15  C   LIG    1        2.412   0.114  -0.232  0.00  0.00    +0.152 C 
ENDROOT
TORSDOF 0
