REMARK  Name = ZINC49757175
REMARK                            x       y       z     vdW  Elec       q    Type
REMARK                         _______ _______ _______ _____ _____    ______ ____
ROOT
ATOM      1  N   LIG    1        8.770   0.115  -2.757  0.00  0.00    -0.269 N 
ATOM      2  H   LIG    1        8.728   1.051  -3.009  0.00  0.00    +0.156 HD
ATOM      3  C   LIG    1        9.832  -0.633  -3.115  0.00  0.00    +0.308 C 
ATOM      4  N   LIG    1       10.788  -0.109  -3.908  0.00  0.00    -0.269 N 
ATOM      5  H   LIG    1       10.751   0.827  -4.159  0.00  0.00    +0.156 HD
ATOM      6  O   LIG    1        9.928  -1.780  -2.724  0.00  0.00    -0.252 OA
ENDROOT
BRANCH   1  10
ATOM      7  C   LIG    1        5.664  -1.593  -0.569  0.00  0.00    +0.037 A 
ATOM      8  C   LIG    1        6.443  -2.386  -1.415  0.00  0.00    +0.015 A 
ATOM      9  C   LIG    1        7.469  -1.819  -2.137  0.00  0.00    +0.024 A 
ATOM     10  C   LIG    1        7.730  -0.456  -2.025  0.00  0.00    +0.035 A 
ATOM     11  C   LIG    1        6.956   0.337  -1.183  0.00  0.00    +0.024 A 
ATOM     12  C   LIG    1        5.925  -0.224  -0.463  0.00  0.00    +0.015 A 
BRANCH   7  17
ATOM     13  C   LIG    1        4.279  -1.540   4.251  0.00  0.00    -0.066 C 
ATOM     14  C   LIG    1        3.551  -2.691   3.552  0.00  0.00    +0.004 C 
ATOM     15  C   LIG    1        3.094  -2.232   2.164  0.00  0.00    +0.106 C 
ATOM     16  N   LIG    1        4.257  -1.718   1.428  0.00  0.00    -0.298 N 
ATOM     17  C   LIG    1        4.563  -2.197   0.206  0.00  0.00    +0.247 C 
ATOM     18  O   LIG    1        3.933  -3.128  -0.257  0.00  0.00    -0.270 OA
ATOM     19  C   LIG    1        5.080  -0.672   2.050  0.00  0.00    +0.106 C 
ATOM     20  C   LIG    1        5.516  -1.148   3.440  0.00  0.00    +0.004 C 
BRANCH  13  22
ATOM     21  C   LIG    1        5.387  -0.861   6.267  0.00  0.00    -0.096 C 
ATOM     22  N   LIG    1        4.690  -1.966   5.596  0.00  0.00    +0.378 N 
ATOM     23  H   LIG    1        5.310  -2.759   5.522  0.00  0.00    -0.082 HD
ATOM     24  C   LIG    1        3.503  -2.342   6.375  0.00  0.00    -0.096 C 
ENDBRANCH  13  22
ENDBRANCH   7  17
ENDBRANCH   1  10
BRANCH   4  25
ATOM     25  C   LIG    1       11.831  -0.914  -4.369  0.00  0.00    +0.035 A 
ATOM     26  C   LIG    1       11.596  -2.252  -4.668  0.00  0.00    +0.024 A 
ATOM     27  C   LIG    1       12.624  -3.048  -5.123  0.00  0.00    +0.013 A 
ATOM     28  C   LIG    1       13.902  -2.513  -5.283  0.00  0.00    +0.019 A 
ATOM     29  C   LIG    1       14.136  -1.171  -4.981  0.00  0.00    +0.013 A 
ATOM     30  C   LIG    1       13.103  -0.376  -4.532  0.00  0.00    +0.024 A 
BRANCH  28  31
ATOM     31  C   LIG    1       15.009  -3.367  -5.771  0.00  0.00    +0.167 A 
ATOM     32  N   LIG    1       14.784  -4.645  -6.063  0.00  0.00    -0.194 NA
ATOM     33  C   LIG    1       15.778  -5.412  -6.501  0.00  0.00    +0.223 A 
ATOM     34  N   LIG    1       16.996  -4.901  -6.648  0.00  0.00    -0.181 NA
ATOM     35  C   LIG    1       17.222  -3.624  -6.356  0.00  0.00    +0.223 A 
ATOM     36  N   LIG    1       16.228  -2.855  -5.923  0.00  0.00    -0.194 NA
BRANCH  33  37
ATOM     37  N   LIG    1       15.545  -6.738  -6.804  0.00  0.00    -0.295 N 
ATOM     38  C   LIG    1       16.630  -7.607  -7.285  0.00  0.00    +0.136 C 
ATOM     39  C   LIG    1       16.637  -8.885  -6.439  0.00  0.00    +0.179 C 
ATOM     40  O   LIG    1       15.325  -9.453  -6.432  0.00  0.00    -0.377 OA
ATOM     41  C   LIG    1       14.329  -8.616  -5.839  0.00  0.00    +0.179 C 
ATOM     42  C   LIG    1       14.205  -7.326  -6.649  0.00  0.00    +0.136 C 
ENDBRANCH  33  37
BRANCH  35  43
ATOM     43  N   LIG    1       18.487  -3.094  -6.509  0.00  0.00    -0.295 N 
ATOM     44  C   LIG    1       19.601  -3.922  -6.998  0.00  0.00    +0.136 C 
ATOM     45  C   LIG    1       20.286  -3.178  -8.150  0.00  0.00    +0.179 C 
ATOM     46  O   LIG    1       20.619  -1.855  -7.724  0.00  0.00    -0.377 OA
ATOM     47  C   LIG    1       19.489  -1.050  -7.378  0.00  0.00    +0.179 C 
ATOM     48  C   LIG    1       18.761  -1.684  -6.192  0.00  0.00    +0.136 C 
ENDBRANCH  35  43
ENDBRANCH  28  31
ENDBRANCH   4  25
TORSDOF 7
