REMARK  Name = ZINC13819928
REMARK                            x       y       z     vdW  Elec       q    Type
REMARK                         _______ _______ _______ _____ _____    ______ ____
ROOT
ATOM      1  C   LIG    1       -1.293  -0.775   0.010  0.00  0.00    +0.137 C 
ATOM      2  C   LIG    1       -1.929  -0.752   1.414  0.00  0.00    +0.087 C 
ATOM      3  C   LIG    1       -3.256  -0.059   1.201  0.00  0.00    +0.072 C 
ATOM      4  N   LIG    1       -3.381   0.258  -0.041  0.00  0.00    -0.181 NA
ATOM      5  N   LIG    1       -2.297  -0.110  -0.835  0.00  0.00    -0.185 N 
ATOM      6  C   LIG    1       -2.186   0.107  -2.160  0.00  0.00    +0.232 C 
ATOM      7  C   LIG    1       -3.296   0.803  -2.905  0.00  0.00    +0.111 C 
ATOM      8  O   LIG    1       -1.193  -0.257  -2.754  0.00  0.00    -0.274 OA
ENDROOT
BRANCH   1  14
ATOM      9  C   LIG    1        3.711  -0.707  -0.038  0.00  0.00    +0.044 C 
ATOM     10  C   LIG    1        2.396   0.028  -0.021  0.00  0.00    -0.050 A 
ATOM     11  C   LIG    1        2.377   1.411  -0.014  0.00  0.00    +0.003 A 
ATOM     12  C   LIG    1        1.171   2.085   0.002  0.00  0.00    +0.001 A 
ATOM     13  C   LIG    1       -0.017   1.378   0.010  0.00  0.00    +0.005 A 
ATOM     14  C   LIG    1        0.002  -0.004   0.002  0.00  0.00    -0.024 A 
ATOM     15  C   LIG    1        1.209  -0.679  -0.014  0.00  0.00    +0.009 A 
ENDBRANCH   1  14
BRANCH   3  16
ATOM     16  C   LIG    1       -4.252   0.212   2.253  0.00  0.00    +0.039 A 
ATOM     17  C   LIG    1       -4.008  -0.184   3.570  0.00  0.00    +0.013 A 
ATOM     18  C   LIG    1       -4.942   0.077   4.550  0.00  0.00    +0.001 A 
ATOM     19  C   LIG    1       -6.126   0.721   4.233  0.00  0.00    +0.004 A 
ATOM     20  C   LIG    1       -6.381   1.114   2.933  0.00  0.00    +0.046 A 
ATOM     21  C   LIG    1       -5.451   0.864   1.937  0.00  0.00    +0.126 A 
BRANCH  21  22
ATOM     22  O   LIG    1       -5.701   1.250   0.658  0.00  0.00    -0.506 OA
ATOM     23  H   LIG    1       -6.155   0.581   0.128  0.00  0.00    +0.292 HD
ENDBRANCH  21  22
ENDBRANCH   3  16
TORSDOF 3
