REMARK  Name = ZINC29047551
REMARK                            x       y       z     vdW  Elec       q    Type
REMARK                         _______ _______ _______ _____ _____    ______ ____
ROOT
ATOM      1  C   LIG    1        5.228   4.495   0.282  0.00  0.00    +0.151 A 
ATOM      2  C   LIG    1        6.218   5.508   0.272  0.00  0.00    +0.109 A 
ATOM      3  C   LIG    1        6.164   6.884   0.218  0.00  0.00    -0.002 A 
ATOM      4  C   LIG    1        7.494   7.345   0.238  0.00  0.00    +0.062 A 
ATOM      5  C   LIG    1        8.315   6.233   0.303  0.00  0.00    +0.126 A 
ATOM      6  N   LIG    1        7.547   5.130   0.324  0.00  0.00    -0.234 N 
ATOM      7  N   LIG    1        7.848   3.761   0.384  0.00  0.00    -0.155 NA
ATOM      8  C   LIG    1        6.886   2.880   0.391  0.00  0.00    +0.245 A 
ATOM      9  N   LIG    1        5.601   3.228   0.346  0.00  0.00    -0.217 NA
ENDROOT
BRANCH   4  10
ATOM     10  C   LIG    1        7.933   8.756   0.197  0.00  0.00    +0.250 A 
ATOM     11  N   LIG    1        7.155   9.812   0.136  0.00  0.00    -0.107 NA
ATOM     12  N   LIG    1        7.882  10.873   0.117  0.00  0.00    -0.112 NA
ATOM     13  C   LIG    1        9.141  10.541   0.164  0.00  0.00    +0.215 A 
ATOM     14  C   LIG    1       10.312  11.489   0.161  0.00  0.00    +0.111 C 
ATOM     15  O   LIG    1        9.206   9.199   0.222  0.00  0.00    -0.420 OA
ENDBRANCH   4  10
BRANCH   3  16
ATOM     16  C   LIG    1        4.920   7.732   0.151  0.00  0.00    +0.016 C 
ATOM     17  C   LIG    1        4.938   8.561  -1.135  0.00  0.00    +0.012 C 
ATOM     18  C   LIG    1        4.875   8.668   1.360  0.00  0.00    +0.012 C 
ENDBRANCH   3  16
BRANCH   1  19
ATOM     19  N   LIG    1        3.889   4.827   0.232  0.00  0.00    -0.296 N 
ATOM     20  H   LIG    1        3.587   5.876   0.092  0.00  0.00    +0.154 HD
BRANCH  19  26
ATOM     21  C   LIG    1        0.219  -1.589  -0.148  0.00  0.00    +0.063 C 
ATOM     22  C   LIG    1        0.783  -0.204   0.035  0.00  0.00    +0.015 A 
ATOM     23  C   LIG    1        1.986   0.203  -0.402  0.00  0.00    +0.032 A 
ATOM     24  C   LIG    1        2.130   1.605  -0.007  0.00  0.00    +0.021 A 
ATOM     25  C   LIG    1        3.135   2.562  -0.163  0.00  0.00    +0.036 A 
ATOM     26  C   LIG    1        2.914   3.829   0.360  0.00  0.00    +0.051 A 
ATOM     27  C   LIG    1        1.713   4.097   1.012  0.00  0.00    +0.136 A 
ATOM     28  N   LIG    1        0.783   3.176   1.144  0.00  0.00    -0.236 NA
ATOM     29  C   LIG    1        0.942   1.949   0.665  0.00  0.00    +0.138 A 
ATOM     30  N   LIG    1        0.144   0.828   0.669  0.00  0.00    -0.343 N 
ATOM     31  H   LIG    1       -0.862   0.677   1.087  0.00  0.00    +0.167 HD
ENDBRANCH  19  26
ENDBRANCH   1  19
TORSDOF 4
