REMARK  Name = ZINC27330751
REMARK                            x       y       z     vdW  Elec       q    Type
REMARK                         _______ _______ _______ _____ _____    ______ ____
ROOT
ATOM      1  C   LIG    1       -2.501   4.260   0.052  0.00  0.00    +0.022 C 
ATOM      2  C   LIG    1       -2.444   5.623   0.060  0.00  0.00    +0.081 C 
ATOM      3  N   LIG    1       -1.289   6.271   0.056  0.00  0.00    -0.314 NA
ATOM      4  H   LIG    1       -1.290   6.854   0.893  0.00  0.00    +0.122 HD
ATOM      5  C   LIG    1       -0.129   5.657   0.043  0.00  0.00    +0.100 C 
ATOM      6  C   LIG    1       -0.077   4.253   0.032  0.00  0.00    +0.072 C 
ATOM      7  N   LIG    1        1.077   3.588   0.017  0.00  0.00    -0.309 NA
ATOM      8  H   LIG    1        2.029   4.139   0.015  0.00  0.00    +0.123 HD
ATOM      9  C   LIG    1        1.136   2.267   0.003  0.00  0.00    +0.059 C 
ATOM     10  C   LIG    1        2.510   1.645  -0.023  0.00  0.00    +0.019 C 
ATOM     11  C   LIG    1        2.444   0.179   0.398  0.00  0.00    +0.002 C 
ATOM     12  C   LIG    1        1.369  -0.520  -0.443  0.00  0.00    +0.000 C 
ATOM     13  C   LIG    1        0.002  -0.004   0.002  0.00  0.00    +0.006 C 
ATOM     14  C   LIG    1       -0.018   1.502   0.010  0.00  0.00    +0.023 C 
ATOM     15  C   LIG    1       -1.261   2.127   0.032  0.00  0.00    +0.060 C 
ATOM     16  C   LIG    1       -1.300   3.537   0.037  0.00  0.00    +0.025 C 
ENDROOT
BRANCH  15  17
ATOM     17  N   LIG    1       -2.432   1.383   0.042  0.00  0.00    -0.327 NA
ATOM     18  H   LIG    1       -3.407   1.892   0.055  0.00  0.00    +0.118 HD
ATOM     19  H   LIG    1       -2.385   0.284   0.038  0.00  0.00    +0.118 HD
ENDBRANCH  15  17
TORSDOF 1
