REMARK  Name = ZINC72105511
REMARK                            x       y       z     vdW  Elec       q    Type
REMARK                         _______ _______ _______ _____ _____    ______ ____
ROOT
ATOM      1  N   LIG    1        4.508  -2.214   0.255  0.00  0.00    +0.383 N 
ATOM      2  H   LIG    1        4.263  -1.252   0.431  0.00  0.00    -0.081 HD
ATOM      3  C   LIG    1        3.555  -3.090   0.945  0.00  0.00    -0.071 C 
ATOM      4  C   LIG    1        3.486  -2.704   2.427  0.00  0.00    +0.056 C 
ATOM      5  C   LIG    1        4.893  -2.737   2.990  0.00  0.00    +0.134 C 
ATOM      6  C   LIG    1        5.980  -2.032   2.206  0.00  0.00    +0.050 C 
ATOM      7  O   LIG    1        5.138  -3.306   4.026  0.00  0.00    -0.297 OA
ATOM      8  C   LIG    1        5.871  -2.466   0.740  0.00  0.00    -0.066 C 
ENDROOT
BRANCH   1   9
ATOM      9  C   LIG    1        4.450  -2.474  -1.190  0.00  0.00    -0.043 C 
BRANCH   9  13
ATOM     10  C   LIG    1        0.588  -1.413  -2.675  0.00  0.00    +0.000 A 
ATOM     11  C   LIG    1        1.601  -0.472  -2.649  0.00  0.00    +0.000 A 
ATOM     12  C   LIG    1        2.851  -0.816  -2.169  0.00  0.00    +0.002 A 
ATOM     13  C   LIG    1        3.087  -2.099  -1.713  0.00  0.00    -0.064 A 
ATOM     14  C   LIG    1        2.074  -3.039  -1.738  0.00  0.00    +0.002 A 
ATOM     15  C   LIG    1        0.825  -2.696  -2.220  0.00  0.00    +0.000 A 
ENDBRANCH   9  13
ENDBRANCH   1   9
BRANCH   6  16
ATOM     16  C   LIG    1        7.352  -2.423   2.760  0.00  0.00    +0.057 C 
BRANCH  16  17
ATOM     17  C   LIG    1        7.441  -2.021   4.210  0.00  0.00    -0.039 A 
ATOM     18  C   LIG    1        7.126  -0.730   4.589  0.00  0.00    +0.004 A 
ATOM     19  C   LIG    1        7.207  -0.361   5.919  0.00  0.00    +0.000 A 
ATOM     20  C   LIG    1        7.604  -1.284   6.869  0.00  0.00    +0.000 A 
ATOM     21  C   LIG    1        7.918  -2.575   6.489  0.00  0.00    +0.000 A 
ATOM     22  C   LIG    1        7.832  -2.945   5.160  0.00  0.00    +0.004 A 
ENDBRANCH  16  17
BRANCH  16  23
ATOM     23  C   LIG    1        8.429  -1.718   1.976  0.00  0.00    -0.039 A 
ATOM     24  C   LIG    1        8.378  -0.347   1.810  0.00  0.00    +0.004 A 
ATOM     25  C   LIG    1        9.367   0.299   1.091  0.00  0.00    +0.000 A 
ATOM     26  C   LIG    1       10.406  -0.426   0.539  0.00  0.00    +0.000 A 
ATOM     27  C   LIG    1       10.457  -1.797   0.706  0.00  0.00    +0.000 A 
ATOM     28  C   LIG    1        9.471  -2.443   1.428  0.00  0.00    +0.004 A 
ENDBRANCH  16  23
ENDBRANCH   6  16
TORSDOF 5
