REMARK  Name = ZINC29327213
REMARK                            x       y       z     vdW  Elec       q    Type
REMARK                         _______ _______ _______ _____ _____    ______ ____
ROOT
ATOM      1  C   LIG    1       -1.845   2.221  -1.414  0.00  0.00    +0.005 C 
ATOM      2  C   LIG    1       -1.331   2.074   0.020  0.00  0.00    +0.044 C 
ENDROOT
BRANCH   2   3
ATOM      3  N   LIG    1       -2.309   1.318   0.815  0.00  0.00    +0.391 N 
ATOM      4  H   LIG    1       -3.269   1.855   0.822  0.00  0.00    -0.088 HD
ATOM      5  H   LIG    1       -2.450   0.322   0.372  0.00  0.00    -0.088 HD
ATOM      6  H   LIG    1       -1.940   1.213   1.845  0.00  0.00    -0.088 HD
ENDBRANCH   2   3
BRANCH   2   7
ATOM      7  C   LIG    1       -0.016   1.338   0.009  0.00  0.00    +0.297 C 
ATOM      8  O   LIG    1        1.022   1.956   0.003  0.00  0.00    -0.252 OA
BRANCH   7   9
ATOM      9  O   LIG    1        0.002  -0.004   0.002  0.00  0.00    -0.481 OA
ATOM     10  H   LIG    1       -0.803  -0.484   0.007  0.00  0.00    +0.295 HD
ENDBRANCH   7   9
ENDBRANCH   2   7
BRANCH   2  11
ATOM     11  C   LIG    1       -1.138   3.439   0.627  0.00  0.00    -0.035 C 
ATOM     12  C   LIG    1       -1.804   3.778   1.703  0.00  0.00    -0.051 C 
BRANCH  12  13
ATOM     13  C   LIG    1       -1.610   5.144   2.310  0.00  0.00    -0.059 C 
BRANCH  13  14
ATOM     14  N   LIG    1       -2.912   5.815   2.430  0.00  0.00    +0.380 N 
ATOM     15  H   LIG    1       -3.365   5.917   1.433  0.00  0.00    -0.090 HD
ATOM     16  H   LIG    1       -3.574   5.218   3.074  0.00  0.00    -0.090 HD
ATOM     17  H   LIG    1       -2.771   6.811   2.873  0.00  0.00    -0.090 HD
ENDBRANCH  13  14
ENDBRANCH  12  13
ENDBRANCH   2  11
TORSDOF 6
