REMARK  Name = ZINC16957594
REMARK                            x       y       z     vdW  Elec       q    Type
REMARK                         _______ _______ _______ _____ _____    ______ ____
ROOT
ATOM      1  C   LIG    1        1.832   8.008  -0.180  0.00  0.00    +0.067 C 
ATOM      2  C   LIG    1        1.745   6.507  -0.079  0.00  0.00    +0.059 A 
ATOM      3  C   LIG    1        0.518   5.865   0.043  0.00  0.00    +0.083 A 
ATOM      4  S   LIG    1        1.048   4.159   0.118  0.00  0.00    -0.044 S 
ATOM      5  C   LIG    1        2.755   4.445  -0.013  0.00  0.00    +0.195 A 
ATOM      6  N   LIG    1        2.821   5.765  -0.097  0.00  0.00    -0.226 NA
ENDROOT
BRANCH   5   7
ATOM      7  N   LIG    1        3.791   3.523  -0.022  0.00  0.00    -0.207 N 
ATOM      8  C   LIG    1        4.017   2.557   0.921  0.00  0.00    +0.077 A 
ATOM      9  C   LIG    1        5.127   1.863   0.538  0.00  0.00    +0.058 A 
ATOM     10  C   LIG    1        5.591   2.424  -0.665  0.00  0.00    +0.094 A 
ATOM     11  N   LIG    1        4.793   3.418  -0.994  0.00  0.00    -0.164 NA
BRANCH   8  12
ATOM     12  C   LIG    1        3.203   2.307   2.130  0.00  0.00    +0.001 A 
ATOM     13  C   LIG    1        3.229   1.055   2.746  0.00  0.00    +0.010 A 
ATOM     14  C   LIG    1        2.468   0.828   3.874  0.00  0.00    +0.001 A 
ATOM     15  C   LIG    1        1.680   1.839   4.395  0.00  0.00    +0.000 A 
ATOM     16  C   LIG    1        1.649   3.082   3.788  0.00  0.00    +0.001 A 
ATOM     17  C   LIG    1        2.406   3.322   2.660  0.00  0.00    +0.010 A 
ENDBRANCH   8  12
BRANCH  10  18
ATOM     18  C   LIG    1        6.779   1.973  -1.431  0.00  0.00    +0.002 A 
ATOM     19  C   LIG    1        7.547   0.907  -0.968  0.00  0.00    +0.010 A 
ATOM     20  C   LIG    1        8.648   0.489  -1.688  0.00  0.00    +0.001 A 
ATOM     21  C   LIG    1        8.996   1.133  -2.861  0.00  0.00    +0.000 A 
ATOM     22  C   LIG    1        8.240   2.196  -3.323  0.00  0.00    +0.001 A 
ATOM     23  C   LIG    1        7.134   2.619  -2.614  0.00  0.00    +0.010 A 
ENDBRANCH  10  18
ENDBRANCH   5   7
BRANCH   3  24
ATOM     24  C   LIG    1       -0.833   6.429   0.096  0.00  0.00    +0.194 C 
ATOM     25  O   LIG    1       -0.992   7.636   0.030  0.00  0.00    -0.287 OA
BRANCH  24  26
ATOM     26  C   LIG    1       -1.992   5.543   0.229  0.00  0.00    +0.052 C 
ATOM     27  C   LIG    1       -3.236   6.063   0.278  0.00  0.00    +0.012 C 
BRANCH  27  28
ATOM     28  C   LIG    1       -4.400   5.173   0.411  0.00  0.00    -0.025 A 
ATOM     29  C   LIG    1       -4.222   3.787   0.482  0.00  0.00    +0.010 A 
ATOM     30  C   LIG    1       -5.317   2.961   0.612  0.00  0.00    +0.033 A 
ATOM     31  C   LIG    1       -6.592   3.498   0.662  0.00  0.00    +0.122 A 
ATOM     32  C   LIG    1       -6.777   4.867   0.587  0.00  0.00    +0.033 A 
ATOM     33  C   LIG    1       -5.691   5.708   0.462  0.00  0.00    +0.010 A 
BRANCH  31  34
ATOM     34  N   LIG    1       -7.763   2.603   0.796  0.00  0.00    +0.006 N 
ATOM     35  O   LIG    1       -8.886   3.072   0.840  0.00  0.00    -0.130 OA
BRANCH  34  36
ATOM     36  O   LIG    1       -7.604   1.397   0.863  0.00  0.00    -0.396 OA
ATOM     37  H   LIG    1       -6.740   1.036   0.829  0.00  0.00    +0.329 HD
ENDBRANCH  34  36
ENDBRANCH  31  34
ENDBRANCH  27  28
ENDBRANCH  24  26
ENDBRANCH   3  24
TORSDOF 8
