REMARK  Name = ZINC26169414
REMARK                            x       y       z     vdW  Elec       q    Type
REMARK                         _______ _______ _______ _____ _____    ______ ____
ROOT
ATOM      1  CA  TRP A  1        0.978   6.748  -1.412  0.00  0.00    +0.186 C 
ENDROOT
BRANCH   1   2
ATOM      2  N   TRP A  1        1.736   5.624  -1.968  0.00  0.00    -0.298 N 
ATOM      3  H   TRP A  1        2.278   4.941  -1.297  0.00  0.00    +0.150 HD
ATOM      4  C   UNK A  0        1.771   5.428  -3.300  0.00  0.00    +0.246 C 
ATOM      5  O   UNK A  0        1.173   6.183  -4.042  0.00  0.00    -0.270 OA
BRANCH   4   6
ATOM      6  C   UNK A  0        2.536   4.294  -3.861  0.00  0.00    +0.050 A 
ATOM      7  C   UNK A  0        3.229   3.428  -3.013  0.00  0.00    +0.014 A 
ATOM      8  C   UNK A  0        3.937   2.370  -3.542  0.00  0.00    +0.001 A 
ATOM      9  C   UNK A  0        3.970   2.170  -4.911  0.00  0.00    +0.001 A 
ATOM     10  C   UNK A  0        3.291   3.027  -5.758  0.00  0.00    +0.015 A 
ATOM     11  C   UNK A  0        2.574   4.088  -5.241  0.00  0.00    +0.025 A 
ATOM     12  I   UNK A  0        1.545   5.385  -6.526  0.00  0.00    -0.043 I 
ENDBRANCH   4   6
ENDBRANCH   1   2
BRANCH   1  13
ATOM     13  C   TRP A  1        1.834   7.988  -1.427  0.00  0.00    +0.326 C 
ATOM     14  O   TRP A  1        2.962   7.938  -1.858  0.00  0.00    -0.249 OA
BRANCH  13  15
ATOM     15  OXT TRP A  1        1.344   9.148  -0.962  0.00  0.00    -0.479 OA
ATOM     16  HXT TRP A  1        0.469   9.186  -0.628  0.00  0.00    +0.295 HD
ENDBRANCH  13  15
ENDBRANCH   1  13
BRANCH   1  17
ATOM     17  CB  TRP A  1        0.571   6.427   0.027  0.00  0.00    +0.071 C 
BRANCH  17  23
ATOM     18  CZ3 TRP A  1        1.184   1.779   0.000  0.00  0.00    +0.001 A 
ATOM     19  CH2 TRP A  1       -0.013   1.076   0.008  0.00  0.00    +0.002 A 
ATOM     20  CZ2 TRP A  1       -1.219   1.741   0.017  0.00  0.00    +0.026 A 
ATOM     21  CE2 TRP A  1       -1.240   3.132   0.030  0.00  0.00    +0.047 A 
ATOM     22  CD2 TRP A  1       -0.025   3.840   0.021  0.00  0.00    +0.003 A 
ATOM     23  CG  TRP A  1       -0.384   5.261   0.031  0.00  0.00    -0.020 A 
ATOM     24  CD1 TRP A  1       -1.724   5.327   0.044  0.00  0.00    +0.087 A 
ATOM     25  NE1 TRP A  1       -2.253   4.065   0.043  0.00  0.00    -0.360 N 
ATOM     26  HE1 TRP A  1       -3.303   3.736   0.052  0.00  0.00    +0.165 HD
ATOM     27  CE3 TRP A  1        1.186   3.146   0.007  0.00  0.00    +0.010 A 
ENDBRANCH  17  23
ENDBRANCH   1  17
TORSDOF 6
