REMARK  Name = ZINC28701758
REMARK                            x       y       z     vdW  Elec       q    Type
REMARK                         _______ _______ _______ _____ _____    ______ ____
ROOT
ATOM      1  C   LIG    1       -2.321   5.214  -1.073  0.00  0.00    +0.028 C 
ATOM      2  C   LIG    1       -0.895   5.751  -1.206  0.00  0.00    +0.078 C 
ENDROOT
BRANCH   2   3
ATOM      3  N   LIG    1       -0.272   5.189  -2.408  0.00  0.00    -0.309 N 
ATOM      4  H   LIG    1        0.354   4.288  -2.333  0.00  0.00    +0.149 HD
ATOM      5  C   LIG    1       -0.467   5.777  -3.605  0.00  0.00    +0.257 C 
ATOM      6  O   LIG    1       -1.157   6.771  -3.688  0.00  0.00    -0.271 OA
BRANCH   5   7
ATOM      7  C   LIG    1        0.174   5.200  -4.841  0.00  0.00    +0.182 C 
ATOM      8  C   LIG    1       -0.319   3.766  -5.049  0.00  0.00    +0.065 C 
ATOM      9  C   LIG    1        1.695   5.197  -4.673  0.00  0.00    +0.065 C 
BRANCH   7  10
ATOM     10  O   LIG    1       -0.179   5.994  -5.976  0.00  0.00    -0.461 OA
BRANCH  10  11
ATOM     11  C   LIG    1        0.320   5.607  -7.177  0.00  0.00    +0.216 A 
ATOM     12  C   LIG    1        0.007   6.336  -8.318  0.00  0.00    +0.068 A 
ATOM     13  C   LIG    1        0.527   5.935  -9.536  0.00  0.00    +0.019 A 
ATOM     14  C   LIG    1        1.335   4.806  -9.572  0.00  0.00    +0.073 A 
ATOM     15  C   LIG    1        1.599   4.127  -8.399  0.00  0.00    +0.127 A 
ATOM     16  N   LIG    1        1.093   4.538  -7.251  0.00  0.00    -0.221 NA
BRANCH  14  17
ATOM     17  C   LIG    1        1.919   4.329 -10.876  0.00  0.00    +0.419 C 
ATOM     18  F   LIG    1        2.724   5.334 -11.422  0.00  0.00    -0.166 F 
ATOM     19  F   LIG    1        0.884   4.025 -11.767  0.00  0.00    -0.166 F 
ATOM     20  F   LIG    1        2.691   3.184 -10.650  0.00  0.00    -0.166 F 
ENDBRANCH  14  17
ENDBRANCH  10  11
ENDBRANCH   7  10
ENDBRANCH   5   7
ENDBRANCH   2   3
BRANCH   2  21
ATOM     21  C   LIG    1       -0.082   5.348   0.025  0.00  0.00    +0.043 C 
BRANCH  21  22
ATOM     22  C   LIG    1       -0.688   5.973   1.255  0.00  0.00    -0.041 A 
ATOM     23  C   LIG    1       -0.828   7.348   1.332  0.00  0.00    +0.004 A 
ATOM     24  C   LIG    1       -1.388   7.931   2.455  0.00  0.00    +0.002 A 
ATOM     25  C   LIG    1       -1.803   7.144   3.510  0.00  0.00    +0.019 A 
ATOM     26  C   LIG    1       -1.665   5.756   3.438  0.00  0.00    +0.052 A 
ATOM     27  C   LIG    1       -1.103   5.175   2.300  0.00  0.00    +0.022 A 
BRANCH  26  28
ATOM     28  C   LIG    1       -2.099   4.934   4.527  0.00  0.00    +0.099 C 
ATOM     29  N   LIG    1       -2.443   4.281   5.391  0.00  0.00    -0.191 NA
ENDBRANCH  26  28
ENDBRANCH  21  22
BRANCH  21  30
ATOM     30  C   LIG    1        1.361   5.832  -0.135  0.00  0.00    +0.045 C 
BRANCH  30  31
ATOM     31  C   LIG    1        2.191   5.330   1.019  0.00  0.00    -0.047 A 
ATOM     32  C   LIG    1        2.312   6.093   2.166  0.00  0.00    +0.005 A 
ATOM     33  C   LIG    1        3.068   5.630   3.226  0.00  0.00    +0.020 A 
ATOM     34  C   LIG    1        3.713   4.410   3.135  0.00  0.00    +0.041 A 
ATOM     35 CL   LIG    1        4.668   3.831   4.464  0.00  0.00    -0.084 Cl
ATOM     36  C   LIG    1        3.596   3.650   1.985  0.00  0.00    +0.020 A 
ATOM     37  C   LIG    1        2.835   4.111   0.927  0.00  0.00    +0.005 A 
ENDBRANCH  30  31
ENDBRANCH  21  30
ENDBRANCH   2  21
TORSDOF 10
