REMARK  Name = ZINC15786673
REMARK                            x       y       z     vdW  Elec       q    Type
REMARK                         _______ _______ _______ _____ _____    ______ ____
ROOT
ATOM      1  C   LIG    1        0.882   2.383   0.346  0.00  0.00    +0.133 A 
ATOM      2  C   LIG    1        0.486   3.706   0.394  0.00  0.00    +0.014 A 
ATOM      3  C   LIG    1        1.418   4.681   0.738  0.00  0.00    +0.052 A 
ATOM      4  C   LIG    1        0.753   6.041   0.724  0.00  0.00    +0.056 C 
ATOM      5  C   LIG    1       -0.548   5.848  -0.083  0.00  0.00    +0.011 C 
ATOM      6  N   LIG    1        2.663   4.339   1.012  0.00  0.00    -0.215 NA
ATOM      7  C   LIG    1        3.061   3.064   0.969  0.00  0.00    +0.255 A 
ATOM      8  N   LIG    1        4.234   2.482   1.198  0.00  0.00    -0.197 NA
ATOM      9  C   LIG    1        4.125   1.171   1.025  0.00  0.00    +0.247 A 
ATOM     10  N   LIG    1        2.896   0.872   0.685  0.00  0.00    -0.151 NA
ATOM     11  C   LIG    1       -0.855   4.350   0.128  0.00  0.00    +0.041 C 
ATOM     12  N   LIG    1        2.178   2.073   0.642  0.00  0.00    -0.182 N 
ENDROOT
BRANCH   1  13
ATOM     13  N   LIG    1       -0.017   1.393   0.010  0.00  0.00    -0.299 N 
ATOM     14  H   LIG    1       -0.659   1.079   0.665  0.00  0.00    +0.154 HD
BRANCH  13  19
ATOM     15  C   LIG    1        0.030  -0.820  -5.214  0.00  0.00    +0.047 C 
ATOM     16  C   LIG    1        0.017  -0.232  -3.826  0.00  0.00    -0.015 A 
ATOM     17  C   LIG    1        0.831   0.844  -3.525  0.00  0.00    +0.008 A 
ATOM     18  C   LIG    1        0.818   1.388  -2.256  0.00  0.00    +0.024 A 
ATOM     19  C   LIG    1       -0.006   0.847  -1.277  0.00  0.00    +0.035 A 
ATOM     20  C   LIG    1       -0.824  -0.233  -1.581  0.00  0.00    +0.062 A 
ATOM     21  C   LIG    1       -0.810  -0.771  -2.855  0.00  0.00    +0.128 A 
ATOM     22  F   LIG    1       -1.605  -1.823  -3.152  0.00  0.00    -0.205 F 
ENDBRANCH  13  19
ENDBRANCH   1  13
TORSDOF 2
