REMARK  Name = ZINC58633358
REMARK                            x       y       z     vdW  Elec       q    Type
REMARK                         _______ _______ _______ _____ _____    ______ ____
ROOT
ATOM      1  C   LIG    1       -1.609  -1.886   0.007  0.00  0.00    +0.039 A 
ATOM      2  C   LIG    1       -0.539  -2.774  -0.002  0.00  0.00    +0.024 A 
ATOM      3  C   LIG    1       -0.770  -4.133  -0.006  0.00  0.00    +0.012 A 
ATOM      4  C   LIG    1       -2.078  -4.617  -0.002  0.00  0.00    +0.001 A 
ATOM      5  C   LIG    1       -3.149  -3.724   0.007  0.00  0.00    +0.024 A 
ATOM      6  C   LIG    1       -2.913  -2.366   0.017  0.00  0.00    +0.076 A 
ENDROOT
BRANCH   4   7
ATOM      7  C   LIG    1       -2.329  -6.078  -0.007  0.00  0.00    +0.075 A 
ATOM      8  C   LIG    1       -1.252  -6.958   0.095  0.00  0.00    +0.056 A 
ATOM      9  C   LIG    1       -1.498  -8.322   0.088  0.00  0.00    +0.071 A 
ATOM     10  C   LIG    1       -2.830  -8.773  -0.021  0.00  0.00    +0.125 A 
ATOM     11  N   LIG    1       -2.791 -10.119  -0.003  0.00  0.00    -0.233 NA
ATOM     12  C   LIG    1       -1.558 -10.524   0.106  0.00  0.00    +0.197 A 
ATOM     13  C   LIG    1       -3.860  -7.819  -0.119  0.00  0.00    +0.168 A 
ATOM     14  N   LIG    1       -0.719  -9.454   0.167  0.00  0.00    -0.344 N 
ATOM     15  H   LIG    1        0.247  -9.484   0.250  0.00  0.00    +0.167 HD
ATOM     16  N   LIG    1       -3.574  -6.524  -0.104  0.00  0.00    -0.234 NA
BRANCH  13  17
ATOM     17  C   LIG    1       -5.222  -8.248  -0.232  0.00  0.00    +0.121 C 
ATOM     18  N   LIG    1       -6.302  -8.589  -0.321  0.00  0.00    -0.189 NA
ENDBRANCH  13  17
ENDBRANCH   4   7
BRANCH   6  19
ATOM     19  C   LIG    1       -4.071  -1.401   0.033  0.00  0.00    +0.419 C 
ATOM     20  F   LIG    1       -4.017  -0.590  -1.105  0.00  0.00    -0.166 F 
ATOM     21  F   LIG    1       -3.995  -0.602   1.179  0.00  0.00    -0.166 F 
ATOM     22  F   LIG    1       -5.273  -2.115   0.041  0.00  0.00    -0.166 F 
ENDBRANCH   6  19
BRANCH   1  23
ATOM     23  N   LIG    1       -1.372  -0.511   0.012  0.00  0.00    -0.344 N 
ATOM     24  H   LIG    1       -2.118   0.109   0.023  0.00  0.00    +0.146 HD
BRANCH  23  26
ATOM     25  C   LIG    1       -0.019   1.526   0.010  0.00  0.00    +0.024 C 
ATOM     26  C   LIG    1        0.002  -0.004   0.002  0.00  0.00    +0.098 C 
ENDBRANCH  23  26
ENDBRANCH   1  23
TORSDOF 5
