REMARK  Name = ZINC14959798
REMARK                            x       y       z     vdW  Elec       q    Type
REMARK                         _______ _______ _______ _____ _____    ______ ____
ROOT
ATOM      1  C   LIG    1       -1.668   5.283   0.054  0.00  0.00    +0.106 A 
ATOM      2  C   LIG    1       -0.316   5.146   0.035  0.00  0.00    +0.041 A 
ATOM      3  C   LIG    1       -0.024   3.760   0.011  0.00  0.00    +0.001 A 
ATOM      4  C   LIG    1        1.171   3.029  -0.015  0.00  0.00    +0.010 A 
ATOM      5  C   LIG    1        1.132   1.666  -0.035  0.00  0.00    +0.001 A 
ATOM      6  C   LIG    1       -0.084   0.993  -0.029  0.00  0.00    +0.002 A 
ATOM      7  C   LIG    1       -1.271   1.688  -0.009  0.00  0.00    +0.026 A 
ATOM      8  C   LIG    1       -1.258   3.080   0.017  0.00  0.00    +0.050 A 
ATOM      9  N   LIG    1       -2.251   4.031   0.043  0.00  0.00    -0.327 N 
ENDROOT
BRANCH   1  12
ATOM     10  N   LIG    1       -1.715   7.721   0.190  0.00  0.00    -0.307 N 
ATOM     11  H   LIG    1       -0.745   7.717   0.177  0.00  0.00    +0.149 HD
ATOM     12  C   LIG    1       -2.394   6.561   0.081  0.00  0.00    +0.261 C 
ATOM     13  O   LIG    1       -3.608   6.573   0.004  0.00  0.00    -0.269 OA
BRANCH  10  18
ATOM     14  N   LIG    1       -2.603  11.814  -0.247  0.00  0.00    +0.381 N 
ATOM     15  H   LIG    1       -1.731  11.868  -0.786  0.00  0.00    -0.081 HD
ATOM     16  C   LIG    1       -3.521  10.865  -0.912  0.00  0.00    -0.077 C 
ATOM     17  C   LIG    1       -2.816   9.514  -1.059  0.00  0.00    +0.004 C 
ATOM     18  C   LIG    1       -2.442   8.985   0.328  0.00  0.00    +0.070 C 
ATOM     19  C   LIG    1       -1.552  10.012   1.034  0.00  0.00    +0.004 C 
ATOM     20  C   LIG    1       -2.293  11.348   1.121  0.00  0.00    -0.077 C 
BRANCH  14  22
ATOM     21  C   LIG    1       -3.553  13.605  -1.619  0.00  0.00    -0.014 C 
ATOM     22  C   LIG    1       -3.218  13.157  -0.195  0.00  0.00    -0.075 C 
ATOM     23  C   LIG    1       -4.496  13.132   0.646  0.00  0.00    -0.014 C 
ENDBRANCH  14  22
ENDBRANCH  10  18
ENDBRANCH   1  12
BRANCH   9  24
ATOM     24  C   LIG    1       -3.690   3.760   0.057  0.00  0.00    +0.218 C 
BRANCH  24  25
ATOM     25  C   LIG    1       -4.146   3.539   1.477  0.00  0.00    +0.238 C 
ATOM     26  N   LIG    1       -5.441   3.272   1.735  0.00  0.00    -0.269 N 
ATOM     27  H   LIG    1       -6.065   3.145   1.004  0.00  0.00    +0.156 HD
ATOM     28  O   LIG    1       -3.346   3.602   2.387  0.00  0.00    -0.273 OA
BRANCH  26  29
ATOM     29  C   LIG    1       -5.884   3.178   3.054  0.00  0.00    +0.125 A 
ATOM     30  C   LIG    1       -7.194   2.793   3.314  0.00  0.00    +0.045 A 
ATOM     31  C   LIG    1       -7.620   2.699   4.628  0.00  0.00    +0.025 A 
ATOM     32  C   LIG    1       -6.719   3.005   5.640  0.00  0.00    +0.059 A 
ATOM     33 CL   LIG    1       -7.203   2.909   7.304  0.00  0.00    -0.082 Cl
ATOM     34  C   LIG    1       -5.433   3.386   5.308  0.00  0.00    +0.132 A 
ATOM     35  N   LIG    1       -5.055   3.461   4.046  0.00  0.00    -0.239 NA
ENDBRANCH  26  29
ENDBRANCH  24  25
ENDBRANCH   9  24
TORSDOF 6
