REMARK  Name = ZINC27436162
REMARK                            x       y       z     vdW  Elec       q    Type
REMARK                         _______ _______ _______ _____ _____    ______ ____
ROOT
ATOM      1  C   LIG    1        0.002  -0.004   0.002  0.00  0.00    +0.058 C 
ATOM      2  C   LIG    1        0.123   1.069  -0.822  0.00  0.00    +0.176 C 
ATOM      3  C   LIG    1       -0.875   1.533  -1.795  0.00  0.00    +0.232 C 
ATOM      4  C   LIG    1       -0.261   2.720  -2.419  0.00  0.00    +0.071 A 
ATOM      5  C   LIG    1       -0.690   3.608  -3.406  0.00  0.00    +0.019 A 
ATOM      6  C   LIG    1        0.120   4.638  -3.796  0.00  0.00    +0.050 A 
ATOM      7  C   LIG    1        1.371   4.804  -3.211  0.00  0.00    +0.162 A 
ATOM      8  C   LIG    1        1.812   3.929  -2.227  0.00  0.00    +0.202 A 
ATOM      9  C   LIG    1        0.998   2.874  -1.819  0.00  0.00    +0.184 A 
ATOM     10  O   LIG    1       -1.968   1.048  -2.032  0.00  0.00    -0.283 OA
ATOM     11  O   LIG    1        1.188   1.902  -0.900  0.00  0.00    -0.448 OA
ENDROOT
BRANCH   1  15
ATOM     12  C   LIG    1       -3.698  -2.032   0.304  0.00  0.00    +0.030 A 
ATOM     13  C   LIG    1       -2.508  -2.756   0.298  0.00  0.00    +0.024 A 
ATOM     14  C   LIG    1       -1.311  -2.105   0.201  0.00  0.00    +0.010 A 
ATOM     15  C   LIG    1       -1.281  -0.707   0.107  0.00  0.00    -0.021 A 
ATOM     16  C   LIG    1       -2.481   0.017   0.120  0.00  0.00    +0.010 A 
ATOM     17  C   LIG    1       -3.673  -0.643   0.212  0.00  0.00    +0.024 A 
BRANCH  12  18
ATOM     18  N   LIG    1       -4.915  -2.699   0.403  0.00  0.00    -0.330 N 
BRANCH  18  20
ATOM     19  C   LIG    1       -6.669  -1.770  -1.025  0.00  0.00    +0.024 C 
ATOM     20  C   LIG    1       -6.168  -1.940   0.410  0.00  0.00    +0.102 C 
ENDBRANCH  18  20
BRANCH  18  21
ATOM     21  C   LIG    1       -4.943  -4.161   0.501  0.00  0.00    +0.102 C 
ATOM     22  C   LIG    1       -4.888  -4.575   1.973  0.00  0.00    +0.024 C 
ENDBRANCH  18  21
ENDBRANCH  12  18
ENDBRANCH   1  15
BRANCH   7  23
ATOM     23  O   LIG    1        2.169   5.831  -3.605  0.00  0.00    -0.503 OA
ATOM     24  H   LIG    1        3.159   5.966  -3.146  0.00  0.00    +0.292 HD
ENDBRANCH   7  23
BRANCH   8  25
ATOM     25  O   LIG    1        3.038   4.101  -1.661  0.00  0.00    -0.501 OA
ATOM     26  H   LIG    1        3.386   3.407  -0.882  0.00  0.00    +0.292 HD
ENDBRANCH   8  25
TORSDOF 6
