REMARK  Name = ZINC29131039
REMARK                            x       y       z     vdW  Elec       q    Type
REMARK                         _______ _______ _______ _____ _____    ______ ____
ROOT
ATOM      1  C   LIG    1       -1.201  -0.638   0.010  0.00  0.00    +0.159 A 
ATOM      2  C   LIG    1       -2.374   0.097   0.019  0.00  0.00    +0.049 A 
ATOM      3  C   LIG    1       -3.599  -0.546   0.028  0.00  0.00    +0.004 A 
ATOM      4  C   LIG    1       -3.661  -1.929   0.028  0.00  0.00    +0.010 A 
ATOM      5  C   LIG    1       -2.501  -2.672   0.019  0.00  0.00    +0.026 A 
ATOM      6  C   LIG    1       -2.553  -4.181   0.022  0.00  0.00    +0.223 C 
ATOM      7  N   LIG    1       -1.320  -4.672  -0.627  0.00  0.00    -0.237 N 
ATOM      8  H   LIG    1       -1.346  -5.416  -1.249  0.00  0.00    +0.245 HD
ATOM      9  C   LIG    1       -0.130  -4.052  -0.322  0.00  0.00    +0.332 C 
ATOM     10  N   LIG    1       -0.108  -2.777  -0.016  0.00  0.00    -0.246 N 
ATOM     11  H   LIG    1        0.737  -2.353   0.199  0.00  0.00    +0.264 HD
ATOM     12  C   LIG    1       -1.259  -2.036   0.003  0.00  0.00    +0.147 A 
ENDROOT
BRANCH   9  13
ATOM     13  N   LIG    1        1.039  -4.772  -0.338  0.00  0.00    -0.254 N 
ATOM     14  H   LIG    1        1.025  -5.715  -0.563  0.00  0.00    +0.241 HD
ATOM     15  H   LIG    1        1.879  -4.337  -0.123  0.00  0.00    +0.241 HD
ENDBRANCH   9  13
BRANCH   1  17
ATOM     16  C   LIG    1       -0.017   1.425   0.010  0.00  0.00    +0.277 C 
ATOM     17  O   LIG    1        0.002  -0.004   0.002  0.00  0.00    -0.492 OA
ENDBRANCH   1  17
TORSDOF 2
