REMARK  Name = ZINC00018635
REMARK                            x       y       z     vdW  Elec       q    Type
REMARK                         _______ _______ _______ _____ _____    ______ ____
ROOT
ATOM      1  C   LIG    1       -1.376  -0.512   0.012  0.00  0.00    -0.067 C 
ATOM      2  C   LIG    1       -2.054  -0.126   1.330  0.00  0.00    -0.009 C 
ATOM      3  C   LIG    1       -3.553  -0.433   1.242  0.00  0.00    +0.052 C 
ATOM      4  C   LIG    1       -3.726  -1.851   0.752  0.00  0.00    +0.020 A 
ATOM      5  C   LIG    1       -2.748  -2.561   0.149  0.00  0.00    -0.021 A 
ATOM      6  C   LIG    1       -3.300  -3.863  -0.166  0.00  0.00    +0.004 A 
ATOM      7  C   LIG    1       -2.764  -4.994  -0.781  0.00  0.00    +0.023 A 
ATOM      8  C   LIG    1       -3.616  -6.094  -0.917  0.00  0.00    +0.037 A 
ATOM      9  C   LIG    1       -4.937  -6.060  -0.459  0.00  0.00    +0.015 A 
ATOM     10  C   LIG    1       -5.472  -4.954   0.147  0.00  0.00    +0.027 A 
ATOM     11  C   LIG    1       -4.644  -3.840   0.296  0.00  0.00    +0.047 A 
ATOM     12  N   LIG    1       -4.863  -2.611   0.842  0.00  0.00    -0.358 N 
ATOM     13  H   LIG    1       -5.699  -2.318   1.236  0.00  0.00    +0.166 HD
ATOM     14  C   LIG    1       -1.359  -2.040  -0.120  0.00  0.00    +0.022 C 
ENDROOT
BRANCH   8  15
ATOM     15  C   LIG    1       -3.109  -7.322  -1.562  0.00  0.00    +0.242 C 
ATOM     16  N   LIG    1       -3.916  -8.393  -1.701  0.00  0.00    -0.325 N 
ATOM     17  H   LIG    1       -3.583  -9.199  -2.124  0.00  0.00    +0.145 HD
ATOM     18  H   LIG    1       -4.830  -8.356  -1.378  0.00  0.00    +0.145 HD
ATOM     19  O   LIG    1       -1.963  -7.368  -1.966  0.00  0.00    -0.270 OA
ENDBRANCH   8  15
BRANCH   1  21
ATOM     20  C   LIG    1       -0.018   1.465   0.010  0.00  0.00    -0.100 C 
ATOM     21  N   LIG    1        0.002  -0.004   0.002  0.00  0.00    +0.379 N 
ATOM     22  H   LIG    1        0.490  -0.338   0.820  0.00  0.00    -0.086 HD
ATOM     23  H   LIG    1        0.474  -0.330  -0.828  0.00  0.00    -0.086 HD
ENDBRANCH   1  21
TORSDOF 2
