REMARK  Name = ZINC22779605
REMARK                            x       y       z     vdW  Elec       q    Type
REMARK                         _______ _______ _______ _____ _____    ______ ____
ROOT
ATOM      1  C   LIG    1       -0.952   1.719  -1.141  0.00  0.00    +0.135 C 
ATOM      2  C   LIG    1       -2.443   1.628  -0.807  0.00  0.00    +0.034 C 
ATOM      3  C   LIG    1       -2.682   2.188   0.598  0.00  0.00    -0.075 C 
ATOM      4  N   LIG    1       -1.896   1.419   1.571  0.00  0.00    +0.380 N 
ATOM      5  H   LIG    1       -2.177   0.361   1.467  0.00  0.00    -0.082 HD
ATOM      6  C   LIG    1       -2.205   1.838   2.945  0.00  0.00    -0.096 C 
ATOM      7  C   LIG    1       -0.456   1.529   1.299  0.00  0.00    -0.068 C 
ATOM      8  C   LIG    1        0.325   0.751   2.360  0.00  0.00    -0.013 C 
ATOM      9  C   LIG    1       -0.153   0.951  -0.085  0.00  0.00    +0.037 C 
ENDROOT
BRANCH   1  10
ATOM     10  C   LIG    1       -0.702   1.115  -2.499  0.00  0.00    -0.004 A 
ATOM     11  C   LIG    1       -1.322  -0.069  -2.853  0.00  0.00    +0.007 A 
ATOM     12  C   LIG    1       -1.097  -0.621  -4.101  0.00  0.00    +0.000 A 
ATOM     13  C   LIG    1       -0.244   0.006  -4.990  0.00  0.00    +0.000 A 
ATOM     14  C   LIG    1        0.380   1.187  -4.633  0.00  0.00    +0.000 A 
ATOM     15  C   LIG    1        0.150   1.742  -3.388  0.00  0.00    +0.007 A 
ENDBRANCH   1  10
BRANCH   1  16
ATOM     16  O   LIG    1       -0.538   3.111  -1.145  0.00  0.00    -0.453 OA
BRANCH  16  17
ATOM     17  C   LIG    1       -1.162   3.929  -2.006  0.00  0.00    +0.308 C 
ATOM     18  O   LIG    1       -1.958   3.481  -2.797  0.00  0.00    -0.251 OA
BRANCH  17  20
ATOM     19  C   LIG    1       -1.709   6.107  -3.059  0.00  0.00    +0.015 C 
ATOM     20  C   LIG    1       -0.871   5.408  -1.986  0.00  0.00    +0.117 C 
ENDBRANCH  17  20
ENDBRANCH  16  17
ENDBRANCH   1  16
TORSDOF 4
