REMARK  Name = ZINC40405245
REMARK                            x       y       z     vdW  Elec       q    Type
REMARK                         _______ _______ _______ _____ _____    ______ ____
ROOT
ATOM      1  C   LIG    1        0.813  -0.351  -1.331  0.00  0.00    -0.021 A 
ATOM      2  C   LIG    1        0.044  -0.473  -2.473  0.00  0.00    +0.007 A 
ATOM      3  C   LIG    1        0.640  -0.808  -3.675  0.00  0.00    +0.028 A 
ATOM      4  C   LIG    1        2.005  -1.021  -3.734  0.00  0.00    +0.095 A 
ATOM      5  C   LIG    1        2.774  -0.898  -2.592  0.00  0.00    +0.056 A 
ATOM      6  C   LIG    1        2.179  -0.559  -1.391  0.00  0.00    +0.110 A 
ENDROOT
BRANCH   4   7
ATOM      7  S   LIG    1        2.764  -1.450  -5.265  0.00  0.00    +0.025 S 
ATOM      8  O   LIG    1        1.751  -2.036  -6.071  0.00  0.00    -0.164 OA
ATOM      9  O   LIG    1        3.970  -2.129  -4.945  0.00  0.00    -0.164 OA
BRANCH   7  10
ATOM     10  C   LIG    1        3.228   0.055  -6.056  0.00  0.00    +0.094 A 
ATOM     11  C   LIG    1        2.341   0.693  -6.903  0.00  0.00    +0.027 A 
ATOM     12  C   LIG    1        2.705   1.874  -7.523  0.00  0.00    +0.002 A 
ATOM     13  C   LIG    1        3.956   2.417  -7.296  0.00  0.00    +0.000 A 
ATOM     14  C   LIG    1        4.843   1.779  -6.448  0.00  0.00    +0.002 A 
ATOM     15  C   LIG    1        4.477   0.601  -5.824  0.00  0.00    +0.027 A 
ENDBRANCH   7  10
ENDBRANCH   4   7
BRANCH   6  16
ATOM     16  S   LIG    1        3.159  -0.396   0.063  0.00  0.00    +0.059 S 
ATOM     17  O   LIG    1        2.810   0.849   0.652  0.00  0.00    -0.153 OA
ATOM     18  O   LIG    1        4.493  -0.715  -0.309  0.00  0.00    -0.153 OA
BRANCH  16  19
ATOM     19  N   LIG    1        2.668  -1.573   1.119  0.00  0.00    -0.190 NA
ATOM     20  H   LIG    1        2.251  -1.328   1.960  0.00  0.00    +0.148 HD
BRANCH  19  21
ATOM     21  C   LIG    1        2.864  -2.986   0.784  0.00  0.00    +0.104 C 
BRANCH  21  22
ATOM     22  C   LIG    1        2.730  -3.834   2.050  0.00  0.00    -0.002 C 
BRANCH  22  23
ATOM     23  C   LIG    1        2.934  -5.309   1.700  0.00  0.00    -0.078 C 
BRANCH  23  24
ATOM     24  N   LIG    1        2.805  -6.124   2.916  0.00  0.00    +0.376 N 
ATOM     25  H   LIG    1        1.917  -5.934   3.356  0.00  0.00    -0.083 HD
ATOM     26  C   LIG    1        3.893  -5.791   3.846  0.00  0.00    -0.097 C 
ATOM     27  C   LIG    1        2.882  -7.547   2.563  0.00  0.00    -0.097 C 
ENDBRANCH  23  24
ENDBRANCH  22  23
ENDBRANCH  21  22
ENDBRANCH  19  21
ENDBRANCH  16  19
ENDBRANCH   6  16
BRANCH   1  29
ATOM     28  C   LIG    1        0.142   1.536   0.130  0.00  0.00    +0.009 C 
ATOM     29  C   LIG    1        0.164   0.014  -0.021  0.00  0.00    +0.034 C 
ENDBRANCH   1  29
TORSDOF 9
