REMARK  Name = ZINC18086647
REMARK                            x       y       z     vdW  Elec       q    Type
REMARK                         _______ _______ _______ _____ _____    ______ ____
ROOT
ATOM      1  C   LIG    1       -0.502   1.543  -1.293  0.00  0.00    +0.001 A 
ATOM      2  C   LIG    1        0.662   2.233  -1.028  0.00  0.00    +0.010 A 
ATOM      3  C   LIG    1        1.880   1.548  -0.902  0.00  0.00    +0.003 A 
ATOM      4  C   LIG    1        1.905   0.165  -1.047  0.00  0.00    -0.023 A 
ATOM      5  C   LIG    1        3.317  -0.340  -0.870  0.00  0.00    +0.043 C 
ATOM      6  C   LIG    1        4.186   0.895  -0.594  0.00  0.00    +0.064 C 
ATOM      7  C   LIG    1        0.723  -0.526  -1.315  0.00  0.00    +0.065 A 
ATOM      8  C   LIG    1        3.234   2.066  -0.624  0.00  0.00    +0.084 C 
ATOM      9  N   LIG    1        3.551   3.310  -0.438  0.00  0.00    -0.116 NA
ATOM     10  C   LIG    1       -0.480   0.170  -1.437  0.00  0.00    +0.016 A 
ENDROOT
BRANCH   7  11
ATOM     11  C   LIG    1        0.746  -1.998  -1.470  0.00  0.00    +0.266 C 
ATOM     12  N   LIG    1        1.183  -2.765  -0.474  0.00  0.00    -0.288 N 
ATOM     13  H   LIG    1        1.232  -3.727  -0.588  0.00  0.00    +0.301 HD
ATOM     14  H   LIG    1        1.454  -2.363   0.366  0.00  0.00    +0.301 HD
BRANCH  11  15
ATOM     15  N   LIG    1        0.328  -2.554  -2.605  0.00  0.00    -0.250 N 
ATOM     16  H   LIG    1        0.343  -3.519  -2.706  0.00  0.00    +0.288 HD
ATOM     17  H   LIG    1        0.009  -1.995  -3.330  0.00  0.00    +0.288 HD
ENDBRANCH  11  15
ENDBRANCH   7  11
BRANCH   9  18
ATOM     18  N   LIG    1        2.550   4.257  -0.183  0.00  0.00    -0.157 N 
ATOM     19  H   LIG    1        1.635   3.969  -0.040  0.00  0.00    +0.292 HD
BRANCH  18  20
ATOM     20  C   LIG    1        2.864   5.590  -0.135  0.00  0.00    +0.365 C 
ATOM     21  N   LIG    1        1.913   6.490   0.108  0.00  0.00    -0.290 N 
ATOM     22  H   LIG    1        2.135   7.434   0.142  0.00  0.00    +0.255 HD
ATOM     23  H   LIG    1        0.997   6.202   0.251  0.00  0.00    +0.255 HD
BRANCH  20  24
ATOM     24  N   LIG    1        4.121   5.986  -0.331  0.00  0.00    -0.290 N 
ATOM     25  H   LIG    1        4.344   6.929  -0.297  0.00  0.00    +0.255 HD
ATOM     26  H   LIG    1        4.814   5.330  -0.508  0.00  0.00    +0.255 HD
ENDBRANCH  20  24
ENDBRANCH  18  20
ENDBRANCH   9  18
TORSDOF 5
