REMARK  Name = ZINC14277885
REMARK                            x       y       z     vdW  Elec       q    Type
REMARK                         _______ _______ _______ _____ _____    ______ ____
ROOT
ATOM      1  S   LIG    1       -1.456   1.774   0.019  0.00  0.00    +0.124 S 
ATOM      2  O   LIG    1       -1.393   2.615   1.162  0.00  0.00    -0.150 OA
ATOM      3  O   LIG    1       -2.442   0.756  -0.077  0.00  0.00    -0.150 OA
ENDROOT
BRANCH   1   4
ATOM      4  C   LIG    1       -1.442   2.775  -1.494  0.00  0.00    +0.535 C 
ATOM      5  F   LIG    1       -0.356   3.656  -1.461  0.00  0.00    -0.149 F 
ATOM      6  F   LIG    1       -2.633   3.505  -1.581  0.00  0.00    -0.149 F 
ATOM      7  F   LIG    1       -1.328   1.936  -2.608  0.00  0.00    -0.149 F 
ENDBRANCH   1   4
BRANCH   1   8
ATOM      8  N   LIG    1       -0.011   0.966   0.007  0.00  0.00    -0.200 NA
ATOM      9  H   LIG    1        0.822   1.462   0.002  0.00  0.00    +0.144 HD
ATOM     10  H   LIG    1        0.002  -0.004   0.002  0.00  0.00    +0.144 HD
ENDBRANCH   1   8
TORSDOF 2
