REMARK  Name = ZINC29043655
REMARK                            x       y       z     vdW  Elec       q    Type
REMARK                         _______ _______ _______ _____ _____    ______ ____
ROOT
ATOM      1  C   LIG    1        2.996   4.933  -0.000  0.00  0.00    +0.059 C 
ATOM      2  C   LIG    1        2.546   3.671   0.245  0.00  0.00    +0.049 C 
ATOM      3  C   LIG    1        1.280   3.278   0.895  0.00  0.00    +0.009 A 
ATOM      4  C   LIG    1        0.217   4.004   1.428  0.00  0.00    +0.010 A 
ATOM      5  C   LIG    1       -0.856   3.337   1.983  0.00  0.00    +0.001 A 
ATOM      6  C   LIG    1       -0.878   1.952   2.005  0.00  0.00    +0.002 A 
ATOM      7  C   LIG    1        0.174   1.223   1.485  0.00  0.00    +0.024 A 
ATOM      8  C   LIG    1        1.264   1.875   0.921  0.00  0.00    +0.044 A 
ATOM      9  N   LIG    1        2.428   1.388   0.335  0.00  0.00    -0.270 N 
ATOM     10  C   LIG    1        2.747  -0.035   0.191  0.00  0.00    +0.138 C 
ATOM     11  C   LIG    1        3.223   2.388  -0.083  0.00  0.00    +0.251 C 
ATOM     12  O   LIG    1        4.301   2.265  -0.630  0.00  0.00    -0.270 OA
ENDROOT
BRANCH   1  14
ATOM     13  C   LIG    1        2.552   7.457  -0.207  0.00  0.00    +0.091 C 
ATOM     14  C   LIG    1        2.047   6.041  -0.096  0.00  0.00    +0.154 C 
ATOM     15  O   LIG    1        0.854   5.821  -0.086  0.00  0.00    -0.293 OA
ENDBRANCH   1  14
TORSDOF 1
