REMARK  Name = ZINC22013479
REMARK                            x       y       z     vdW  Elec       q    Type
REMARK                         _______ _______ _______ _____ _____    ______ ____
ROOT
ATOM      1  C   LIG    1        0.742  -0.511   1.242  0.00  0.00    +0.040 C 
ENDROOT
BRANCH   1   2
ATOM      2  C   LIG    1        0.870  -2.011   1.172  0.00  0.00    +0.057 A 
ATOM      3  C   LIG    1        2.016  -2.712   1.259  0.00  0.00    +0.107 A 
ATOM      4  N   LIG    1        1.681  -4.035   1.149  0.00  0.00    -0.351 N 
ATOM      5  C   LIG    1        0.340  -4.096   0.999  0.00  0.00    +0.196 A 
ATOM      6  H   LIG    1        2.292  -4.788   1.174  0.00  0.00    +0.166 HD
ATOM      7  N   LIG    1       -0.139  -2.882   1.018  0.00  0.00    -0.241 NA
ENDBRANCH   1   2
BRANCH   1   9
ATOM      8  C   LIG    1       -0.019   1.526   0.010  0.00  0.00    -0.014 C 
ATOM      9  C   LIG    1        0.002  -0.004   0.002  0.00  0.00    -0.072 C 
BRANCH   9  10
ATOM     10  N   LIG    1       -1.376  -0.512   0.012  0.00  0.00    +0.380 N 
ATOM     11  H   LIG    1       -1.848  -0.187   0.843  0.00  0.00    -0.090 HD
ATOM     12  H   LIG    1       -1.362  -1.521   0.007  0.00  0.00    -0.090 HD
ATOM     13  H   LIG    1       -1.864  -0.178  -0.805  0.00  0.00    -0.090 HD
ENDBRANCH   9  10
ENDBRANCH   1   9
TORSDOF 3
