REMARK  Name = ZINC00004382
REMARK                            x       y       z     vdW  Elec       q    Type
REMARK                         _______ _______ _______ _____ _____    ______ ____
ROOT
ATOM      1  C   LIG    1       -0.753   1.593  -1.232  0.00  0.00    +0.029 C 
ATOM      2  C   LIG    1       -0.013   1.086   0.008  0.00  0.00    +0.137 C 
ENDROOT
BRANCH   2   3
ATOM      3  C   LIG    1        1.401   1.607  -0.003  0.00  0.00    +0.227 C 
ATOM      4  N   LIG    1        2.336   1.006  -0.765  0.00  0.00    -0.304 N 
ATOM      5  H   LIG    1        2.098   0.237  -1.307  0.00  0.00    +0.149 HD
ATOM      6  O   LIG    1        1.698   2.569   0.675  0.00  0.00    -0.275 OA
BRANCH   4   7
ATOM      7  C   LIG    1        3.710   1.513  -0.775  0.00  0.00    +0.151 C 
ATOM      8  C   LIG    1        4.654   0.376  -1.165  0.00  0.00    +0.042 C 
ATOM      9  C   LIG    1        5.956   0.986  -1.734  0.00  0.00    +0.079 C 
ATOM     10  S   LIG    1        5.340   2.534  -2.495  0.00  0.00    -0.086 S 
ATOM     11  C   LIG    1        3.793   2.683  -1.730  0.00  0.00    +0.209 C 
ATOM     12  O   LIG    1        2.957   3.542  -1.918  0.00  0.00    -0.283 OA
ENDBRANCH   4   7
ENDBRANCH   2   3
BRANCH   2  13
ATOM     13  S   LIG    1       -0.860   1.669   1.497  0.00  0.00    -0.070 S 
BRANCH  13  14
ATOM     14  C   LIG    1       -2.391   0.813   1.334  0.00  0.00    +0.227 C 
ATOM     15  O   LIG    1       -2.580   0.082   0.379  0.00  0.00    -0.279 OA
BRANCH  14  16
ATOM     16  C   LIG    1       -3.437   0.982   2.347  0.00  0.00    +0.066 A 
ATOM     17  C   LIG    1       -4.699   0.411   2.403  0.00  0.00    +0.020 A 
ATOM     18  C   LIG    1       -5.486   0.740   3.479  0.00  0.00    +0.008 A 
ATOM     19  C   LIG    1       -5.006   1.600   4.414  0.00  0.00    +0.046 A 
ATOM     20  S   LIG    1       -3.420   1.980   3.825  0.00  0.00    -0.093 S 
ENDBRANCH  14  16
ENDBRANCH  13  14
ENDBRANCH   2  13
TORSDOF 5
