REMARK  Name = ZINC28652126
REMARK                            x       y       z     vdW  Elec       q    Type
REMARK                         _______ _______ _______ _____ _____    ______ ____
ROOT
ATOM      1  N   LIG    1       -2.916  -1.901   1.458  0.00  0.00    +0.383 N 
ATOM      2  H   LIG    1       -3.704  -1.270   1.021  0.00  0.00    -0.085 HD
ATOM      3  H   LIG    1       -2.792  -2.807   0.847  0.00  0.00    -0.085 HD
ENDROOT
BRANCH   1   5
ATOM      4  C   LIG    1       -2.592  -3.585   3.206  0.00  0.00    -0.013 C 
ATOM      5  C   LIG    1       -3.294  -2.280   2.826  0.00  0.00    -0.071 C 
BRANCH   5   6
ATOM      6  C   LIG    1       -4.810  -2.476   2.901  0.00  0.00    +0.019 C 
BRANCH   6   7
ATOM      7  C   LIG    1       -5.499  -1.160   2.647  0.00  0.00    -0.049 A 
ATOM      8  C   LIG    1       -5.793  -0.320   3.704  0.00  0.00    +0.007 A 
ATOM      9  C   LIG    1       -6.420   0.890   3.473  0.00  0.00    +0.046 A 
ATOM     10  C   LIG    1       -6.765   1.255   2.180  0.00  0.00    +0.120 A 
ATOM     11  C   LIG    1       -6.474   0.407   1.121  0.00  0.00    +0.046 A 
ATOM     12  C   LIG    1       -5.842  -0.798   1.357  0.00  0.00    +0.007 A 
BRANCH  10  13
ATOM     13  O   LIG    1       -7.387   2.442   1.951  0.00  0.00    -0.495 OA
ATOM     14  C   LIG    1       -7.655   3.264   3.088  0.00  0.00    +0.277 C 
ENDBRANCH  10  13
ENDBRANCH   6   7
ENDBRANCH   5   6
ENDBRANCH   1   5
BRANCH   1  15
ATOM     15  C   LIG    1       -1.653  -1.150   1.449  0.00  0.00    -0.046 C 
BRANCH  15  16
ATOM     16  C   LIG    1       -1.293  -0.774   0.011  0.00  0.00    +0.128 C 
BRANCH  16  17
ATOM     17  C   LIG    1        0.002  -0.004   0.002  0.00  0.00    -0.014 A 
ATOM     18  C   LIG    1       -0.017   1.377   0.010  0.00  0.00    +0.051 A 
ATOM     19  C   LIG    1        1.175   2.089   0.002  0.00  0.00    +0.121 A 
ATOM     20  C   LIG    1        2.385   1.412  -0.013  0.00  0.00    +0.090 A 
ATOM     21  C   LIG    1        2.401   0.026  -0.021  0.00  0.00    +0.121 A 
ATOM     22  C   LIG    1        1.207  -0.681  -0.013  0.00  0.00    +0.051 A 
BRANCH  19  23
ATOM     23  O   LIG    1        1.156   3.448   0.009  0.00  0.00    -0.507 OA
ATOM     24  H   LIG    1        2.101   4.011   0.004  0.00  0.00    +0.292 HD
ENDBRANCH  19  23
BRANCH  21  25
ATOM     25  O   LIG    1        3.585  -0.640  -0.036  0.00  0.00    -0.507 OA
ATOM     26  H   LIG    1        3.598  -1.740  -0.042  0.00  0.00    +0.292 HD
ENDBRANCH  21  25
ENDBRANCH  16  17
BRANCH  16  27
ATOM     27  O   LIG    1       -1.147  -1.962  -0.770  0.00  0.00    -0.389 OA
ATOM     28  H   LIG    1       -0.887  -1.891  -1.837  0.00  0.00    +0.210 HD
ENDBRANCH  16  27
ENDBRANCH  15  16
ENDBRANCH   1  15
TORSDOF 10
