REMARK  Name = ZINC00003961
REMARK                            x       y       z     vdW  Elec       q    Type
REMARK                         _______ _______ _______ _____ _____    ______ ____
ROOT
ATOM      1  C   LIG    1       -0.015  -2.830  -0.013  0.00  0.00    +0.248 C 
ATOM      2  N   LIG    1       -0.074  -4.176  -0.020  0.00  0.00    -0.310 N 
ATOM      3  H   LIG    1       -0.934  -4.624  -0.014  0.00  0.00    +0.149 HD
ATOM      4  O   LIG    1        1.064  -2.268  -0.020  0.00  0.00    -0.270 OA
ENDROOT
BRANCH   2   5
ATOM      5  C   LIG    1        1.162  -4.963  -0.036  0.00  0.00    +0.060 C 
ATOM      6  C   LIG    1        1.644  -5.130  -1.478  0.00  0.00    -0.056 C 
ATOM      7  N   LIG    1        1.698  -6.552  -1.827  0.00  0.00    +0.381 N 
ATOM      8  H   LIG    1        2.014  -6.635  -2.782  0.00  0.00    -0.082 HD
ATOM      9  C   LIG    1        0.366  -7.156  -1.738  0.00  0.00    -0.078 C 
ATOM     10  C   LIG    1       -0.159  -7.056  -0.304  0.00  0.00    -0.014 C 
ATOM     11  C   LIG    1        2.645  -7.260  -0.962  0.00  0.00    -0.078 C 
ATOM     12  C   LIG    1        2.196  -7.162   0.500  0.00  0.00    -0.014 C 
ATOM     13  C   LIG    1        0.896  -6.350   0.564  0.00  0.00    +0.004 C 
ENDBRANCH   2   5
BRANCH   1  20
ATOM     14  C   LIG    1       -1.198  -0.636   0.010  0.00  0.00    +0.134 A 
ATOM     15  C   LIG    1       -2.371   0.098   0.019  0.00  0.00    +0.070 A 
ATOM     16  C   LIG    1       -3.597  -0.555   0.027  0.00  0.00    +0.047 A 
ATOM     17  C   LIG    1       -3.650  -1.948   0.026  0.00  0.00    +0.062 A 
ATOM     18 CL   LIG    1       -5.188  -2.754   0.036  0.00  0.00    -0.082 Cl
ATOM     19  C   LIG    1       -2.499  -2.682   0.017  0.00  0.00    +0.038 A 
ATOM     20  C   LIG    1       -1.257  -2.039   0.003  0.00  0.00    +0.080 A 
BRANCH  16  21
ATOM     21  N   LIG    1       -4.776   0.184   0.037  0.00  0.00    -0.357 N 
ATOM     22  H   LIG    1       -5.633  -0.270   0.042  0.00  0.00    +0.142 HD
ATOM     23  H   LIG    1       -4.741   1.153   0.038  0.00  0.00    +0.142 HD
ENDBRANCH  16  21
BRANCH  14  25
ATOM     24  C   LIG    1       -0.017   1.425   0.010  0.00  0.00    +0.277 C 
ATOM     25  O   LIG    1        0.002  -0.004   0.002  0.00  0.00    -0.494 OA
ENDBRANCH  14  25
ENDBRANCH   1  20
TORSDOF 4
