REMARK  Name = ZINC35323259
REMARK                            x       y       z     vdW  Elec       q    Type
REMARK                         _______ _______ _______ _____ _____    ______ ____
ROOT
ATOM      1  C   LIG    1       -0.084  -0.609   6.022  0.00  0.00    +0.035 A 
ATOM      2  C   LIG    1        0.033  -1.994   6.015  0.00  0.00    +0.024 A 
ATOM      3  C   LIG    1        0.056  -2.691   7.204  0.00  0.00    +0.010 A 
ATOM      4  C   LIG    1       -0.038  -2.005   8.415  0.00  0.00    -0.017 A 
ATOM      5  C   LIG    1       -0.155  -0.615   8.419  0.00  0.00    +0.010 A 
ATOM      6  C   LIG    1       -0.172   0.077   7.228  0.00  0.00    +0.024 A 
ENDROOT
BRANCH   4   7
ATOM      7  C   LIG    1       -0.015  -2.751   9.695  0.00  0.00    -0.005 A 
ATOM      8  C   LIG    1        1.046  -3.595   9.994  0.00  0.00    +0.009 A 
ATOM      9  C   LIG    1        1.069  -4.293  11.191  0.00  0.00    +0.003 A 
ATOM     10  C   LIG    1        0.044  -4.165  12.102  0.00  0.00    +0.028 A 
ATOM     11  C   LIG    1       -1.034  -3.326  11.829  0.00  0.00    +0.068 A 
ATOM     12  N   LIG    1       -2.174  -2.997  12.516  0.00  0.00    -0.275 N 
ATOM     13  H   LIG    1       -2.423  -3.339  13.389  0.00  0.00    +0.189 HD
ATOM     14  N   LIG    1       -2.913  -2.077  11.765  0.00  0.00    -0.158 NA
ATOM     15  C   LIG    1       -2.301  -1.825  10.638  0.00  0.00    +0.146 A 
ATOM     16  C   LIG    1       -1.065  -2.607  10.621  0.00  0.00    +0.049 A 
BRANCH  15  17
ATOM     17  N   LIG    1       -2.746  -0.964   9.632  0.00  0.00    -0.341 N 
ATOM     18  H   LIG    1       -3.542  -0.426   9.771  0.00  0.00    +0.144 HD
ATOM     19  H   LIG    1       -2.260  -0.904   8.794  0.00  0.00    +0.144 HD
ENDBRANCH  15  17
ENDBRANCH   4   7
BRANCH   1  23
ATOM     20  N   LIG    1       -0.497   0.142   2.514  0.00  0.00    -0.269 N 
ATOM     21  H   LIG    1       -0.055   1.004   2.455  0.00  0.00    +0.156 HD
ATOM     22  C   LIG    1       -0.568  -0.500   3.696  0.00  0.00    +0.308 C 
ATOM     23  N   LIG    1       -0.106   0.095   4.814  0.00  0.00    -0.269 N 
ATOM     24  H   LIG    1        0.209   1.011   4.781  0.00  0.00    +0.156 HD
ATOM     25  O   LIG    1       -1.048  -1.615   3.755  0.00  0.00    -0.252 OA
BRANCH  20  32
ATOM     26  C   LIG    1       -1.672   1.867   0.579  0.00  0.00    +0.045 C 
ATOM     27  C   LIG    1       -1.645   0.371   0.401  0.00  0.00    -0.029 A 
ATOM     28  C   LIG    1       -2.196  -0.200  -0.730  0.00  0.00    +0.005 A 
ATOM     29  C   LIG    1       -2.171  -1.573  -0.894  0.00  0.00    +0.000 A 
ATOM     30  C   LIG    1       -1.596  -2.378   0.072  0.00  0.00    +0.002 A 
ATOM     31  C   LIG    1       -1.043  -1.813   1.204  0.00  0.00    +0.023 A 
ATOM     32  C   LIG    1       -1.061  -0.434   1.370  0.00  0.00    +0.038 A 
ENDBRANCH  20  32
ENDBRANCH   1  23
TORSDOF 4
