REMARK  Name = ZINC13858907
REMARK                            x       y       z     vdW  Elec       q    Type
REMARK                         _______ _______ _______ _____ _____    ______ ____
ROOT
ATOM      1  C   LIG    1       -4.571  -1.045   0.808  0.00  0.00    +0.162 A 
ATOM      2  C   LIG    1       -3.321  -1.550   0.488  0.00  0.00    +0.053 A 
ATOM      3  C   LIG    1       -2.272  -0.689   0.227  0.00  0.00    +0.046 A 
ATOM      4  C   LIG    1       -2.466   0.684   0.294  0.00  0.00    +0.104 A 
ATOM      5  C   LIG    1       -3.716   1.194   0.614  0.00  0.00    +0.091 A 
ATOM      6  C   LIG    1       -4.769   0.331   0.871  0.00  0.00    +0.165 A 
ENDROOT
BRANCH   1   8
ATOM      7  C   LIG    1       -5.328  -3.293   0.978  0.00  0.00    +0.277 C 
ATOM      8  O   LIG    1       -5.604  -1.894   1.060  0.00  0.00    -0.491 OA
ENDBRANCH   1   8
BRANCH   4   9
ATOM      9  N   LIG    1       -1.400   1.555   0.033  0.00  0.00    -0.246 N 
ATOM     10  H   LIG    1       -1.334   2.397   0.511  0.00  0.00    +0.265 HD
BRANCH   9  11
ATOM     11  C   LIG    1       -0.447   1.217  -0.900  0.00  0.00    +0.346 C 
ATOM     12  N   LIG    1        0.776   1.728  -0.899  0.00  0.00    -0.292 N 
ATOM     13  H   LIG    1        1.477   1.383  -1.564  0.00  0.00    +0.255 HD
ATOM     14  H   LIG    1        1.020   2.465  -0.237  0.00  0.00    +0.255 HD
BRANCH  11  15
ATOM     15  N   LIG    1       -0.742   0.301  -1.883  0.00  0.00    -0.292 N 
ATOM     16  H   LIG    1       -1.665   0.138  -2.132  0.00  0.00    +0.255 HD
ATOM     17  H   LIG    1       -0.027  -0.181  -2.326  0.00  0.00    +0.255 HD
ENDBRANCH  11  15
ENDBRANCH   9  11
ENDBRANCH   4   9
BRANCH   6  18
ATOM     18  O   LIG    1       -5.995   0.828   1.185  0.00  0.00    -0.491 OA
ATOM     19  C   LIG    1       -6.127   2.250   1.232  0.00  0.00    +0.277 C 
ENDBRANCH   6  18
TORSDOF 5
