REMARK  Name = ZINC16052402
REMARK                            x       y       z     vdW  Elec       q    Type
REMARK                         _______ _______ _______ _____ _____    ______ ____
ROOT
ATOM      1  C   LIG    1       -4.772   3.684   0.308  0.00  0.00    +0.224 A 
ATOM      2  N   LIG    1       -5.917   3.030   0.438  0.00  0.00    -0.194 NA
ATOM      3  C   LIG    1       -5.927   1.695   0.452  0.00  0.00    +0.180 A 
ATOM      4  C   LIG    1       -6.946   0.737   0.571  0.00  0.00    +0.116 A 
ATOM      5  C   LIG    1       -6.326  -0.528   0.516  0.00  0.00    +0.156 A 
ATOM      6  N   LIG    1       -5.039  -0.360   0.376  0.00  0.00    -0.169 NA
ATOM      7  N   LIG    1       -4.749   1.006   0.331  0.00  0.00    -0.182 N 
ATOM      8  C   LIG    1       -3.582   1.709   0.198  0.00  0.00    +0.225 A 
ATOM      9  N   LIG    1       -3.614   3.028   0.193  0.00  0.00    -0.181 NA
ENDROOT
BRANCH   1  10
ATOM     10  N   LIG    1       -4.776   5.064   0.295  0.00  0.00    -0.283 N 
ATOM     11  H   LIG    1       -3.950   5.550   0.140  0.00  0.00    +0.155 HD
BRANCH  10  16
ATOM     12  C   LIG    1       -7.141   7.655   1.407  0.00  0.00    +0.035 A 
ATOM     13  C   LIG    1       -8.337   7.141   0.922  0.00  0.00    +0.023 A 
ATOM     14  C   LIG    1       -8.346   5.943   0.233  0.00  0.00    +0.004 A 
ATOM     15  C   LIG    1       -7.167   5.256   0.020  0.00  0.00    +0.023 A 
ATOM     16  C   LIG    1       -5.968   5.763   0.507  0.00  0.00    +0.035 A 
ATOM     17  C   LIG    1       -5.955   6.965   1.200  0.00  0.00    +0.046 A 
BRANCH  12  20
ATOM     18  C   LIG    1       -6.015  10.953   2.829  0.00  0.00    +0.109 C 
ATOM     19  C   LIG    1       -6.085   9.709   1.982  0.00  0.00    +0.214 C 
ATOM     20  N   LIG    1       -7.132   8.869   2.104  0.00  0.00    -0.286 N 
ATOM     21  H   LIG    1       -7.880   9.105   2.676  0.00  0.00    +0.155 HD
ATOM     22  O   LIG    1       -5.200   9.463   1.190  0.00  0.00    -0.276 OA
ENDBRANCH  12  20
ENDBRANCH  10  16
ENDBRANCH   1  10
BRANCH   4  23
ATOM     23  C   LIG    1       -8.347   0.995   0.720  0.00  0.00    +0.104 C 
ATOM     24  N   LIG    1       -9.458   1.200   0.838  0.00  0.00    -0.191 NA
ENDBRANCH   4  23
BRANCH   8  25
ATOM     25  N   LIG    1       -2.387   1.046   0.075  0.00  0.00    -0.283 N 
ATOM     26  H   LIG    1       -2.372   0.078   0.021  0.00  0.00    +0.155 HD
BRANCH  25  27
ATOM     27  C   LIG    1       -1.189   1.768   0.029  0.00  0.00    +0.034 A 
ATOM     28  C   LIG    1       -1.146   3.004  -0.602  0.00  0.00    +0.023 A 
ATOM     29  C   LIG    1        0.037   3.716  -0.641  0.00  0.00    +0.002 A 
ATOM     30  C   LIG    1        1.178   3.197  -0.058  0.00  0.00    +0.000 A 
ATOM     31  C   LIG    1        1.139   1.964   0.567  0.00  0.00    +0.002 A 
ATOM     32  C   LIG    1       -0.040   1.247   0.610  0.00  0.00    +0.023 A 
ENDBRANCH  25  27
ENDBRANCH   8  25
TORSDOF 6
