REMARK  Name = ZINC28458010
REMARK                            x       y       z     vdW  Elec       q    Type
REMARK                         _______ _______ _______ _____ _____    ______ ____
ROOT
ATOM      1  N   LIG    1       -0.698   1.558   1.213  0.00  0.00    -0.322 N 
ATOM      2  C   LIG    1       -0.450   2.731   1.886  0.00  0.00    +0.086 A 
ATOM      3  C   LIG    1       -1.348   2.761   2.973  0.00  0.00    +0.109 A 
ATOM      4  N   LIG    1       -2.079   1.625   2.916  0.00  0.00    -0.224 NA
ATOM      5  C   LIG    1       -1.317   3.860   3.836  0.00  0.00    +0.140 A 
ATOM      6  N   LIG    1       -0.468   4.843   3.628  0.00  0.00    -0.260 NA
ATOM      7  C   LIG    1        0.382   4.844   2.614  0.00  0.00    +0.128 A 
ATOM      8  C   LIG    1        0.421   3.801   1.712  0.00  0.00    +0.062 A 
ATOM      9 BR   LIG    1        1.643   3.823   0.269  0.00  0.00    -0.047 Br
ATOM     10  C   LIG    1       -1.703   0.911   1.883  0.00  0.00    +0.167 A 
ENDROOT
BRANCH  10  11
ATOM     11  C   LIG    1       -2.277  -0.398   1.499  0.00  0.00    +0.190 A 
ATOM     12  C   LIG    1       -3.353  -1.169   2.163  0.00  0.00    +0.191 A 
ATOM     13  N   LIG    1       -3.452  -2.233   1.401  0.00  0.00    -0.033 NA
ATOM     14  O   LIG    1       -2.649  -2.162   0.501  0.00  0.00    -0.240 OA
ATOM     15  N   LIG    1       -1.956  -1.171   0.484  0.00  0.00    -0.044 NA
BRANCH  12  16
ATOM     16  N   LIG    1       -4.077  -0.847   3.303  0.00  0.00    -0.339 N 
ATOM     17  H   LIG    1       -3.874   0.095   3.835  0.00  0.00    +0.144 HD
ATOM     18  H   LIG    1       -4.852  -1.533   3.675  0.00  0.00    +0.144 HD
ENDBRANCH  12  16
ENDBRANCH  10  11
BRANCH   1  20
ATOM     19  C   LIG    1       -0.753   1.593  -1.232  0.00  0.00    +0.027 C 
ATOM     20  C   LIG    1       -0.013   1.086   0.008  0.00  0.00    +0.120 C 
ENDBRANCH   1  20
TORSDOF 3
