REMARK  Name = ZINC55669661
REMARK                            x       y       z     vdW  Elec       q    Type
REMARK                         _______ _______ _______ _____ _____    ______ ____
ROOT
ATOM      1  C   LIG    1        3.787  -5.540   1.028  0.00  0.00    +0.101 C 
ENDROOT
BRANCH   1   2
ATOM      2  N   LIG    1        4.650  -5.239   2.177  0.00  0.00    -0.298 NA
ATOM      3  C   LIG    1        5.133  -3.853   2.124  0.00  0.00    +0.103 C 
ATOM      4  C   LIG    1        5.876  -3.524   3.423  0.00  0.00    +0.120 C 
ATOM      5  N   LIG    1        6.919  -4.539   3.635  0.00  0.00    -0.325 N 
ATOM      6  C   LIG    1        6.535  -5.957   3.566  0.00  0.00    +0.120 C 
ATOM      7  C   LIG    1        5.766  -6.190   2.261  0.00  0.00    +0.103 C 
BRANCH   5   8
ATOM      8  C   LIG    1        8.242  -4.165   3.895  0.00  0.00    +0.072 A 
ATOM      9  C   LIG    1        8.668  -3.979   5.202  0.00  0.00    +0.027 A 
ATOM     10  C   LIG    1        9.976  -3.611   5.457  0.00  0.00    +0.002 A 
ATOM     11  C   LIG    1       10.862  -3.426   4.412  0.00  0.00    +0.004 A 
ATOM     12  C   LIG    1       10.444  -3.609   3.106  0.00  0.00    +0.047 A 
ATOM     13  C   LIG    1        9.137  -3.984   2.843  0.00  0.00    +0.141 A 
BRANCH  13  14
ATOM     14  O   LIG    1        8.727  -4.170   1.560  0.00  0.00    -0.493 OA
ATOM     15  C   LIG    1        9.698  -3.967   0.532  0.00  0.00    +0.277 C 
ENDBRANCH  13  14
ENDBRANCH   5   8
ENDBRANCH   1   2
BRANCH   1  16
ATOM     16  C   LIG    1        2.512  -4.699   1.113  0.00  0.00    +0.121 C 
BRANCH  16  17
ATOM     17  N   LIG    1        1.651  -4.999  -0.034  0.00  0.00    -0.189 NA
ATOM     18  H   LIG    1        2.011  -5.473  -0.800  0.00  0.00    +0.148 HD
BRANCH  17  19
ATOM     19  S   LIG    1        0.063  -4.530  -0.023  0.00  0.00    +0.058 S 
ATOM     20  O   LIG    1       -0.490  -4.937  -1.267  0.00  0.00    -0.153 OA
ATOM     21  O   LIG    1       -0.476  -4.950   1.223  0.00  0.00    -0.153 OA
BRANCH  19  26
ATOM     22  C   LIG    1       -0.018   1.503   0.010  0.00  0.00    +0.044 C 
ATOM     23  C   LIG    1        0.002  -0.004   0.002  0.00  0.00    -0.050 A 
ATOM     24  C   LIG    1        0.006  -0.689  -1.199  0.00  0.00    +0.005 A 
ATOM     25  C   LIG    1        0.025  -2.071  -1.206  0.00  0.00    +0.029 A 
ATOM     26  C   LIG    1        0.040  -2.768  -0.013  0.00  0.00    +0.105 A 
ATOM     27  C   LIG    1        0.037  -2.084   1.188  0.00  0.00    +0.029 A 
ATOM     28  C   LIG    1        0.023  -0.702   1.195  0.00  0.00    +0.005 A 
ENDBRANCH  19  26
ENDBRANCH  17  19
ENDBRANCH  16  17
ENDBRANCH   1  16
TORSDOF 7
