REMARK  Name = ZINC27211934
REMARK                            x       y       z     vdW  Elec       q    Type
REMARK                         _______ _______ _______ _____ _____    ______ ____
ROOT
ATOM      1  N   LIG    1       -0.701   1.556   1.210  0.00  0.00    -0.386 N 
ATOM      2  H   LIG    1       -1.616   2.160   1.119  0.00  0.00    +0.160 HD
ATOM      3  C   LIG    1       -0.204   1.234   2.465  0.00  0.00    +0.048 A 
ATOM      4  C   LIG    1        0.953   0.462   2.598  0.00  0.00    +0.028 A 
ATOM      5  C   LIG    1        1.479   0.129   3.830  0.00  0.00    +0.030 A 
ATOM      6  C   LIG    1        0.843   0.555   5.000  0.00  0.00    +0.065 A 
ATOM      7  C   LIG    1       -0.310   1.316   4.853  0.00  0.00    +0.084 A 
ATOM      8  N   LIG    1       -0.798   1.644   6.077  0.00  0.00    -0.299 N 
ATOM      9  C   LIG    1        0.066   1.080   6.972  0.00  0.00    +0.179 A 
ATOM     10  C   LIG    1       -1.957   2.407   6.154  0.00  0.00    +0.059 A 
ATOM     11  C   LIG    1       -2.477   2.753   7.396  0.00  0.00    +0.030 A 
ATOM     12  C   LIG    1       -3.625   3.510   7.481  0.00  0.00    +0.047 A 
ATOM     13  C   LIG    1       -4.277   3.935   6.328  0.00  0.00    +0.118 A 
ATOM     14  C   LIG    1       -3.776   3.601   5.085  0.00  0.00    +0.059 A 
ATOM     15  C   LIG    1       -2.612   2.834   4.986  0.00  0.00    +0.044 A 
ATOM     16  C   LIG    1       -2.081   2.480   3.648  0.00  0.00    +0.137 A 
ATOM     17  N   LIG    1        1.023   0.445   6.341  0.00  0.00    -0.346 N 
ATOM     18  H   LIG    1        1.881  -0.119   6.736  0.00  0.00    +0.167 HD
ATOM     19  C   LIG    1       -0.855   1.670   3.626  0.00  0.00    +0.066 A 
ENDROOT
BRANCH  13  20
ATOM     20  O   LIG    1       -5.409   4.681   6.425  0.00  0.00    -0.507 OA
ATOM     21  H   LIG    1       -5.809   4.948   7.414  0.00  0.00    +0.292 HD
ENDBRANCH  13  20
BRANCH  16  22
ATOM     22  O   LIG    1       -2.630   2.840   2.622  0.00  0.00    -0.505 OA
ATOM     23  H   LIG    1       -3.547   3.446   2.674  0.00  0.00    +0.292 HD
ENDBRANCH  16  22
BRANCH   1  24
ATOM     24  C   LIG    1       -0.008   1.091   0.006  0.00  0.00    +0.094 C 
BRANCH  24  25
ATOM     25  C   LIG    1       -0.757   1.580  -1.235  0.00  0.00    -0.058 C 
BRANCH  25  26
ATOM     26  N   LIG    1        0.003   1.220  -2.439  0.00  0.00    +0.380 N 
ATOM     27  H   LIG    1        1.066   1.421  -2.240  0.00  0.00    -0.082 HD
BRANCH  26  29
ATOM     28  C   LIG    1        0.854  -0.599  -3.841  0.00  0.00    -0.017 C 
ATOM     29  C   LIG    1       -0.137  -0.211  -2.742  0.00  0.00    -0.082 C 
ENDBRANCH  26  29
BRANCH  26  30
ATOM     30  C   LIG    1       -0.406   2.043  -3.585  0.00  0.00    -0.082 C 
ATOM     31  C   LIG    1        0.190   3.445  -3.444  0.00  0.00    -0.017 C 
ENDBRANCH  26  30
ENDBRANCH  25  26
ENDBRANCH  24  25
ENDBRANCH   1  24
TORSDOF 7
