REMARK  Name = ZINC26495009
REMARK                            x       y       z     vdW  Elec       q    Type
REMARK                         _______ _______ _______ _____ _____    ______ ____
ROOT
ATOM      1  C   LIG    1       -0.013   1.086   0.008  0.00  0.00    +0.047 C 
ATOM      2  C   LIG    1       -0.718   1.572   1.248  0.00  0.00    -0.007 A 
ATOM      3  C   LIG    1       -2.081   1.788   1.224  0.00  0.00    +0.027 A 
ATOM      4  C   LIG    1       -2.730   2.231   2.362  0.00  0.00    +0.042 A 
ATOM      5 CL   LIG    1       -4.445   2.500   2.335  0.00  0.00    -0.084 Cl
ATOM      6  C   LIG    1       -2.012   2.465   3.520  0.00  0.00    +0.028 A 
ATOM      7  C   LIG    1       -0.644   2.252   3.548  0.00  0.00    +0.010 A 
ATOM      8  C   LIG    1        0.104   2.513   4.831  0.00  0.00    +0.134 C 
ATOM      9  C   LIG    1        1.601   2.646   4.537  0.00  0.00    +0.060 C 
ATOM     10  C   LIG    1        2.023   1.471   3.646  0.00  0.00    +0.230 C 
ATOM     11  O   LIG    1        1.349   1.591   2.393  0.00  0.00    -0.491 OA
ATOM     12  C   LIG    1        0.008   1.806   2.411  0.00  0.00    +0.127 A 
ENDROOT
BRANCH   8  13
ATOM     13  C   LIG    1       -0.400   3.788   5.455  0.00  0.00    +0.312 C 
ATOM     14  O   LIG    1       -1.274   4.422   4.912  0.00  0.00    -0.250 OA
BRANCH  13  15
ATOM     15  O   LIG    1        0.121   4.220   6.614  0.00  0.00    -0.480 OA
ATOM     16  H   LIG    1        0.799   3.728   7.035  0.00  0.00    +0.295 HD
ENDBRANCH  13  15
ENDBRANCH   8  13
TORSDOF 2
