REMARK  Name = ZINC18258072
REMARK                            x       y       z     vdW  Elec       q    Type
REMARK                         _______ _______ _______ _____ _____    ______ ____
ROOT
ATOM      1  C   LIG    1       -7.343   4.400   0.097  0.00  0.00    +0.059 A 
ATOM      2  C   LIG    1       -7.175   5.787   0.063  0.00  0.00    +0.017 A 
ATOM      3  C   LIG    1       -8.277   6.612   0.072  0.00  0.00    +0.025 A 
ATOM      4  C   LIG    1       -9.556   6.068   0.128  0.00  0.00    +0.044 A 
ATOM      5  C   LIG    1       -9.726   4.688   0.168  0.00  0.00    +0.025 A 
ATOM      6  C   LIG    1       -8.630   3.856   0.153  0.00  0.00    +0.017 A 
ENDROOT
BRANCH   4   7
ATOM      7  N   LIG    1      -10.672   6.909   0.143  0.00  0.00    -0.210 N 
ATOM      8  C   LIG    1      -10.957   7.723   1.173  0.00  0.00    +0.230 C 
ATOM      9  C   LIG    1      -12.177   8.527   0.809  0.00  0.00    +0.089 C 
ATOM     10  C   LIG    1      -13.126   8.755   1.931  0.00  0.00    +0.029 C 
ATOM     11  C   LIG    1      -14.300   7.807   2.000  0.00  0.00    +0.071 C 
ATOM     12 BR   LIG    1      -13.680   6.070   2.681  0.00  0.00    -0.087 Br
ATOM     13  C   LIG    1      -14.940   7.603   0.642  0.00  0.00    +0.071 C 
ATOM     14 BR   LIG    1      -16.383   6.279   0.810  0.00  0.00    -0.087 Br
ATOM     15  C   LIG    1      -13.953   7.122  -0.390  0.00  0.00    +0.029 C 
ATOM     16  C   LIG    1      -12.677   7.923  -0.484  0.00  0.00    +0.089 C 
ATOM     17  O   LIG    1      -10.339   7.798   2.214  0.00  0.00    -0.275 OA
ATOM     18  C   LIG    1      -11.545   6.976  -0.872  0.00  0.00    +0.230 C 
ATOM     19  O   LIG    1      -11.453   6.380  -1.923  0.00  0.00    -0.275 OA
ENDBRANCH   4   7
BRANCH   1  20
ATOM     20  C   LIG    1       -6.165   3.512   0.080  0.00  0.00    +0.340 C 
ATOM     21  O   LIG    1       -6.313   2.306   0.115  0.00  0.00    -0.245 OA
BRANCH  20  22
ATOM     22  O   LIG    1       -4.926   4.038   0.027  0.00  0.00    -0.453 OA
BRANCH  22  23
ATOM     23  C   LIG    1       -3.814   3.104   0.013  0.00  0.00    +0.311 C 
BRANCH  23  24
ATOM     24  C   LIG    1       -2.517   3.869  -0.048  0.00  0.00    +0.200 C 
ATOM     25  O   LIG    1       -2.528   5.081  -0.078  0.00  0.00    -0.288 OA
BRANCH  24  30
ATOM     26  C   LIG    1        2.487   1.040  -0.140  0.00  0.00    +0.044 C 
ATOM     27  C   LIG    1        1.175   1.781  -0.116  0.00  0.00    -0.047 A 
ATOM     28  C   LIG    1       -0.014   1.075  -0.059  0.00  0.00    +0.004 A 
ATOM     29  C   LIG    1       -1.218   1.746  -0.043  0.00  0.00    +0.012 A 
ATOM     30  C   LIG    1       -1.236   3.144  -0.072  0.00  0.00    +0.021 A 
ATOM     31  C   LIG    1       -0.030   3.851  -0.129  0.00  0.00    +0.015 A 
ATOM     32  C   LIG    1        1.166   3.165  -0.151  0.00  0.00    -0.047 A 
ATOM     33  C   LIG    1        2.467   3.923  -0.212  0.00  0.00    +0.044 C 
ENDBRANCH  24  30
ENDBRANCH  23  24
ENDBRANCH  22  23
ENDBRANCH  20  22
ENDBRANCH   1  20
TORSDOF 6
