REMARK  Name = ZINC27646752
REMARK                            x       y       z     vdW  Elec       q    Type
REMARK                         _______ _______ _______ _____ _____    ______ ____
ROOT
ATOM      1  C   LIG    1       -1.261  -0.772   0.009  0.00  0.00    -0.046 C 
ATOM      2  C   LIG    1       -2.062  -0.678  -1.028  0.00  0.00    -0.042 C 
ATOM      3  C   LIG    1       -3.371  -1.409  -1.121  0.00  0.00    -0.055 C 
ATOM      4  N   LIG    1       -3.416  -2.499  -0.139  0.00  0.00    +0.382 N 
ATOM      5  H   LIG    1       -2.700  -3.283  -0.429  0.00  0.00    -0.085 HD
ATOM      6  H   LIG    1       -4.430  -2.923  -0.107  0.00  0.00    -0.085 HD
ATOM      7  C   LIG    1       -3.062  -1.996   1.198  0.00  0.00    -0.078 C 
ATOM      8  C   LIG    1       -1.573  -1.635   1.201  0.00  0.00    +0.016 C 
ENDROOT
BRANCH   1  15
ATOM      9  C   LIG    1       -0.017   1.395   0.010  0.00  0.00    +0.012 A 
ATOM     10  C   LIG    1        1.192   2.068   0.002  0.00  0.00    +0.041 A 
ATOM     11  C   LIG    1        2.371   1.342  -0.013  0.00  0.00    +0.129 A 
ATOM     12 CL   LIG    1        3.891   2.181  -0.024  0.00  0.00    -0.062 Cl
ATOM     13  N   LIG    1        2.358   0.022  -0.020  0.00  0.00    -0.243 NA
ATOM     14  C   LIG    1        1.232  -0.662  -0.013  0.00  0.00    +0.120 A 
ATOM     15  C   LIG    1        0.002  -0.004   0.002  0.00  0.00    -0.004 A 
ENDBRANCH   1  15
TORSDOF 1
