REMARK  Name = ZINC21288919
REMARK                            x       y       z     vdW  Elec       q    Type
REMARK                         _______ _______ _______ _____ _____    ______ ____
ROOT
ATOM      1  C   LIG    1        4.142   1.373  -0.429  0.00  0.00    -0.002 A 
ATOM      2  C   LIG    1        4.620   1.973  -1.587  0.00  0.00    +0.037 A 
ATOM      3  C   LIG    1        5.807   2.712  -1.540  0.00  0.00    +0.075 A 
ATOM      4  N   LIG    1        6.490   2.857  -0.416  0.00  0.00    -0.227 NA
ATOM      5  C   LIG    1        6.082   2.306   0.725  0.00  0.00    +0.166 A 
ATOM      6  N   LIG    1        6.776   2.453   1.865  0.00  0.00    -0.216 NA
ATOM      7  C   LIG    1        6.347   1.914   2.982  0.00  0.00    +0.225 A 
ATOM      8  N   LIG    1        5.240   1.195   3.056  0.00  0.00    -0.220 NA
ATOM      9  C   LIG    1        4.481   0.983   1.987  0.00  0.00    +0.129 A 
ATOM     10  C   LIG    1        4.887   1.547   0.759  0.00  0.00    +0.066 A 
ENDROOT
BRANCH   1  13
ATOM     11  C   LIG    1        0.656   0.214   0.367  0.00  0.00    +0.002 A 
ATOM     12  C   LIG    1        1.822   0.954   0.379  0.00  0.00    +0.008 A 
ATOM     13  C   LIG    1        2.889   0.583  -0.438  0.00  0.00    -0.016 A 
ATOM     14  C   LIG    1        2.772  -0.534  -1.264  0.00  0.00    +0.023 A 
ATOM     15  C   LIG    1        1.601  -1.267  -1.269  0.00  0.00    +0.018 A 
ATOM     16 BR   LIG    1        1.440  -2.782  -2.388  0.00  0.00    -0.050 Br
ATOM     17  C   LIG    1        0.545  -0.893  -0.455  0.00  0.00    +0.015 A 
ENDBRANCH   1  13
BRANCH   3  18
ATOM     18  C   LIG    1        6.311   3.348  -2.779  0.00  0.00    +0.019 A 
ATOM     19  C   LIG    1        7.551   4.000  -2.789  0.00  0.00    +0.015 A 
ATOM     20  C   LIG    1        7.980   4.578  -3.966  0.00  0.00    +0.044 A 
ATOM     21  C   LIG    1        7.172   4.494  -5.098  0.00  0.00    +0.121 A 
ATOM     22  N   LIG    1        6.005   3.869  -5.056  0.00  0.00    -0.240 NA
ATOM     23  C   LIG    1        5.562   3.300  -3.953  0.00  0.00    +0.123 A 
BRANCH  21  24
ATOM     24  N   LIG    1        7.596   5.072  -6.286  0.00  0.00    -0.311 N 
ATOM     25  C   LIG    1        6.684   5.202  -7.434  0.00  0.00    +0.134 C 
ATOM     26  C   LIG    1        6.731   6.652  -7.927  0.00  0.00    +0.178 C 
ATOM     27  O   LIG    1        8.091   7.030  -8.152  0.00  0.00    -0.377 OA
ATOM     28  C   LIG    1        8.906   7.007  -6.977  0.00  0.00    +0.178 C 
ATOM     29  C   LIG    1        8.970   5.580  -6.434  0.00  0.00    +0.134 C 
ENDBRANCH  21  24
ENDBRANCH   3  18
BRANCH   9  30
ATOM     30  N   LIG    1        3.328   0.231   2.075  0.00  0.00    -0.343 N 
ATOM     31  H   LIG    1        2.737   0.338   2.836  0.00  0.00    +0.144 HD
ATOM     32  H   LIG    1        3.109  -0.404   1.375  0.00  0.00    +0.144 HD
ENDBRANCH   9  30
TORSDOF 4
