REMARK  Name = ZINC32170235
REMARK                            x       y       z     vdW  Elec       q    Type
REMARK                         _______ _______ _______ _____ _____    ______ ____
ROOT
ATOM      1  C   LIG    1        0.137   2.507   4.804  0.00  0.00    +0.044 C 
ATOM      2  C   LIG    1       -0.646   2.252   3.542  0.00  0.00    -0.050 A 
ATOM      3  C   LIG    1       -2.012   2.464   3.522  0.00  0.00    +0.007 A 
ATOM      4  C   LIG    1       -2.731   2.230   2.365  0.00  0.00    -0.045 A 
ATOM      5  C   LIG    1       -4.220   2.462   2.343  0.00  0.00    +0.044 C 
ATOM      6  C   LIG    1       -2.083   1.789   1.226  0.00  0.00    -0.022 A 
ATOM      7  C   LIG    1       -0.718   1.572   1.248  0.00  0.00    -0.045 A 
ATOM      8  C   LIG    1       -0.013   1.086   0.008  0.00  0.00    +0.044 C 
ATOM      9  C   LIG    1        0.001   1.806   2.405  0.00  0.00    +0.007 A 
ENDROOT
BRANCH   6  10
ATOM     10  C   LIG    1       -2.866   1.540  -0.037  0.00  0.00    +0.158 C 
BRANCH  10  11
ATOM     11  N   LIG    1       -3.334   0.152  -0.056  0.00  0.00    -0.334 N 
ATOM     12  C   LIG    1       -4.519  -0.312   0.447  0.00  0.00    +0.105 A 
ATOM     13  C   LIG    1       -4.545  -1.639   0.220  0.00  0.00    +0.101 A 
ATOM     14  N   LIG    1       -3.407  -1.976  -0.404  0.00  0.00    -0.352 N 
ATOM     15  H   LIG    1       -3.220  -3.025  -0.681  0.00  0.00    +0.166 HD
ATOM     16  C   LIG    1       -2.679  -0.907  -0.578  0.00  0.00    +0.174 A 
ENDBRANCH  10  11
ENDBRANCH   6  10
TORSDOF 2
