REMARK  Name = ZINC29133769
REMARK                            x       y       z     vdW  Elec       q    Type
REMARK                         _______ _______ _______ _____ _____    ______ ____
ROOT
ATOM      1  N   LIG    1       -0.043   5.196   0.045  0.00  0.00    -0.314 N 
ATOM      2  H   LIG    1       -1.008   5.715  -0.057  0.00  0.00    +0.152 HD
ENDROOT
BRANCH   1   3
ATOM      3  C   LIG    1        1.134   5.928   0.134  0.00  0.00    +0.046 A 
ATOM      4  C   LIG    1        1.484   6.546   1.328  0.00  0.00    +0.025 A 
ATOM      5  C   LIG    1        2.653   7.272   1.414  0.00  0.00    +0.022 A 
ATOM      6  C   LIG    1        3.489   7.392   0.313  0.00  0.00    +0.042 A 
ATOM      7 CL   LIG    1        4.957   8.310   0.439  0.00  0.00    -0.084 Cl
ATOM      8  C   LIG    1        3.159   6.786  -0.880  0.00  0.00    +0.036 A 
ATOM      9  C   LIG    1        1.979   6.043  -0.982  0.00  0.00    +0.081 A 
BRANCH   9  10
ATOM     10  C   LIG    1        1.623   5.388  -2.252  0.00  0.00    +0.339 C 
ATOM     11  O   LIG    1        0.543   4.843  -2.373  0.00  0.00    -0.245 OA
BRANCH  10  12
ATOM     12  O   LIG    1        2.494   5.394  -3.280  0.00  0.00    -0.477 OA
ATOM     13  H   LIG    1        3.326   5.815  -3.187  0.00  0.00    +0.295 HD
ENDBRANCH  10  12
ENDBRANCH   9  10
ENDBRANCH   1   3
BRANCH   1  18
ATOM     14  C   LIG    1        1.256   1.760   0.166  0.00  0.00    +0.002 A 
ATOM     15  C   LIG    1        0.079   1.035   0.163  0.00  0.00    +0.012 A 
ATOM     16  C   LIG    1       -1.139   1.688   0.116  0.00  0.00    +0.057 A 
ATOM     17  C   LIG    1       -1.183   3.068   0.083  0.00  0.00    +0.035 A 
ATOM     18  C   LIG    1       -0.003   3.800   0.085  0.00  0.00    +0.032 A 
ATOM     19  C   LIG    1        1.220   3.140   0.127  0.00  0.00    +0.023 A 
BRANCH  16  20
ATOM     20  C   LIG    1       -2.420   0.894   0.106  0.00  0.00    +0.417 C 
ATOM     21  F   LIG    1       -3.135   1.177  -1.062  0.00  0.00    -0.166 F 
ATOM     22  F   LIG    1       -3.191   1.239   1.221  0.00  0.00    -0.166 F 
ATOM     23  F   LIG    1       -2.121  -0.472   0.150  0.00  0.00    -0.166 F 
ENDBRANCH  16  20
ENDBRANCH   1  18
TORSDOF 5
