REMARK  Name = ZINC20444137
REMARK                            x       y       z     vdW  Elec       q    Type
REMARK                         _______ _______ _______ _____ _____    ______ ____
ROOT
ATOM      1  C   LIG    1       -5.597  -6.626   0.392  0.00  0.00    +0.265 C 
ENDROOT
BRANCH   1   2
ATOM      2  P   LIG    1       -5.561  -8.444   0.531  0.00  0.00    +0.371 P 
ATOM      3  O   LIG    1       -4.907  -9.044  -0.734  0.00  0.00    -0.255 OA
BRANCH   2   4
ATOM      4  O   LIG    1       -7.064  -9.002   0.675  0.00  0.00    -0.322 OA
ATOM      5  H   LIG    1       -7.120  -9.964   0.754  0.00  0.00    +0.220 HD
ENDBRANCH   2   4
BRANCH   2   6
ATOM      6  O   LIG    1       -4.740  -8.848   1.776  0.00  0.00    -0.322 OA
ATOM      7  H   LIG    1       -3.834  -8.512   1.690  0.00  0.00    +0.220 HD
ENDBRANCH   2   6
ENDBRANCH   1   2
BRANCH   1   8
ATOM      8  P   LIG    1       -6.566  -6.149  -1.077  0.00  0.00    +0.371 P 
ATOM      9  O   LIG    1       -8.008  -6.684  -0.939  0.00  0.00    -0.255 OA
BRANCH   8  10
ATOM     10  O   LIG    1       -5.912  -6.749  -2.342  0.00  0.00    -0.322 OA
ATOM     11  H   LIG    1       -5.893  -7.716  -2.268  0.00  0.00    +0.220 HD
ENDBRANCH   8  10
BRANCH   8  12
ATOM     12  O   LIG    1       -6.598  -4.544  -1.200  0.00  0.00    -0.322 OA
ATOM     13  H   LIG    1       -7.098  -4.218  -1.962  0.00  0.00    +0.220 HD
ENDBRANCH   8  12
ENDBRANCH   1   8
BRANCH   1  14
ATOM     14  O   LIG    1       -6.202  -6.071   1.562  0.00  0.00    -0.367 OA
ATOM     15  H   LIG    1       -5.738  -6.285   2.383  0.00  0.00    +0.212 HD
ENDBRANCH   1  14
BRANCH   1  16
ATOM     16  C   LIG    1       -4.169  -6.096   0.255  0.00  0.00    +0.042 C 
BRANCH  16  17
ATOM     17  C   LIG    1       -4.200  -4.571   0.138  0.00  0.00    -0.075 C 
BRANCH  17  18
ATOM     18  N   LIG    1       -2.828  -4.062   0.007  0.00  0.00    +0.378 N 
ATOM     19  H   LIG    1       -2.271  -4.395   0.779  0.00  0.00    -0.082 HD
ATOM     20  C   LIG    1       -2.248  -4.537  -1.256  0.00  0.00    -0.096 C 
BRANCH  18  21
ATOM     21  C   LIG    1       -2.848  -2.593   0.015  0.00  0.00    -0.079 C 
BRANCH  21  22
ATOM     22  C   LIG    1       -1.413  -2.063   0.004  0.00  0.00    -0.019 C 
BRANCH  22  23
ATOM     23  C   LIG    1       -1.433  -0.534   0.013  0.00  0.00    -0.002 C 
BRANCH  23  25
ATOM     24  C   LIG    1       -0.019   1.526   0.010  0.00  0.00    +0.004 C 
ATOM     25  C   LIG    1        0.002  -0.004   0.002  0.00  0.00    -0.003 C 
ENDBRANCH  23  25
ENDBRANCH  22  23
ENDBRANCH  21  22
ENDBRANCH  18  21
ENDBRANCH  17  18
ENDBRANCH  16  17
ENDBRANCH   1  16
TORSDOF 14
