REMARK  Name = ZINC35328520
REMARK                            x       y       z     vdW  Elec       q    Type
REMARK                         _______ _______ _______ _____ _____    ______ ____
ROOT
ATOM      1  N   LIG    1       -1.078  -2.111   1.591  0.00  0.00    -0.301 N 
ATOM      2  H   LIG    1       -0.698  -1.411   2.146  0.00  0.00    +0.150 HD
ATOM      3  C   LIG    1       -1.080  -3.387   2.023  0.00  0.00    +0.302 C 
ATOM      4  N   LIG    1       -0.638  -3.680   3.263  0.00  0.00    -0.285 N 
ATOM      5  C   LIG    1       -0.251  -2.610   4.192  0.00  0.00    +0.109 C 
ATOM      6  C   LIG    1        1.167  -2.887   4.700  0.00  0.00    +0.019 C 
ATOM      7  C   LIG    1        1.223  -4.293   5.302  0.00  0.00    +0.009 C 
ATOM      8  C   LIG    1        0.886  -5.325   4.224  0.00  0.00    +0.040 C 
ATOM      9  C   LIG    1       -0.541  -5.075   3.713  0.00  0.00    +0.115 C 
ATOM     10  O   LIG    1       -1.479  -4.275   1.295  0.00  0.00    -0.253 OA
ENDROOT
BRANCH   1  11
ATOM     11  C   LIG    1       -1.652  -1.778   0.285  0.00  0.00    +0.090 C 
BRANCH  11  12
ATOM     12  C   LIG    1       -1.524  -0.274   0.039  0.00  0.00    -0.054 C 
BRANCH  12  14
ATOM     13  C   LIG    1        0.691  -0.550  -0.841  0.00  0.00    -0.100 C 
ATOM     14  N   LIG    1       -0.118   0.128   0.181  0.00  0.00    +0.380 N 
ATOM     15  H   LIG    1       -0.040   1.127   0.063  0.00  0.00    -0.086 HD
ATOM     16  H   LIG    1        0.215  -0.130   1.098  0.00  0.00    -0.086 HD
ENDBRANCH  12  14
BRANCH  12  17
ATOM     17  C   LIG    1       -2.008   0.055  -1.374  0.00  0.00    -0.009 C 
BRANCH  17  18
ATOM     18  C   LIG    1       -1.947   1.568  -1.595  0.00  0.00    +0.013 C 
ATOM     19  C   LIG    1       -2.306   1.888  -3.049  0.00  0.00    +0.008 C 
ATOM     20  C   LIG    1       -2.318   3.408  -3.238  0.00  0.00    +0.028 C 
ATOM     21  C   LIG    1       -3.304   4.030  -2.246  0.00  0.00    +0.160 C 
ATOM     22  O   LIG    1       -2.931   3.668  -0.915  0.00  0.00    -0.379 OA
ATOM     23  C   LIG    1       -2.947   2.261  -0.665  0.00  0.00    +0.163 C 
ENDBRANCH  17  18
ENDBRANCH  12  17
ENDBRANCH  11  12
ENDBRANCH   1  11
BRANCH   8  24
ATOM     24  C   LIG    1        0.975  -6.732   4.819  0.00  0.00    +0.153 C 
BRANCH  24  25
ATOM     25  C   LIG    1        0.763  -7.752   3.730  0.00  0.00    -0.017 A 
ATOM     26  C   LIG    1       -0.517  -8.047   3.298  0.00  0.00    +0.006 A 
ATOM     27  C   LIG    1       -0.711  -8.983   2.300  0.00  0.00    +0.002 A 
ATOM     28  C   LIG    1        0.374  -9.624   1.732  0.00  0.00    +0.020 A 
ATOM     29  C   LIG    1        1.654  -9.329   2.163  0.00  0.00    +0.041 A 
ATOM     30 CL   LIG    1        3.018 -10.135   1.451  0.00  0.00    -0.084 Cl
ATOM     31  C   LIG    1        1.849  -8.388   3.159  0.00  0.00    +0.026 A 
ENDBRANCH  24  25
BRANCH  24  32
ATOM     32  O   LIG    1       -0.031  -6.890   5.821  0.00  0.00    -0.370 OA
BRANCH  32  33
ATOM     33  C   LIG    1        0.327  -7.795   6.867  0.00  0.00    +0.179 C 
BRANCH  33  34
ATOM     34  C   LIG    1       -0.818  -7.886   7.878  0.00  0.00    +0.135 C 
BRANCH  34  35
ATOM     35  N   LIG    1       -1.991  -8.482   7.235  0.00  0.00    -0.279 N 
ATOM     36  H   LIG    1       -1.950  -8.748   6.303  0.00  0.00    +0.152 HD
ATOM     37  C   LIG    1       -3.127  -8.662   7.938  0.00  0.00    +0.400 C 
ATOM     38  O   LIG    1       -3.177  -8.329   9.106  0.00  0.00    -0.226 OA
BRANCH  37  39
ATOM     39  O   LIG    1       -4.205  -9.210   7.347  0.00  0.00    -0.454 OA
ATOM     40  C   LIG    1       -5.374  -9.371   8.152  0.00  0.00    +0.282 C 
ENDBRANCH  37  39
ENDBRANCH  34  35
ENDBRANCH  33  34
ENDBRANCH  32  33
ENDBRANCH  24  32
ENDBRANCH   8  24
TORSDOF 12
