REMARK  Name = ZINC19363139
REMARK                            x       y       z     vdW  Elec       q    Type
REMARK                         _______ _______ _______ _____ _____    ______ ____
ROOT
ATOM      1  N   LIG    1       -1.873  -6.494  -3.073  0.00  0.00    -0.303 NA
ATOM      2  C   LIG    1       -3.008  -5.608  -3.367  0.00  0.00    +0.066 C 
ATOM      3  C   LIG    1       -3.397  -5.753  -4.840  0.00  0.00    -0.063 C 
ATOM      4  N   LIG    1       -3.759  -7.150  -5.115  0.00  0.00    +0.382 N 
ATOM      5  H   LIG    1       -4.532  -7.419  -4.525  0.00  0.00    -0.082 HD
ATOM      6  C   LIG    1       -2.608  -8.019  -4.841  0.00  0.00    -0.063 C 
ATOM      7  C   LIG    1       -2.212  -7.893  -3.368  0.00  0.00    +0.066 C 
ENDROOT
BRANCH   1   8
ATOM      8  C   LIG    1       -1.433  -6.341  -1.680  0.00  0.00    +0.119 C 
BRANCH   8   9
ATOM      9  C   LIG    1       -0.005  -6.872  -1.536  0.00  0.00    +0.166 C 
BRANCH   9  10
ATOM     10  O   LIG    1        0.869  -6.125  -2.384  0.00  0.00    -0.387 OA
ATOM     11  H   LIG    1        0.895  -5.179  -2.187  0.00  0.00    +0.210 HD
ENDBRANCH   9  10
BRANCH   9  12
ATOM     12  C   LIG    1        0.449  -6.726  -0.082  0.00  0.00    +0.261 C 
BRANCH  12  13
ATOM     13  O   LIG    1        1.736  -7.326   0.079  0.00  0.00    -0.489 OA
BRANCH  13  19
ATOM     14  C   LIG    1        3.533  -7.846   1.547  0.00  0.00    -0.002 A 
ATOM     15  C   LIG    1        4.094  -7.796   2.809  0.00  0.00    +0.007 A 
ATOM     16  C   LIG    1        3.410  -7.189   3.846  0.00  0.00    +0.001 A 
ATOM     17  C   LIG    1        2.164  -6.632   3.624  0.00  0.00    +0.004 A 
ATOM     18  C   LIG    1        1.600  -6.679   2.364  0.00  0.00    +0.046 A 
ATOM     19  C   LIG    1        2.286  -7.283   1.320  0.00  0.00    +0.124 A 
BRANCH  14  20
ATOM     20  C   LIG    1        4.279  -8.508   0.417  0.00  0.00    +0.065 C 
BRANCH  20  22
ATOM     21  C   LIG    1        6.340  -7.606  -0.530  0.00  0.00    +0.004 C 
ATOM     22  C   LIG    1        5.050  -7.468  -0.354  0.00  0.00    -0.030 C 
ENDBRANCH  20  22
ENDBRANCH  14  20
ENDBRANCH  13  19
ENDBRANCH  12  13
ENDBRANCH   9  12
ENDBRANCH   8   9
ENDBRANCH   1   8
BRANCH   4  23
ATOM     23  C   LIG    1       -4.150  -7.285  -6.525  0.00  0.00    -0.057 C 
BRANCH  23  24
ATOM     24  C   LIG    1       -4.646  -8.709  -6.782  0.00  0.00    +0.110 C 
BRANCH  24  25
ATOM     25  N   LIG    1       -5.035  -8.844  -8.188  0.00  0.00    -0.277 N 
ATOM     26  C   LIG    1       -6.305  -8.565  -8.539  0.00  0.00    +0.262 A 
ATOM     27  C   LIG    1       -6.734  -8.688  -9.940  0.00  0.00    +0.048 A 
ATOM     28  C   LIG    1       -8.031  -8.411 -10.345  0.00  0.00    +0.014 A 
ATOM     29  C   LIG    1       -8.388  -8.542 -11.682  0.00  0.00    +0.001 A 
ATOM     30  C   LIG    1       -7.487  -8.942 -12.627  0.00  0.00    +0.008 A 
ATOM     31  C   LIG    1       -6.162  -9.232 -12.258  0.00  0.00    -0.016 A 
ATOM     32  C   LIG    1       -5.199  -9.647 -13.194  0.00  0.00    +0.008 A 
ATOM     33  C   LIG    1       -3.924  -9.919 -12.787  0.00  0.00    +0.001 A 
ATOM     34  C   LIG    1       -3.542  -9.795 -11.456  0.00  0.00    +0.014 A 
ATOM     35  C   LIG    1       -4.463  -9.388 -10.502  0.00  0.00    +0.048 A 
ATOM     36  C   LIG    1       -5.787  -9.103 -10.905  0.00  0.00    +0.007 A 
ATOM     37  O   LIG    1       -7.102  -8.209  -7.692  0.00  0.00    -0.267 OA
ATOM     38  C   LIG    1       -4.109  -9.237  -9.083  0.00  0.00    +0.262 A 
ATOM     39  O   LIG    1       -2.974  -9.472  -8.714  0.00  0.00    -0.267 OA
ENDBRANCH  24  25
ENDBRANCH  23  24
ENDBRANCH   4  23
TORSDOF 11
