REMARK  Name = ZINC13831531
REMARK                            x       y       z     vdW  Elec       q    Type
REMARK                         _______ _______ _______ _____ _____    ______ ____
ROOT
ATOM      1  S   LIG    1       -3.671  -2.253  -0.420  0.00  0.00    +0.104 S 
ATOM      2  O   LIG    1       -4.574  -3.347  -0.493  0.00  0.00    -0.146 OA
ATOM      3  O   LIG    1       -3.544  -1.299  -1.466  0.00  0.00    -0.146 OA
ENDROOT
BRANCH   1   9
ATOM      4  C   LIG    1       -0.960  -2.098  -0.032  0.00  0.00    +0.064 A 
ATOM      5  C   LIG    1        0.309  -2.647   0.174  0.00  0.00    +0.017 A 
ATOM      6  C   LIG    1        0.465  -4.013   0.236  0.00  0.00    +0.024 A 
ATOM      7  C   LIG    1       -0.639  -4.848   0.094  0.00  0.00    +0.035 A 
ATOM      8  C   LIG    1       -1.904  -4.305  -0.111  0.00  0.00    +0.053 A 
ATOM      9  C   LIG    1       -2.068  -2.939  -0.168  0.00  0.00    +0.126 A 
BRANCH   4  12
ATOM     10  C   LIG    1       -0.411   1.566  -0.860  0.00  0.00    +0.132 C 
ATOM     11  N   LIG    1       -0.325   0.104  -0.887  0.00  0.00    -0.304 N 
ATOM     12  C   LIG    1       -1.131  -0.634  -0.098  0.00  0.00    +0.248 C 
ATOM     13  O   LIG    1       -1.999  -0.092   0.559  0.00  0.00    -0.270 OA
ATOM     14  C   LIG    1        0.638  -0.557  -1.772  0.00  0.00    +0.132 C 
ENDBRANCH   4  12
BRANCH   7  15
ATOM     15  N   LIG    1       -0.478  -6.231   0.156  0.00  0.00    -0.288 N 
ATOM     16  H   LIG    1        0.315  -6.644  -0.220  0.00  0.00    +0.155 HD
ATOM     17  C   LIG    1       -1.424  -6.995   0.739  0.00  0.00    +0.330 C 
ATOM     18  O   LIG    1       -2.447  -6.487   1.145  0.00  0.00    -0.279 OA
ENDBRANCH   7  15
ENDBRANCH   1   9
BRANCH   1  19
ATOM     19  N   LIG    1       -4.061  -1.406   0.948  0.00  0.00    -0.076 NA
ATOM     20  C   LIG    1       -5.205  -0.793   1.029  0.00  0.00    +0.305 C 
BRANCH  20  21
ATOM     21  N   LIG    1       -5.530  -0.089   2.167  0.00  0.00    -0.237 N 
ATOM     22  H   LIG    1       -4.906  -0.050   2.908  0.00  0.00    +0.159 HD
BRANCH  21  23
ATOM     23  C   LIG    1       -6.751   0.566   2.252  0.00  0.00    +0.229 A 
ATOM     24  N   LIG    1       -7.592   0.498   1.233  0.00  0.00    -0.179 NA
ATOM     25  C   LIG    1       -8.770   1.112   1.280  0.00  0.00    +0.223 A 
ATOM     26  C   LIG    1       -9.113   1.832   2.419  0.00  0.00    +0.134 A 
ATOM     27  C   LIG    1       -8.203   1.881   3.470  0.00  0.00    +0.223 A 
ATOM     28  N   LIG    1       -7.046   1.238   3.354  0.00  0.00    -0.179 NA
BRANCH  25  29
ATOM     29  O   LIG    1       -9.626   1.038   0.232  0.00  0.00    -0.479 OA
ATOM     30  C   LIG    1       -9.199   0.279  -0.901  0.00  0.00    +0.279 C 
ENDBRANCH  25  29
BRANCH  27  31
ATOM     31  O   LIG    1       -8.496   2.571   4.599  0.00  0.00    -0.479 OA
ATOM     32  C   LIG    1       -7.509   2.572   5.633  0.00  0.00    +0.279 C 
ENDBRANCH  27  31
ENDBRANCH  21  23
ENDBRANCH  20  21
BRANCH  20  33
ATOM     33  O   LIG    1       -6.075  -0.846  -0.004  0.00  0.00    -0.480 OA
ATOM     34  H   LIG    1       -5.854  -1.325  -0.778  0.00  0.00    +0.295 HD
ENDBRANCH  20  33
ENDBRANCH   1  19
TORSDOF 9
