REMARK  Name = ZINC52076544
REMARK                            x       y       z     vdW  Elec       q    Type
REMARK                         _______ _______ _______ _____ _____    ______ ____
ROOT
ATOM      1  C   LIG    1       -0.113  -2.872   2.462  0.00  0.00    +0.252 C 
ATOM      2  N   LIG    1        0.070  -4.207   2.435  0.00  0.00    -0.280 N 
ATOM      3  H   LIG    1        0.117  -4.672   1.585  0.00  0.00    +0.155 HD
ATOM      4  O   LIG    1       -0.269  -2.301   3.524  0.00  0.00    -0.270 OA
ENDROOT
BRANCH   2   5
ATOM      5  C   LIG    1        0.190  -4.920   3.632  0.00  0.00    +0.053 A 
ATOM      6  C   LIG    1        0.785  -4.335   4.733  0.00  0.00    +0.035 A 
ATOM      7  C   LIG    1        0.881  -5.094   5.913  0.00  0.00    +0.002 A 
ATOM      8  C   LIG    1        1.473  -4.567   7.073  0.00  0.00    +0.010 A 
ATOM      9  C   LIG    1        1.548  -5.331   8.197  0.00  0.00    +0.001 A 
ATOM     10  C   LIG    1        1.046  -6.631   8.212  0.00  0.00    +0.002 A 
ATOM     11  C   LIG    1        0.468  -7.174   7.106  0.00  0.00    +0.028 A 
ATOM     12  C   LIG    1        0.370  -6.416   5.926  0.00  0.00    +0.071 A 
ATOM     13  N   LIG    1       -0.195  -6.926   4.827  0.00  0.00    -0.253 NA
ATOM     14  C   LIG    1       -0.297  -6.230   3.722  0.00  0.00    +0.134 A 
ENDBRANCH   2   5
BRANCH   1  20
ATOM     15  C   LIG    1       -0.526   1.492   0.056  0.00  0.00    +0.047 C 
ATOM     16  C   LIG    1       -0.322  -0.002   0.037  0.00  0.00    -0.008 A 
ATOM     17  C   LIG    1       -0.144  -0.658  -1.164  0.00  0.00    +0.007 A 
ATOM     18  C   LIG    1        0.045  -2.030  -1.192  0.00  0.00    +0.001 A 
ATOM     19  C   LIG    1        0.056  -2.754  -0.019  0.00  0.00    +0.017 A 
ATOM     20  C   LIG    1       -0.123  -2.103   1.203  0.00  0.00    +0.079 A 
ATOM     21  C   LIG    1       -0.308  -0.713   1.227  0.00  0.00    +0.132 A 
BRANCH  21  22
ATOM     22  O   LIG    1       -0.478  -0.069   2.409  0.00  0.00    -0.506 OA
ATOM     23  H   LIG    1       -1.400  -0.001   2.691  0.00  0.00    +0.292 HD
ENDBRANCH  21  22
ENDBRANCH   1  20
TORSDOF 3
