REMARK  Name = ZINC40900552
REMARK                            x       y       z     vdW  Elec       q    Type
REMARK                         _______ _______ _______ _____ _____    ______ ____
ROOT
ATOM      1  N   LIG    1        2.540  -2.503   4.231  0.00  0.00    -0.179 N 
ATOM      2  C   LIG    1        2.677  -3.834   4.404  0.00  0.00    +0.356 A 
ATOM      3  N   LIG    1        3.353  -4.032   5.550  0.00  0.00    -0.237 N 
ATOM      4  C   LIG    1        3.776  -5.178   6.218  0.00  0.00    +0.097 A 
ATOM      5  C   LIG    1        3.505  -6.436   5.697  0.00  0.00    +0.031 A 
ATOM      6  C   LIG    1        3.946  -7.549   6.398  0.00  0.00    +0.022 A 
ATOM      7  C   LIG    1        4.636  -7.374   7.585  0.00  0.00    +0.113 A 
ATOM      8  N   LIG    1        4.882  -6.172   8.062  0.00  0.00    -0.234 NA
ATOM      9  C   LIG    1        4.481  -5.070   7.428  0.00  0.00    +0.179 A 
ATOM     10  N   LIG    1        4.759  -3.851   7.960  0.00  0.00    -0.207 NA
ATOM     11  C   LIG    1        4.384  -2.741   7.371  0.00  0.00    +0.173 A 
ATOM     12  C   LIG    1        3.643  -2.794   6.103  0.00  0.00    +0.203 A 
ATOM     13  O   LIG    1        2.263  -4.702   3.656  0.00  0.00    -0.244 OA
ATOM     14  N   LIG    1        3.164  -1.869   5.315  0.00  0.00    -0.140 NA
ENDROOT
BRANCH   1  18
ATOM     15  C   LIG    1        0.626  -0.619   1.042  0.00  0.00    +0.120 A 
ATOM     16  C   LIG    1        1.202   0.140   2.051  0.00  0.00    +0.048 A 
ATOM     17  C   LIG    1        1.836  -0.484   3.107  0.00  0.00    +0.031 A 
ATOM     18  C   LIG    1        1.897  -1.870   3.160  0.00  0.00    +0.071 A 
ATOM     19  C   LIG    1        1.320  -2.628   2.149  0.00  0.00    +0.031 A 
ATOM     20  C   LIG    1        0.681  -2.004   1.096  0.00  0.00    +0.048 A 
BRANCH  15  22
ATOM     21  C   LIG    1       -0.017   1.425   0.010  0.00  0.00    +0.277 C 
ATOM     22  O   LIG    1        0.002  -0.004   0.002  0.00  0.00    -0.495 OA
ENDBRANCH  15  22
ENDBRANCH   1  18
BRANCH  11  23
ATOM     23  N   LIG    1        4.687  -1.519   7.944  0.00  0.00    -0.263 N 
ATOM     24  H   LIG    1        4.410  -0.697   7.509  0.00  0.00    +0.157 HD
ATOM     25  C   LIG    1        5.367  -1.470   9.107  0.00  0.00    +0.249 C 
ATOM     26  O   LIG    1        5.714  -2.499   9.652  0.00  0.00    -0.270 OA
BRANCH  25  27
ATOM     27  C   LIG    1        5.690  -0.164   9.719  0.00  0.00    +0.037 A 
ATOM     28  C   LIG    1        5.288   1.020   9.099  0.00  0.00    +0.013 A 
ATOM     29  C   LIG    1        5.592   2.236   9.676  0.00  0.00    +0.001 A 
ATOM     30  C   LIG    1        6.295   2.283  10.867  0.00  0.00    +0.000 A 
ATOM     31  C   LIG    1        6.697   1.113  11.487  0.00  0.00    +0.001 A 
ATOM     32  C   LIG    1        6.394  -0.109  10.923  0.00  0.00    +0.013 A 
ENDBRANCH  25  27
ENDBRANCH  11  23
TORSDOF 4
