REMARK  Name = ZINC34132143
REMARK                            x       y       z     vdW  Elec       q    Type
REMARK                         _______ _______ _______ _____ _____    ______ ____
ROOT
ATOM      1  C   LIG    1        1.632  -3.173  -0.023  0.00  0.00    +0.093 C 
ATOM      2  C   LIG    1        2.980  -2.969  -0.029  0.00  0.00    +0.143 C 
ATOM      3  C   LIG    1        4.009  -4.002  -0.045  0.00  0.00    +0.036 A 
ATOM      4  C   LIG    1        4.009  -5.410  -0.059  0.00  0.00    +0.033 A 
ATOM      5  C   LIG    1        5.186  -6.075  -0.072  0.00  0.00    +0.014 A 
ATOM      6  C   LIG    1        5.180  -7.582  -0.087  0.00  0.00    +0.063 C 
ATOM      7  N   LIG    1        6.376  -5.414  -0.072  0.00  0.00    -0.352 N 
ATOM      8  H   LIG    1        7.200  -5.926  -0.081  0.00  0.00    +0.166 HD
ATOM      9  C   LIG    1        6.439  -4.068  -0.059  0.00  0.00    +0.099 A 
ATOM     10  S   LIG    1        7.958  -3.277  -0.059  0.00  0.00    -0.032 S 
ATOM     11  C   LIG    1        5.247  -3.314  -0.045  0.00  0.00    +0.101 A 
ATOM     12  C   LIG    1        4.944  -1.935  -0.029  0.00  0.00    +0.348 C 
ATOM     13  O   LIG    1        5.765  -1.036  -0.025  0.00  0.00    -0.244 OA
ATOM     14  O   LIG    1        3.610  -1.766  -0.026  0.00  0.00    -0.422 OA
ENDROOT
BRANCH   1  19
ATOM     15  C   LIG    1       -0.018   1.503   0.010  0.00  0.00    +0.086 C 
ATOM     16  C   LIG    1        0.002  -0.004   0.002  0.00  0.00    +0.103 A 
ATOM     17  C   LIG    1       -1.088  -0.803   0.003  0.00  0.00    +0.045 A 
ATOM     18  C   LIG    1       -0.631  -2.130  -0.007  0.00  0.00    +0.049 A 
ATOM     19  C   LIG    1        0.749  -2.069  -0.013  0.00  0.00    +0.132 A 
ATOM     20  O   LIG    1        1.105  -0.767  -0.013  0.00  0.00    -0.460 OA
ENDBRANCH   1  19
TORSDOF 1
