REMARK  Name = ZINC49019845
REMARK                            x       y       z     vdW  Elec       q    Type
REMARK                         _______ _______ _______ _____ _____    ______ ____
ROOT
ATOM      1  C   LIG    1        0.632  -2.000  -1.327  0.00  0.00    -0.049 A 
ATOM      2  C   LIG    1        1.613  -2.776  -0.738  0.00  0.00    +0.004 A 
ATOM      3  C   LIG    1        1.537  -4.154  -0.801  0.00  0.00    +0.015 A 
ATOM      4  C   LIG    1        0.473  -4.760  -1.458  0.00  0.00    +0.008 A 
ATOM      5  C   LIG    1       -0.512  -3.977  -2.049  0.00  0.00    +0.015 A 
ATOM      6  C   LIG    1       -0.432  -2.600  -1.977  0.00  0.00    +0.004 A 
ENDROOT
BRANCH   1   7
ATOM      7  C   LIG    1        0.718  -0.497  -1.257  0.00  0.00    +0.018 C 
BRANCH   7   9
ATOM      8  C   LIG    1       -0.019   1.526   0.010  0.00  0.00    -0.014 C 
ATOM      9  C   LIG    1        0.002  -0.004   0.002  0.00  0.00    -0.074 C 
BRANCH   9  10
ATOM     10  N   LIG    1        0.713  -0.491   1.192  0.00  0.00    +0.380 N 
ATOM     11  H   LIG    1        1.659  -0.141   1.185  0.00  0.00    -0.090 HD
ATOM     12  H   LIG    1        0.726  -1.500   1.187  0.00  0.00    -0.090 HD
ATOM     13  H   LIG    1        0.240  -0.165   2.022  0.00  0.00    -0.090 HD
ENDBRANCH   9  10
ENDBRANCH   7   9
ENDBRANCH   1   7
BRANCH   4  14
ATOM     14  S   LIG    1        0.372  -6.517  -1.541  0.00  0.00    -0.121 S 
BRANCH  14  15
ATOM     15  C   LIG    1       -1.152  -6.825  -2.475  0.00  0.00    +0.109 C 
BRANCH  15  16
ATOM     16  C   LIG    1       -1.360  -8.311  -2.621  0.00  0.00    -0.037 A 
ATOM     17  C   LIG    1       -0.828  -8.980  -3.707  0.00  0.00    +0.004 A 
ATOM     18  C   LIG    1       -1.019 -10.343  -3.840  0.00  0.00    +0.000 A 
ATOM     19  C   LIG    1       -1.742 -11.036  -2.888  0.00  0.00    +0.000 A 
ATOM     20  C   LIG    1       -2.273 -10.367  -1.801  0.00  0.00    +0.000 A 
ATOM     21  C   LIG    1       -2.079  -9.005  -1.665  0.00  0.00    +0.004 A 
ENDBRANCH  15  16
ENDBRANCH  14  15
ENDBRANCH   4  14
TORSDOF 6
