REMARK  Name = ZINC22453679
REMARK                            x       y       z     vdW  Elec       q    Type
REMARK                         _______ _______ _______ _____ _____    ______ ____
ROOT
ATOM      1  C   LIG    1        1.233  -8.331   4.810  0.00  0.00    +0.049 A 
ATOM      2  C   LIG    1        2.155  -9.167   4.270  0.00  0.00    +0.041 A 
ATOM      3  C   LIG    1        1.681 -10.526   4.507  0.00  0.00    +0.059 A 
ATOM      4  C   LIG    1        0.460 -10.407   5.199  0.00  0.00    +0.144 A 
ATOM      5  N   LIG    1       -0.189 -11.519   5.540  0.00  0.00    -0.218 NA
ATOM      6  C   LIG    1        0.300 -12.703   5.237  0.00  0.00    +0.225 A 
ATOM      7  N   LIG    1        1.441 -12.860   4.591  0.00  0.00    -0.220 NA
ATOM      8  C   LIG    1        2.162 -11.811   4.207  0.00  0.00    +0.132 A 
ATOM      9  N   LIG    1        0.216  -9.072   5.373  0.00  0.00    -0.339 N 
ATOM     10  H   LIG    1       -0.559  -8.702   5.824  0.00  0.00    +0.167 HD
ENDROOT
BRANCH   1  14
ATOM     11  C   LIG    1        1.453  -4.089   4.782  0.00  0.00    -0.033 A 
ATOM     12  C   LIG    1        0.376  -4.719   5.381  0.00  0.00    +0.005 A 
ATOM     13  C   LIG    1        0.299  -6.097   5.394  0.00  0.00    +0.010 A 
ATOM     14  C   LIG    1        1.309  -6.855   4.800  0.00  0.00    -0.002 A 
ATOM     15  C   LIG    1        2.392  -6.213   4.197  0.00  0.00    +0.010 A 
ATOM     16  C   LIG    1        2.455  -4.835   4.187  0.00  0.00    +0.005 A 
BRANCH  11  17
ATOM     17  C   LIG    1        1.530  -2.584   4.772  0.00  0.00    +0.119 C 
BRANCH  17  22
ATOM     18  N   LIG    1        0.713  -0.491   1.192  0.00  0.00    +0.381 N 
ATOM     19  H   LIG    1        1.632  -0.076   1.228  0.00  0.00    -0.082 HD
ATOM     20  C   LIG    1       -0.039  -0.117   2.398  0.00  0.00    -0.063 C 
ATOM     21  C   LIG    1        0.710  -0.608   3.639  0.00  0.00    +0.066 C 
ATOM     22  N   LIG    1        0.864  -2.067   3.569  0.00  0.00    -0.302 NA
ATOM     23  C   LIG    1        1.594  -2.458   2.354  0.00  0.00    +0.066 C 
ATOM     24  C   LIG    1        0.837  -1.953   1.124  0.00  0.00    -0.063 C 
BRANCH  18  26
ATOM     25  C   LIG    1       -0.019   1.526   0.010  0.00  0.00    -0.017 C 
ATOM     26  C   LIG    1        0.002  -0.004   0.002  0.00  0.00    -0.082 C 
ENDBRANCH  18  26
ENDBRANCH  17  22
ENDBRANCH  11  17
ENDBRANCH   1  14
BRANCH   8  27
ATOM     27  N   LIG    1        3.356 -11.981   3.530  0.00  0.00    -0.322 N 
ATOM     28  H   LIG    1        3.872 -11.207   3.255  0.00  0.00    +0.148 HD
BRANCH  27  29
ATOM     29  C   LIG    1        3.841 -13.330   3.227  0.00  0.00    +0.099 C 
ATOM     30  C   LIG    1        4.614 -13.876   4.428  0.00  0.00    +0.033 C 
BRANCH  29  31
ATOM     31  C   LIG    1        4.749 -13.279   2.025  0.00  0.00    -0.028 A 
ATOM     32  C   LIG    1        5.648 -12.239   1.882  0.00  0.00    +0.005 A 
ATOM     33  C   LIG    1        6.481 -12.192   0.780  0.00  0.00    +0.000 A 
ATOM     34  C   LIG    1        6.416 -13.186  -0.178  0.00  0.00    +0.000 A 
ATOM     35  C   LIG    1        5.517 -14.227  -0.035  0.00  0.00    +0.000 A 
ATOM     36  C   LIG    1        4.687 -14.276   1.069  0.00  0.00    +0.005 A 
ENDBRANCH  29  31
ENDBRANCH  27  29
ENDBRANCH   8  27
TORSDOF 7
