REMARK  Name = ZINC28771591
REMARK                            x       y       z     vdW  Elec       q    Type
REMARK                         _______ _______ _______ _____ _____    ______ ____
ROOT
ATOM      1  C   LIG    1       -4.606  -3.330   0.749  0.00  0.00    +0.070 C 
ATOM      2  C   LIG    1       -4.477  -4.639   0.400  0.00  0.00    +0.049 C 
ATOM      3  N   LIG    1       -3.361  -5.073  -0.281  0.00  0.00    -0.317 N 
ATOM      4  H   LIG    1       -3.380  -6.038  -0.809  0.00  0.00    +0.152 HD
ATOM      5  C   LIG    1       -2.228  -4.307  -0.303  0.00  0.00    +0.014 C 
ATOM      6  C   LIG    1       -0.915  -4.937  -0.691  0.00  0.00    +0.061 C 
ATOM      7  C   LIG    1       -2.267  -3.003   0.014  0.00  0.00    +0.043 C 
ATOM      8  C   LIG    1       -3.548  -2.323   0.403  0.00  0.00    +0.096 C 
ENDROOT
BRANCH   8   9
ATOM      9  C   LIG    1       -4.031  -1.480  -0.748  0.00  0.00    -0.017 A 
ATOM     10  C   LIG    1       -4.319  -2.070  -1.965  0.00  0.00    +0.006 A 
ATOM     11  C   LIG    1       -4.762  -1.296  -3.021  0.00  0.00    +0.000 A 
ATOM     12  C   LIG    1       -4.918   0.068  -2.861  0.00  0.00    +0.001 A 
ATOM     13  C   LIG    1       -4.632   0.659  -1.646  0.00  0.00    +0.020 A 
ATOM     14  C   LIG    1       -4.193  -0.115  -0.586  0.00  0.00    +0.045 A 
ATOM     15 CL   LIG    1       -3.840   0.626   0.943  0.00  0.00    -0.083 Cl
ENDBRANCH   8   9
BRANCH   2  16
ATOM     16  C   LIG    1       -5.539  -5.599   0.754  0.00  0.00    -0.003 A 
ATOM     17  C   LIG    1       -5.257  -6.677   1.598  0.00  0.00    +0.012 A 
ATOM     18  C   LIG    1       -6.253  -7.567   1.931  0.00  0.00    +0.027 A 
ATOM     19  C   LIG    1       -7.535  -7.403   1.419  0.00  0.00    +0.048 A 
ATOM     20  C   LIG    1       -7.819  -6.335   0.574  0.00  0.00    +0.027 A 
ATOM     21  C   LIG    1       -6.830  -5.436   0.241  0.00  0.00    +0.012 A 
BRANCH  19  22
ATOM     22  N   LIG    1       -8.542  -8.312   1.754  0.00  0.00    -0.296 N 
ATOM     23  C   LIG    1       -9.184  -9.161   0.899  0.00  0.00    +0.112 A 
ATOM     24  C   LIG    1       -8.913  -9.265  -0.580  0.00  0.00    +0.086 C 
ATOM     25  N   LIG    1      -10.063  -9.867   1.548  0.00  0.00    -0.231 NA
ATOM     26  C   LIG    1      -10.049  -9.523   2.860  0.00  0.00    +0.108 A 
ATOM     27  C   LIG    1      -10.756  -9.939   3.987  0.00  0.00    +0.140 A 
ATOM     28  N   LIG    1      -10.509  -9.400   5.162  0.00  0.00    -0.261 NA
ATOM     29  C   LIG    1       -9.598  -8.457   5.332  0.00  0.00    +0.113 A 
ATOM     30  C   LIG    1       -8.852  -7.985   4.272  0.00  0.00    +0.048 A 
ATOM     31  C   LIG    1       -9.067  -8.524   3.010  0.00  0.00    +0.076 A 
ENDBRANCH  19  22
ENDBRANCH   2  16
BRANCH   7  32
ATOM     32  C   LIG    1       -1.068  -2.251  -0.014  0.00  0.00    +0.248 C 
ATOM     33  N   LIG    1       -0.589  -1.790  -1.187  0.00  0.00    -0.267 N 
ATOM     34  H   LIG    1       -1.169  -1.930  -2.111  0.00  0.00    +0.157 HD
ATOM     35  O   LIG    1       -0.470  -2.020   1.021  0.00  0.00    -0.270 OA
BRANCH  33  36
ATOM     36  C   LIG    1        0.641  -1.137  -1.228  0.00  0.00    +0.125 A 
ATOM     37  C   LIG    1        1.183  -0.767  -2.454  0.00  0.00    +0.044 A 
ATOM     38  C   LIG    1        2.405  -0.118  -2.481  0.00  0.00    +0.005 A 
ATOM     39  C   LIG    1        3.045   0.139  -1.275  0.00  0.00    +0.020 A 
ATOM     40  C   LIG    1        2.448  -0.257  -0.095  0.00  0.00    +0.113 A 
ATOM     41  N   LIG    1        1.282  -0.874  -0.100  0.00  0.00    -0.240 NA
ENDBRANCH  33  36
ENDBRANCH   7  32
BRANCH   1  42
ATOM     42  C   LIG    1       -5.751  -2.912   1.452  0.00  0.00    +0.338 C 
ATOM     43  O   LIG    1       -6.560  -3.735   1.841  0.00  0.00    -0.245 OA
BRANCH  42  44
ATOM     44  O   LIG    1       -5.953  -1.599   1.696  0.00  0.00    -0.462 OA
BRANCH  44  46
ATOM     45  C   LIG    1       -7.192   0.271   2.594  0.00  0.00    +0.048 C 
ATOM     46  C   LIG    1       -7.136  -1.247   2.415  0.00  0.00    +0.229 C 
ENDBRANCH  44  46
ENDBRANCH  42  44
ENDBRANCH   1  42
TORSDOF 8
