REMARK  Name = ZINC27646798
REMARK                            x       y       z     vdW  Elec       q    Type
REMARK                         _______ _______ _______ _____ _____    ______ ____
ROOT
ATOM      1  C   LIG    1       -0.076   5.331   0.029  0.00  0.00    +0.162 A 
ATOM      2  N   LIG    1        1.072   5.974   0.022  0.00  0.00    -0.227 NA
ATOM      3  C   LIG    1        1.121   7.328   0.028  0.00  0.00    +0.084 A 
ATOM      4  C   LIG    1        2.245   8.173   0.021  0.00  0.00    +0.036 A 
ATOM      5  C   LIG    1        2.087   9.510   0.030  0.00  0.00    +0.048 A 
ATOM      6  S   LIG    1        0.313   9.702   0.047  0.00  0.00    -0.092 S 
ATOM      7  C   LIG    1       -0.129   7.986   0.043  0.00  0.00    +0.077 A 
ATOM      8  C   LIG    1       -1.316   7.272   0.051  0.00  0.00    +0.140 A 
ATOM      9  N   LIG    1       -1.256   5.942   0.038  0.00  0.00    -0.211 NA
ENDROOT
BRANCH   1  12
ATOM     10  C   LIG    1       -1.220   1.748   0.017  0.00  0.00    +0.004 A 
ATOM     11  C   LIG    1       -1.245   3.129   0.030  0.00  0.00    +0.012 A 
ATOM     12  C   LIG    1       -0.051   3.848   0.022  0.00  0.00    +0.023 A 
ATOM     13  C   LIG    1        1.165   3.169   0.007  0.00  0.00    +0.057 A 
ATOM     14  C   LIG    1        1.181   1.784   0.000  0.00  0.00    +0.118 A 
ATOM     15  C   LIG    1       -0.013   1.076   0.008  0.00  0.00    +0.045 A 
BRANCH  14  16
ATOM     16  O   LIG    1        2.366   1.119  -0.015  0.00  0.00    -0.507 OA
ATOM     17  H   LIG    1        2.379   0.019  -0.020  0.00  0.00    +0.292 HD
ENDBRANCH  14  16
ENDBRANCH   1  12
BRANCH   8  18
ATOM     18  N   LIG    1       -2.537   7.927   0.065  0.00  0.00    -0.310 N 
ATOM     19  C   LIG    1       -2.631   8.842   1.212  0.00  0.00    +0.134 C 
ATOM     20  C   LIG    1       -3.967   9.587   1.157  0.00  0.00    +0.178 C 
ATOM     21  O   LIG    1       -5.036   8.637   1.132  0.00  0.00    -0.377 OA
ATOM     22  C   LIG    1       -4.976   7.731   0.027  0.00  0.00    +0.178 C 
ATOM     23  C   LIG    1       -3.650   6.967   0.071  0.00  0.00    +0.134 C 
ENDBRANCH   8  18
TORSDOF 3
