REMARK  Name = ZINC16052820
REMARK                            x       y       z     vdW  Elec       q    Type
REMARK                         _______ _______ _______ _____ _____    ______ ____
ROOT
ATOM      1  C   LIG    1       -0.131   1.412   0.584  0.00  0.00    +0.211 C 
ENDROOT
BRANCH   1   3
ATOM      2  C   LIG    1       -1.973   1.661   2.160  0.00  0.00    +0.226 C 
ATOM      3  N   LIG    1       -0.942   2.222   1.497  0.00  0.00    -0.293 N 
ATOM      4  H   LIG    1       -0.737   3.161   1.625  0.00  0.00    +0.151 HD
ATOM      5  O   LIG    1       -2.229   0.486   2.000  0.00  0.00    -0.275 OA
BRANCH   2   6
ATOM      6  C   LIG    1       -2.807   2.493   3.099  0.00  0.00    +0.135 C 
BRANCH   6  10
ATOM      7  C   LIG    1       -5.865   0.059   4.823  0.00  0.00    +0.000 A 
ATOM      8  C   LIG    1       -6.198   1.242   4.189  0.00  0.00    +0.000 A 
ATOM      9  C   LIG    1       -5.208   2.029   3.631  0.00  0.00    +0.005 A 
ATOM     10  C   LIG    1       -3.886   1.635   3.707  0.00  0.00    -0.031 A 
ATOM     11  C   LIG    1       -3.553   0.449   4.337  0.00  0.00    +0.005 A 
ATOM     12  C   LIG    1       -4.542  -0.336   4.899  0.00  0.00    +0.000 A 
ENDBRANCH   6  10
BRANCH   6  13
ATOM     13  C   LIG    1       -1.930   3.048   4.192  0.00  0.00    -0.031 A 
ATOM     14  C   LIG    1       -1.103   2.204   4.910  0.00  0.00    +0.005 A 
ATOM     15  C   LIG    1       -0.295   2.714   5.909  0.00  0.00    +0.000 A 
ATOM     16  C   LIG    1       -0.322   4.065   6.197  0.00  0.00    +0.000 A 
ATOM     17  C   LIG    1       -1.153   4.908   5.484  0.00  0.00    +0.000 A 
ATOM     18  C   LIG    1       -1.957   4.399   4.481  0.00  0.00    +0.005 A 
ENDBRANCH   6  13
ENDBRANCH   2   6
ENDBRANCH   1   3
BRANCH   1  19
ATOM     19  C   LIG    1        1.352   1.705   0.823  0.00  0.00    +0.225 C 
ATOM     20 CL   LIG    1        1.675   3.454   0.524  0.00  0.00    -0.080 Cl
ATOM     21 CL   LIG    1        2.350   0.709  -0.301  0.00  0.00    -0.080 Cl
ATOM     22 CL   LIG    1        1.778   1.298   2.527  0.00  0.00    -0.080 Cl
ENDBRANCH   1  19
BRANCH   1  23
ATOM     23  N   LIG    1       -0.477   1.744  -0.801  0.00  0.00    -0.305 N 
ATOM     24  H   LIG    1       -0.167   2.575  -1.192  0.00  0.00    +0.150 HD
BRANCH  23  25
ATOM     25  C   LIG    1       -1.226   0.893  -1.530  0.00  0.00    +0.136 C 
ATOM     26  S   LIG    1       -1.774  -0.574  -0.838  0.00  0.00    -0.019 S 
BRANCH  25  27
ATOM     27  N   LIG    1       -1.545   1.198  -2.803  0.00  0.00    -0.297 N 
ATOM     28  H   LIG    1       -1.168   1.988  -3.222  0.00  0.00    +0.154 HD
BRANCH  27  29
ATOM     29  C   LIG    1       -2.419   0.374  -3.523  0.00  0.00    +0.035 A 
ATOM     30  C   LIG    1       -2.166   0.090  -4.858  0.00  0.00    +0.026 A 
ATOM     31  C   LIG    1       -3.026  -0.728  -5.564  0.00  0.00    +0.042 A 
ATOM     32  C   LIG    1       -4.147  -1.255  -4.944  0.00  0.00    +0.153 A 
ATOM     33  F   LIG    1       -4.990  -2.050  -5.638  0.00  0.00    -0.203 F 
ATOM     34  C   LIG    1       -4.405  -0.967  -3.615  0.00  0.00    +0.158 A 
ATOM     35  C   LIG    1       -3.543  -0.155  -2.903  0.00  0.00    +0.058 A 
BRANCH  34  36
ATOM     36  N   LIG    1       -5.604  -1.532  -2.955  0.00  0.00    +0.009 N 
ATOM     37  O   LIG    1       -5.830  -1.279  -1.785  0.00  0.00    -0.130 OA
BRANCH  36  38
ATOM     38  O   LIG    1       -6.363  -2.248  -3.582  0.00  0.00    -0.396 OA
ATOM     39  H   LIG    1       -6.189  -2.442  -4.482  0.00  0.00    +0.329 HD
ENDBRANCH  36  38
ENDBRANCH  34  36
ENDBRANCH  27  29
ENDBRANCH  25  27
ENDBRANCH  23  25
ENDBRANCH   1  23
TORSDOF 11
