REMARK  Name = ZINC21981408
REMARK                            x       y       z     vdW  Elec       q    Type
REMARK                         _______ _______ _______ _____ _____    ______ ____
ROOT
ATOM      1  C   LIG    1        0.684  -2.045  -1.168  0.00  0.00    +0.034 C 
ENDROOT
BRANCH   1   2
ATOM      2  C   LIG    1        1.314  -2.682  -2.408  0.00  0.00    +0.071 C 
ATOM      3  C   LIG    1        1.110  -4.198  -2.361  0.00  0.00    +0.035 C 
ATOM      4  C   LIG    1        1.740  -4.835  -3.601  0.00  0.00    +0.003 C 
ATOM      5  C   LIG    1        3.237  -4.523  -3.631  0.00  0.00    +0.000 C 
ATOM      6  C   LIG    1        3.441  -3.007  -3.677  0.00  0.00    +0.003 C 
ATOM      7  C   LIG    1        2.811  -2.370  -2.437  0.00  0.00    +0.035 C 
BRANCH   2   8
ATOM      8  O   LIG    1        0.694  -2.154  -3.582  0.00  0.00    -0.388 OA
ATOM      9  H   LIG    1        1.017  -2.496  -4.576  0.00  0.00    +0.210 HD
ENDBRANCH   2   8
ENDBRANCH   1   2
BRANCH   1  10
ATOM     10  C   LIG    1       -0.759  -2.466  -1.065  0.00  0.00    -0.043 A 
ATOM     11  C   LIG    1       -1.668  -2.054  -2.021  0.00  0.00    +0.007 A 
ATOM     12  C   LIG    1       -2.991  -2.443  -1.932  0.00  0.00    +0.046 A 
ATOM     13  C   LIG    1       -3.409  -3.238  -0.875  0.00  0.00    +0.120 A 
ATOM     14  C   LIG    1       -2.495  -3.646   0.087  0.00  0.00    +0.046 A 
ATOM     15  C   LIG    1       -1.173  -3.259  -0.010  0.00  0.00    +0.007 A 
BRANCH  13  16
ATOM     16  O   LIG    1       -4.710  -3.617  -0.781  0.00  0.00    -0.495 OA
ATOM     17  C   LIG    1       -5.594  -3.161  -1.807  0.00  0.00    +0.277 C 
ENDBRANCH  13  16
ENDBRANCH   1  10
BRANCH   1  18
ATOM     18  C   LIG    1        0.764  -0.521  -1.282  0.00  0.00    -0.072 C 
BRANCH  18  20
ATOM     19  C   LIG    1        0.331   1.555  -0.113  0.00  0.00    -0.100 C 
ATOM     20  N   LIG    1        0.269   0.089  -0.040  0.00  0.00    +0.378 N 
ATOM     21  H   LIG    1       -0.773  -0.226   0.117  0.00  0.00    -0.086 HD
ATOM     22  H   LIG    1        0.889  -0.263   0.797  0.00  0.00    -0.086 HD
ENDBRANCH  18  20
ENDBRANCH   1  18
TORSDOF 6
