REMARK  Name = ZINC13808118
REMARK                            x       y       z     vdW  Elec       q    Type
REMARK                         _______ _______ _______ _____ _____    ______ ____
ROOT
ATOM      1  S   LIG    1        1.161  -4.310  -0.207  0.00  0.00    +0.103 S 
ATOM      2  O   LIG    1        1.734  -4.611   1.058  0.00  0.00    -0.146 OA
ATOM      3  O   LIG    1        1.906  -4.373  -1.415  0.00  0.00    -0.146 OA
ENDROOT
BRANCH   1   9
ATOM      4  C   LIG    1       -1.027   1.300   0.179  0.00  0.00    +0.044 C 
ATOM      5  C   LIG    1       -0.480  -0.102   0.083  0.00  0.00    -0.050 A 
ATOM      6  C   LIG    1       -0.125  -0.622  -1.148  0.00  0.00    +0.008 A 
ATOM      7  C   LIG    1        0.376  -1.907  -1.236  0.00  0.00    -0.023 A 
ATOM      8  C   LIG    1        0.762  -2.474  -2.578  0.00  0.00    +0.046 C 
ATOM      9  C   LIG    1        0.523  -2.672  -0.094  0.00  0.00    +0.118 A 
ATOM     10  C   LIG    1        0.168  -2.151   1.136  0.00  0.00    -0.023 A 
ATOM     11  C   LIG    1        0.328  -2.985   2.381  0.00  0.00    +0.046 C 
ATOM     12  C   LIG    1       -0.329  -0.865   1.225  0.00  0.00    +0.008 A 
ENDBRANCH   1   9
BRANCH   1  13
ATOM     13  N   LIG    1       -0.132  -5.327  -0.395  0.00  0.00    -0.076 NA
ATOM     14  C   LIG    1        0.059  -6.609  -0.504  0.00  0.00    +0.298 C 
BRANCH  14  15
ATOM     15  N   LIG    1        1.334  -7.119  -0.465  0.00  0.00    -0.312 N 
ATOM     16  H   LIG    1        1.477  -8.075  -0.546  0.00  0.00    +0.147 HD
ATOM     17  H   LIG    1        2.091  -6.524  -0.355  0.00  0.00    +0.147 HD
ENDBRANCH  14  15
BRANCH  14  18
ATOM     18  O   LIG    1       -0.996  -7.439  -0.658  0.00  0.00    -0.468 OA
ATOM     19  C   LIG    1       -2.293  -6.840  -0.691  0.00  0.00    +0.280 C 
ENDBRANCH  14  18
ENDBRANCH   1  13
TORSDOF 4
