REMARK  Name = ZINC72110942
REMARK                            x       y       z     vdW  Elec       q    Type
REMARK                         _______ _______ _______ _____ _____    ______ ____
ROOT
ATOM      1  C   LIG    1       -0.217  -0.888  -3.525  0.00  0.00    +0.224 A 
ATOM      2  N   LIG    1       -0.022  -2.185  -3.295  0.00  0.00    -0.203 NA
ATOM      3  C   LIG    1       -0.005  -3.041  -4.301  0.00  0.00    +0.228 A 
ATOM      4  N   LIG    1       -0.180  -2.615  -5.539  0.00  0.00    -0.203 NA
ATOM      5  C   LIG    1       -0.375  -1.320  -5.778  0.00  0.00    +0.222 A 
ATOM      6  N   LIG    1       -0.399  -0.456  -4.768  0.00  0.00    -0.181 NA
ENDROOT
BRANCH   5   7
ATOM      7  N   LIG    1       -0.558  -0.875  -7.071  0.00  0.00    -0.299 N 
ATOM      8  C   LIG    1       -0.768   0.552  -7.350  0.00  0.00    +0.110 C 
ATOM      9  C   LIG    1       -2.050   0.710  -8.173  0.00  0.00    +0.050 C 
ATOM     10  C   LIG    1       -1.960  -0.168  -9.423  0.00  0.00    +0.122 C 
ATOM     11  C   LIG    1       -1.829  -1.635  -9.010  0.00  0.00    +0.050 C 
ATOM     12  C   LIG    1       -0.539  -1.819  -8.197  0.00  0.00    +0.110 C 
BRANCH  10  13
ATOM     13  O   LIG    1       -3.142   0.002 -10.210  0.00  0.00    -0.372 OA
BRANCH  13  14
ATOM     14  C   LIG    1       -2.936  -0.175 -11.613  0.00  0.00    +0.195 C 
BRANCH  14  15
ATOM     15  C   LIG    1       -4.240   0.026 -12.341  0.00  0.00    -0.022 A 
ATOM     16  C   LIG    1       -5.081  -1.049 -12.558  0.00  0.00    +0.009 A 
ATOM     17  C   LIG    1       -6.277  -0.868 -13.226  0.00  0.00    +0.046 A 
ATOM     18  C   LIG    1       -6.633   0.394 -13.678  0.00  0.00    +0.130 A 
ATOM     19  C   LIG    1       -5.787   1.471 -13.459  0.00  0.00    +0.046 A 
ATOM     20  C   LIG    1       -4.595   1.286 -12.786  0.00  0.00    +0.009 A 
BRANCH  18  21
ATOM     21  O   LIG    1       -7.809   0.575 -14.336  0.00  0.00    -0.406 OA
BRANCH  21  22
ATOM     22  C   LIG    1       -8.111   1.901 -14.773  0.00  0.00    +0.575 C 
ATOM     23  F   LIG    1       -8.163   2.756 -13.666  0.00  0.00    -0.133 F 
ATOM     24  F   LIG    1       -9.348   1.907 -15.426  0.00  0.00    -0.133 F 
ATOM     25  F   LIG    1       -7.116   2.340 -15.653  0.00  0.00    -0.133 F 
ENDBRANCH  21  22
ENDBRANCH  18  21
ENDBRANCH  14  15
ENDBRANCH  13  14
ENDBRANCH  10  13
ENDBRANCH   5   7
BRANCH   1  26
ATOM     26  N   LIG    1       -0.235   0.006  -2.472  0.00  0.00    -0.283 N 
ATOM     27  H   LIG    1       -0.464   0.935  -2.630  0.00  0.00    +0.155 HD
BRANCH  26  30
ATOM     28  C   LIG    1       -1.482   1.318  -0.278  0.00  0.00    +0.047 C 
ATOM     29  C   LIG    1       -0.509   0.184  -0.081  0.00  0.00    -0.008 A 
ATOM     30  C   LIG    1        0.077  -0.428  -1.180  0.00  0.00    +0.038 A 
ATOM     31  C   LIG    1        0.974  -1.473  -0.996  0.00  0.00    +0.024 A 
ATOM     32  C   LIG    1        1.282  -1.903   0.281  0.00  0.00    +0.004 A 
ATOM     33  C   LIG    1        0.700  -1.296   1.377  0.00  0.00    +0.024 A 
ATOM     34  C   LIG    1       -0.194  -0.247   1.199  0.00  0.00    +0.038 A 
BRANCH  34  35
ATOM     35  N   LIG    1       -0.778   0.371   2.310  0.00  0.00    -0.285 N 
ATOM     36  H   LIG    1       -1.042   1.303   2.264  0.00  0.00    +0.155 HD
ATOM     37  C   LIG    1       -0.976  -0.330   3.444  0.00  0.00    +0.214 C 
ATOM     38  C   LIG    1       -1.701   0.303   4.604  0.00  0.00    +0.109 C 
ATOM     39  O   LIG    1       -0.571  -1.470   3.531  0.00  0.00    -0.276 OA
ENDBRANCH  34  35
ENDBRANCH  26  30
ENDBRANCH   1  26
TORSDOF 9
