REMARK  Name = ZINC45303085
REMARK                            x       y       z     vdW  Elec       q    Type
REMARK                         _______ _______ _______ _____ _____    ______ ____
ROOT
ATOM      1  C   LIG    1        2.878  -1.502  -5.062  0.00  0.00    +0.072 A 
ATOM      2  C   LIG    1        4.271  -1.669  -5.026  0.00  0.00    +0.044 A 
ATOM      3  C   LIG    1        4.949  -1.994  -6.194  0.00  0.00    +0.070 A 
ATOM      4  C   LIG    1        4.152  -2.143  -7.413  0.00  0.00    +0.014 A 
ATOM      5  C   LIG    1        4.745  -2.469  -8.638  0.00  0.00    +0.011 A 
ATOM      6  C   LIG    1        3.965  -2.599  -9.749  0.00  0.00    +0.001 A 
ATOM      7  C   LIG    1        2.586  -2.412  -9.680  0.00  0.00    +0.002 A 
ATOM      8  C   LIG    1        1.978  -2.094  -8.505  0.00  0.00    +0.028 A 
ATOM      9  C   LIG    1        2.750  -1.952  -7.336  0.00  0.00    +0.072 A 
ATOM     10  N   LIG    1        2.181  -1.646  -6.169  0.00  0.00    -0.247 NA
ENDROOT
BRANCH   1  14
ATOM     11  C   LIG    1        0.836  -0.512  -1.467  0.00  0.00    +0.088 A 
ATOM     12  C   LIG    1        0.124  -0.668  -2.643  0.00  0.00    +0.027 A 
ATOM     13  C   LIG    1        0.782  -0.990  -3.813  0.00  0.00    +0.012 A 
ATOM     14  C   LIG    1        2.166  -1.156  -3.809  0.00  0.00    +0.000 A 
ATOM     15  C   LIG    1        2.878  -0.998  -2.621  0.00  0.00    +0.012 A 
ATOM     16  C   LIG    1        2.210  -0.671  -1.458  0.00  0.00    +0.027 A 
BRANCH  11  18
ATOM     17  C   LIG    1       -0.035   1.710   0.062  0.00  0.00    +0.200 C 
ATOM     18  S   LIG    1       -0.010  -0.103   0.023  0.00  0.00    -0.006 S 
ATOM     19  O   LIG    1       -1.327  -0.606  -0.158  0.00  0.00    -0.170 OA
ATOM     20  O   LIG    1        0.821  -0.604   1.061  0.00  0.00    -0.170 OA
ENDBRANCH  11  18
ENDBRANCH   1  14
BRANCH   3  21
ATOM     21  C   LIG    1        6.414  -2.179  -6.206  0.00  0.00    +0.338 C 
ATOM     22  O   LIG    1        7.068  -1.943  -5.200  0.00  0.00    -0.245 OA
BRANCH  21  23
ATOM     23  O   LIG    1        6.972  -2.570  -7.221  0.00  0.00    -0.477 OA
ATOM     24  H   LIG    1        6.471  -2.751  -7.991  0.00  0.00    +0.295 HD
ENDBRANCH  21  23
ENDBRANCH   3  21
TORSDOF 4
