REMARK  Name = ZINC16052855
REMARK                            x       y       z     vdW  Elec       q    Type
REMARK                         _______ _______ _______ _____ _____    ______ ____
ROOT
ATOM      1  C   LIG    1        5.723  -0.273  -0.064  0.00  0.00    +0.073 A 
ATOM      2  C   LIG    1        4.337  -0.377  -0.049  0.00  0.00    +0.038 A 
ATOM      3  C   LIG    1        3.572   0.792  -0.033  0.00  0.00    +0.002 A 
ATOM      4  C   LIG    1        4.242   2.023  -0.038  0.00  0.00    +0.029 A 
ATOM      5  C   LIG    1        5.621   2.038  -0.047  0.00  0.00    +0.112 A 
ATOM      6  N   LIG    1        6.313   0.916  -0.062  0.00  0.00    -0.255 NA
ENDROOT
BRANCH   3   7
ATOM      7  C   LIG    1        2.095   0.733  -0.017  0.00  0.00    +0.048 A 
ATOM      8  C   LIG    1        1.344  -0.406  -0.016  0.00  0.00    +0.041 A 
ATOM      9  C   LIG    1        0.002  -0.004   0.002  0.00  0.00    +0.058 A 
ATOM     10  C   LIG    1       -0.017   1.387   0.010  0.00  0.00    +0.030 A 
ATOM     11  C   LIG    1       -1.319   2.146   0.021  0.00  0.00    +0.072 C 
ATOM     12  C   LIG    1       -2.388   1.305  -0.675  0.00  0.00    +0.110 C 
ATOM     13  N   LIG    1       -2.392  -0.084  -0.237  0.00  0.00    -0.311 N 
ATOM     14  H   LIG    1       -3.244  -0.533  -0.120  0.00  0.00    +0.149 HD
ATOM     15  C   LIG    1       -1.254  -0.774   0.015  0.00  0.00    +0.246 C 
ATOM     16  O   LIG    1       -1.268  -1.969   0.240  0.00  0.00    -0.270 OA
ATOM     17  N   LIG    1        1.246   1.818  -0.000  0.00  0.00    -0.357 N 
ATOM     18  H   LIG    1        1.522   2.748   0.004  0.00  0.00    +0.166 HD
ENDBRANCH   3   7
BRANCH   1  25
ATOM     19  C   LIG    1       10.757  -3.782   0.051  0.00  0.00    +0.001 A 
ATOM     20  C   LIG    1       10.083  -4.997  -0.058  0.00  0.00    +0.002 A 
ATOM     21  C   LIG    1        8.725  -5.041  -0.143  0.00  0.00    +0.028 A 
ATOM     22  C   LIG    1        7.984  -3.847  -0.122  0.00  0.00    +0.071 A 
ATOM     23  C   LIG    1        8.672  -2.612  -0.011  0.00  0.00    +0.001 A 
ATOM     24  C   LIG    1        7.934  -1.416   0.004  0.00  0.00    +0.021 A 
ATOM     25  C   LIG    1        6.552  -1.503  -0.080  0.00  0.00    +0.019 A 
ATOM     26  C   LIG    1        5.944  -2.764  -0.187  0.00  0.00    +0.121 A 
ATOM     27  N   LIG    1        6.649  -3.866  -0.205  0.00  0.00    -0.254 NA
ATOM     28  C   LIG    1       10.075  -2.604   0.075  0.00  0.00    +0.010 A 
ENDBRANCH   1  25
TORSDOF 2
