REMARK  Name = ZINC35953488
REMARK                            x       y       z     vdW  Elec       q    Type
REMARK                         _______ _______ _______ _____ _____    ______ ____
ROOT
ATOM      1  N   LIG    1       -2.787  -3.560   0.006  0.00  0.00    +0.395 N 
ATOM      2  H   LIG    1       -3.189  -3.156   0.839  0.00  0.00    -0.079 HD
ATOM      3  C   LIG    1       -3.642  -3.257  -1.151  0.00  0.00    -0.072 C 
ATOM      4  C   LIG    1       -5.093  -3.567  -0.781  0.00  0.00    +0.017 C 
ATOM      5  C   LIG    1       -5.187  -4.958  -0.207  0.00  0.00    -0.044 A 
ATOM      6  C   LIG    1       -6.433  -5.560  -0.130  0.00  0.00    +0.053 A 
ATOM      7  C   LIG    1       -6.562  -6.834   0.395  0.00  0.00    +0.162 A 
ATOM      8  C   LIG    1       -5.433  -7.511   0.846  0.00  0.00    +0.162 A 
ATOM      9  C   LIG    1       -4.192  -6.906   0.765  0.00  0.00    +0.051 A 
ATOM     10  C   LIG    1       -4.067  -5.629   0.237  0.00  0.00    -0.054 A 
ATOM     11  C   LIG    1       -2.694  -5.014   0.162  0.00  0.00    -0.035 C 
ENDROOT
BRANCH   7  12
ATOM     12  O   LIG    1       -7.787  -7.422   0.469  0.00  0.00    -0.491 OA
ATOM     13  C   LIG    1       -8.899  -6.666  -0.013  0.00  0.00    +0.277 C 
ENDBRANCH   7  12
BRANCH   8  14
ATOM     14  O   LIG    1       -5.550  -8.763   1.365  0.00  0.00    -0.491 OA
ATOM     15  C   LIG    1       -4.347  -9.396   1.807  0.00  0.00    +0.277 C 
ENDBRANCH   8  14
BRANCH   1  16
ATOM     16  C   LIG    1       -1.446  -3.002  -0.213  0.00  0.00    +0.051 C 
BRANCH  16  17
ATOM     17  C   LIG    1       -0.645  -3.105   1.059  0.00  0.00    -0.052 A 
ATOM     18  C   LIG    1       -1.130  -2.548   2.228  0.00  0.00    +0.002 A 
ATOM     19  C   LIG    1       -0.395  -2.643   3.395  0.00  0.00    +0.000 A 
ATOM     20  C   LIG    1        0.824  -3.294   3.394  0.00  0.00    +0.000 A 
ATOM     21  C   LIG    1        1.308  -3.851   2.225  0.00  0.00    +0.000 A 
ATOM     22  C   LIG    1        0.572  -3.760   1.059  0.00  0.00    +0.002 A 
ENDBRANCH  16  17
BRANCH  16  26
ATOM     23  C   LIG    1       -0.569   0.573  -1.264  0.00  0.00    +0.128 C 
ATOM     24  N   LIG    1       -0.455  -0.834  -0.872  0.00  0.00    -0.319 N 
ATOM     25  H   LIG    1        0.420  -1.246  -0.795  0.00  0.00    +0.148 HD
ATOM     26  C   LIG    1       -1.564  -1.555  -0.617  0.00  0.00    +0.204 C 
ATOM     27  O   LIG    1       -2.658  -1.039  -0.713  0.00  0.00    -0.277 OA
ENDBRANCH  16  26
ENDBRANCH   1  16
BRANCH  11  28
ATOM     28  C   LIG    1       -1.927  -5.336   1.446  0.00  0.00    -0.006 C 
BRANCH  28  29
ATOM     29  C   LIG    1       -1.145  -6.638   1.261  0.00  0.00    +0.034 C 
BRANCH  29  30
ATOM     30  C   LIG    1       -0.433  -6.984   2.543  0.00  0.00    -0.047 A 
ATOM     31  C   LIG    1        0.899  -6.651   2.705  0.00  0.00    +0.004 A 
ATOM     32  C   LIG    1        1.552  -6.968   3.882  0.00  0.00    +0.012 A 
ATOM     33  C   LIG    1        0.873  -7.617   4.896  0.00  0.00    +0.055 A 
ATOM     34  C   LIG    1       -0.460  -7.948   4.734  0.00  0.00    +0.012 A 
ATOM     35  C   LIG    1       -1.114  -7.628   3.560  0.00  0.00    +0.004 A 
BRANCH  33  36
ATOM     36  C   LIG    1        1.585  -7.963   6.178  0.00  0.00    +0.417 C 
ATOM     37  F   LIG    1        2.940  -8.186   5.914  0.00  0.00    -0.166 F 
ATOM     38  F   LIG    1        1.021  -9.120   6.727  0.00  0.00    -0.166 F 
ATOM     39  F   LIG    1        1.454  -6.906   7.085  0.00  0.00    -0.166 F 
ENDBRANCH  33  36
ENDBRANCH  29  30
ENDBRANCH  28  29
ENDBRANCH  11  28
TORSDOF 9
