REMARK  Name = ZINC00004220
REMARK                            x       y       z     vdW  Elec       q    Type
REMARK                         _______ _______ _______ _____ _____    ______ ____
ROOT
ATOM      1  N   LIG    1       -0.698   1.558   1.213  0.00  0.00    -0.302 N 
ATOM      2  C   LIG    1       -1.301   0.639   2.072  0.00  0.00    +0.069 A 
ATOM      3  C   LIG    1       -1.237  -0.719   1.782  0.00  0.00    +0.028 A 
ATOM      4  C   LIG    1       -1.826  -1.635   2.629  0.00  0.00    +0.002 A 
ATOM      5  C   LIG    1       -2.479  -1.209   3.773  0.00  0.00    +0.002 A 
ATOM      6  C   LIG    1       -2.544   0.137   4.073  0.00  0.00    +0.028 A 
ATOM      7  C   LIG    1       -1.955   1.067   3.228  0.00  0.00    +0.072 A 
ATOM      8  N   LIG    1       -2.022   2.428   3.533  0.00  0.00    -0.294 N 
ATOM      9  C   LIG    1       -2.572   3.121   4.547  0.00  0.00    +0.179 A 
ATOM     10  N   LIG    1       -2.358   4.400   4.374  0.00  0.00    -0.342 N 
ATOM     11  H   LIG    1       -2.675   5.144   5.007  0.00  0.00    +0.167 HD
ATOM     12  C   LIG    1       -1.660   4.591   3.242  0.00  0.00    +0.118 A 
ATOM     13  C   LIG    1       -1.433   3.344   2.686  0.00  0.00    +0.140 A 
ATOM     14  C   LIG    1       -0.747   2.879   1.482  0.00  0.00    +0.278 A 
ATOM     15  O   LIG    1       -0.224   3.678   0.727  0.00  0.00    -0.265 OA
ENDROOT
BRANCH  12  16
ATOM     16  C   LIG    1       -1.217   5.894   2.692  0.00  0.00    +0.221 A 
ATOM     17  N   LIG    1       -1.444   7.113   3.233  0.00  0.00    -0.190 NA
ATOM     18  C   LIG    1       -0.875   7.970   2.421  0.00  0.00    +0.231 A 
ATOM     19  O   LIG    1       -0.335   7.266   1.421  0.00  0.00    -0.337 OA
ATOM     20  N   LIG    1       -0.537   6.082   1.590  0.00  0.00    -0.054 NA
BRANCH  18  21
ATOM     21  C   LIG    1       -0.843   9.468   2.580  0.00  0.00    +0.078 C 
ATOM     22  C   LIG    1       -0.305  10.291   1.408  0.00  0.00    +0.014 C 
ATOM     23  C   LIG    1        0.529  10.138   2.682  0.00  0.00    +0.014 C 
ENDBRANCH  18  21
ENDBRANCH  12  16
BRANCH   1  25
ATOM     24  C   LIG    1        1.456   1.511   0.057  0.00  0.00    +0.030 C 
ATOM     25  C   LIG    1       -0.013   1.086   0.008  0.00  0.00    +0.085 C 
ATOM     26  C   LIG    1       -0.678   1.693  -1.228  0.00  0.00    +0.030 C 
ENDBRANCH   1  25
TORSDOF 3
