REMARK  Name = ZINC16052235
REMARK                            x       y       z     vdW  Elec       q    Type
REMARK                         _______ _______ _______ _____ _____    ______ ____
ROOT
ATOM      1  C   LIG    1        0.114  -3.128  -2.887  0.00  0.00    +0.136 A 
ATOM      2  C   LIG    1       -0.173  -4.252  -3.702  0.00  0.00    +0.041 A 
ATOM      3  C   LIG    1       -0.169  -5.556  -3.196  0.00  0.00    +0.013 A 
ATOM      4  C   LIG    1       -0.454  -6.601  -4.026  0.00  0.00    +0.001 A 
ATOM      5  C   LIG    1       -0.747  -6.387  -5.370  0.00  0.00    +0.002 A 
ATOM      6  C   LIG    1       -0.759  -5.129  -5.894  0.00  0.00    +0.028 A 
ATOM      7  C   LIG    1       -0.472  -4.032  -5.069  0.00  0.00    +0.077 A 
ATOM      8  N   LIG    1       -0.472  -2.776  -5.536  0.00  0.00    -0.227 NA
ATOM      9  C   LIG    1       -0.197  -1.764  -4.733  0.00  0.00    +0.162 A 
ATOM     10  N   LIG    1        0.084  -1.926  -3.442  0.00  0.00    -0.212 NA
ENDROOT
BRANCH   9  11
ATOM     11  C   LIG    1       -0.207  -0.391  -5.292  0.00  0.00    +0.019 A 
ATOM     12  C   LIG    1        0.004   0.705  -4.458  0.00  0.00    +0.011 A 
ATOM     13  C   LIG    1       -0.006   1.981  -4.983  0.00  0.00    +0.001 A 
ATOM     14  C   LIG    1       -0.226   2.174  -6.335  0.00  0.00    +0.000 A 
ATOM     15  C   LIG    1       -0.437   1.089  -7.168  0.00  0.00    +0.001 A 
ATOM     16  C   LIG    1       -0.423  -0.192  -6.655  0.00  0.00    +0.011 A 
ENDBRANCH   9  11
BRANCH   1  17
ATOM     17  N   LIG    1        0.412  -3.283  -1.549  0.00  0.00    -0.282 N 
ATOM     18  H   LIG    1        0.348  -4.158  -1.136  0.00  0.00    +0.155 HD
BRANCH  17  22
ATOM     19  C   LIG    1        1.743   1.365  -0.291  0.00  0.00    +0.065 C 
ATOM     20  C   LIG    1        1.401  -0.102  -0.230  0.00  0.00    +0.035 A 
ATOM     21  C   LIG    1        1.038  -0.879  -1.275  0.00  0.00    +0.068 A 
ATOM     22  C   LIG    1        0.807  -2.176  -0.787  0.00  0.00    +0.146 A 
ATOM     23  N   LIG    1        1.026  -2.169   0.506  0.00  0.00    -0.158 NA
ATOM     24  N   LIG    1        1.407  -0.873   0.878  0.00  0.00    -0.280 N 
ATOM     25  H   LIG    1        1.633  -0.581   1.775  0.00  0.00    +0.189 HD
ENDBRANCH  17  22
ENDBRANCH   1  17
TORSDOF 3
