REMARK  Name = ZINC38494609
REMARK                            x       y       z     vdW  Elec       q    Type
REMARK                         _______ _______ _______ _____ _____    ______ ____
ROOT
ATOM      1  C   LIG    1        2.646  -0.421  -2.547  0.00  0.00    -0.023 A 
ATOM      2  C   LIG    1        3.298  -1.639  -2.500  0.00  0.00    +0.007 A 
ATOM      3  C   LIG    1        3.988  -2.099  -3.604  0.00  0.00    +0.023 A 
ATOM      4  C   LIG    1        4.029  -1.337  -4.766  0.00  0.00    +0.031 A 
ATOM      5  C   LIG    1        3.374  -0.114  -4.815  0.00  0.00    +0.068 A 
ATOM      6  C   LIG    1        2.678   0.341  -3.706  0.00  0.00    +0.120 A 
ENDROOT
BRANCH   4   7
ATOM      7  N   LIG    1        4.727  -1.802  -5.883  0.00  0.00    -0.341 N 
ATOM      8  H   LIG    1        4.669  -2.736  -6.137  0.00  0.00    +0.146 HD
BRANCH   7   9
ATOM      9  C   LIG    1        5.504  -0.928  -6.628  0.00  0.00    +0.076 C 
ATOM     10  C   LIG    1        5.728   0.372  -6.201  0.00  0.00    +0.037 C 
ATOM     11  C   LIG    1        6.511   1.223  -6.968  0.00  0.00    +0.083 C 
ATOM     12  N   LIG    1        7.053   0.835  -8.099  0.00  0.00    -0.313 NA
ATOM     13  H   LIG    1        7.593   1.462  -8.605  0.00  0.00    +0.122 HD
ATOM     14  C   LIG    1        6.878  -0.404  -8.573  0.00  0.00    +0.060 C 
ATOM     15  C   LIG    1        7.465  -0.804  -9.786  0.00  0.00    +0.038 C 
ATOM     16  C   LIG    1        7.285  -2.077 -10.236  0.00  0.00    +0.082 C 
ATOM     17 CL   LIG    1        8.018  -2.567 -11.732  0.00  0.00    -0.122 Cl
ATOM     18  C   LIG    1        6.511  -2.990  -9.521  0.00  0.00    +0.020 C 
ATOM     19  C   LIG    1        5.923  -2.634  -8.344  0.00  0.00    +0.008 C 
ATOM     20  C   LIG    1        6.098  -1.336  -7.846  0.00  0.00    +0.026 C 
ENDBRANCH   7   9
ENDBRANCH   4   7
BRANCH   6  21
ATOM     21  O   LIG    1        2.031   1.536  -3.753  0.00  0.00    -0.507 OA
ATOM     22  H   LIG    1        2.574   2.288  -3.479  0.00  0.00    +0.292 HD
ENDBRANCH   6  21
BRANCH   1  23
ATOM     23  C   LIG    1        1.894   0.077  -1.339  0.00  0.00    -0.042 C 
BRANCH  23  24
ATOM     24  N   LIG    1        0.460  -0.190  -1.511  0.00  0.00    +0.385 N 
ATOM     25  H   LIG    1        0.126   0.286  -2.335  0.00  0.00    -0.085 HD
ATOM     26  H   LIG    1        0.312  -1.183  -1.613  0.00  0.00    -0.085 HD
BRANCH  24  28
ATOM     27  C   LIG    1       -0.049   1.802  -0.180  0.00  0.00    -0.011 C 
ATOM     28  C   LIG    1       -0.273   0.296  -0.334  0.00  0.00    -0.077 C 
ATOM     29  C   LIG    1       -1.767   0.018  -0.513  0.00  0.00    -0.011 C 
ATOM     30  C   LIG    1        0.234  -0.426   0.916  0.00  0.00    -0.011 C 
ENDBRANCH  24  28
ENDBRANCH  23  24
ENDBRANCH   1  23
TORSDOF 6
