REMARK  Name = ZINC19909116
REMARK                            x       y       z     vdW  Elec       q    Type
REMARK                         _______ _______ _______ _____ _____    ______ ____
ROOT
ATOM      1  N   LIG    1       -1.137   5.818   0.933  0.00  0.00    +0.386 N 
ATOM      2  H   LIG    1       -1.217   5.133   1.790  0.00  0.00    -0.085 HD
ATOM      3  H   LIG    1       -2.094   5.842   0.392  0.00  0.00    -0.085 HD
ENDROOT
BRANCH   1   5
ATOM      4  C   LIG    1       -0.348   5.863  -1.385  0.00  0.00    -0.009 C 
ATOM      5  C   LIG    1       -0.076   5.351   0.030  0.00  0.00    -0.044 C 
BRANCH   5   6
ATOM      6  C   LIG    1       -0.051   3.844   0.022  0.00  0.00    -0.058 A 
ATOM      7  C   LIG    1       -1.237   3.133   0.030  0.00  0.00    +0.002 A 
ATOM      8  C   LIG    1       -1.218   1.751   0.017  0.00  0.00    +0.004 A 
ATOM      9  C   LIG    1       -0.013   1.076   0.008  0.00  0.00    +0.045 A 
ATOM     10  C   LIG    1        1.179   1.786   0.000  0.00  0.00    +0.120 A 
ATOM     11  C   LIG    1        1.157   3.174   0.008  0.00  0.00    +0.047 A 
BRANCH  10  12
ATOM     12  O   LIG    1        2.366   1.125  -0.014  0.00  0.00    -0.495 OA
ATOM     13  C   LIG    1        2.312  -0.303  -0.020  0.00  0.00    +0.277 C 
ENDBRANCH  10  12
ENDBRANCH   5   6
ENDBRANCH   1   5
BRANCH   1  14
ATOM     14  C   LIG    1       -0.844   7.168   1.433  0.00  0.00    -0.046 C 
BRANCH  14  15
ATOM     15  C   LIG    1       -1.952   7.613   2.354  0.00  0.00    -0.064 A 
ATOM     16  C   LIG    1       -3.041   8.294   1.844  0.00  0.00    +0.005 A 
ATOM     17  C   LIG    1       -4.060   8.698   2.684  0.00  0.00    +0.046 A 
ATOM     18  C   LIG    1       -3.984   8.429   4.043  0.00  0.00    +0.120 A 
ATOM     19  C   LIG    1       -2.887   7.750   4.554  0.00  0.00    +0.046 A 
ATOM     20  C   LIG    1       -1.873   7.344   3.708  0.00  0.00    +0.005 A 
BRANCH  18  21
ATOM     21  O   LIG    1       -4.983   8.830   4.873  0.00  0.00    -0.495 OA
ATOM     22  C   LIG    1       -6.082   9.524   4.279  0.00  0.00    +0.277 C 
ENDBRANCH  18  21
ENDBRANCH  14  15
ENDBRANCH   1  14
TORSDOF 6
