REMARK  Name = ZINC43277624
REMARK                            x       y       z     vdW  Elec       q    Type
REMARK                         _______ _______ _______ _____ _____    ______ ____
ROOT
ATOM      1  C   LIG    1        0.809  -1.266  -1.069  0.00  0.00    +0.144 A 
ATOM      2  C   LIG    1        1.599  -0.514  -1.922  0.00  0.00    +0.070 A 
ATOM      3  C   LIG    1        2.482  -1.146  -2.788  0.00  0.00    +0.035 A 
ATOM      4  C   LIG    1        2.572  -2.532  -2.798  0.00  0.00    +0.025 A 
ATOM      5  C   LIG    1        1.784  -3.284  -1.948  0.00  0.00    +0.030 A 
ATOM      6  C   LIG    1        0.906  -2.656  -1.078  0.00  0.00    +0.090 A 
ENDROOT
BRANCH   1   8
ATOM      7  C   LIG    1       -0.103   0.778  -0.266  0.00  0.00    +0.277 C 
ATOM      8  O   LIG    1       -0.056  -0.649  -0.220  0.00  0.00    -0.493 OA
ENDBRANCH   1   8
BRANCH   3   9
ATOM      9  N   LIG    1        3.280  -0.386  -3.650  0.00  0.00    -0.314 N 
ATOM     10  H   LIG    1        3.521   0.524  -3.413  0.00  0.00    +0.152 HD
BRANCH   9  11
ATOM     11  C   LIG    1        3.732  -0.937  -4.852  0.00  0.00    +0.031 A 
ATOM     12  C   LIG    1        2.963  -1.887  -5.514  0.00  0.00    +0.023 A 
ATOM     13  C   LIG    1        3.412  -2.430  -6.702  0.00  0.00    +0.002 A 
ATOM     14  C   LIG    1        4.625  -2.030  -7.232  0.00  0.00    +0.000 A 
ATOM     15  C   LIG    1        5.393  -1.085  -6.575  0.00  0.00    +0.002 A 
ATOM     16  C   LIG    1        4.947  -0.533  -5.390  0.00  0.00    +0.023 A 
ENDBRANCH   9  11
ENDBRANCH   3   9
BRANCH   6  17
ATOM     17  N   LIG    1        0.111  -3.420  -0.211  0.00  0.00    -0.213 N 
ATOM     18  H   LIG    1       -0.791  -3.131   0.002  0.00  0.00    +0.174 HD
BRANCH  17  19
ATOM     19  S   LIG    1        0.711  -4.815   0.450  0.00  0.00    +0.074 S 
ATOM     20  O   LIG    1        1.162  -5.616  -0.634  0.00  0.00    -0.150 OA
ATOM     21  O   LIG    1       -0.258  -5.272   1.383  0.00  0.00    -0.150 OA
BRANCH  19  22
ATOM     22  C   LIG    1        2.141  -4.377   1.381  0.00  0.00    +0.130 A 
ATOM     23  C   LIG    1        3.397  -4.818   1.042  0.00  0.00    +0.037 A 
ATOM     24  C   LIG    1        4.455  -4.442   1.803  0.00  0.00    +0.048 A 
ATOM     25  S   LIG    1        3.779  -3.480   3.003  0.00  0.00    -0.088 S 
ATOM     26  C   LIG    1        2.071  -3.561   2.501  0.00  0.00    +0.123 A 
BRANCH  26  27
ATOM     27  C   LIG    1        0.898  -2.932   3.113  0.00  0.00    +0.348 C 
ATOM     28  O   LIG    1       -0.211  -3.151   2.666  0.00  0.00    -0.244 OA
BRANCH  27  29
ATOM     29  O   LIG    1        1.050  -2.110   4.171  0.00  0.00    -0.464 OA
ATOM     30  C   LIG    1       -0.143  -1.620   4.788  0.00  0.00    +0.280 C 
ENDBRANCH  27  29
ENDBRANCH  26  27
ENDBRANCH  19  22
ENDBRANCH  17  19
ENDBRANCH   6  17
TORSDOF 8
