REMARK  Name = ZINC18007371
REMARK                            x       y       z     vdW  Elec       q    Type
REMARK                         _______ _______ _______ _____ _____    ______ ____
ROOT
ATOM      1  C   LIG    1       -1.263  -0.762   0.010  0.00  0.00    +0.138 C 
ATOM      2  N   LIG    1       -1.242  -2.060   0.003  0.00  0.00    -0.188 NA
ENDROOT
BRANCH   1   8
ATOM      3  C   LIG    1       -0.017   1.393   0.010  0.00  0.00    +0.012 A 
ATOM      4  C   LIG    1        1.170   2.095   0.002  0.00  0.00    +0.033 A 
ATOM      5  C   LIG    1        2.378   1.420  -0.013  0.00  0.00    +0.122 A 
ATOM      6  C   LIG    1        2.404   0.036  -0.021  0.00  0.00    +0.033 A 
ATOM      7  C   LIG    1        1.225  -0.679  -0.013  0.00  0.00    +0.012 A 
ATOM      8  C   LIG    1        0.002  -0.004   0.002  0.00  0.00    -0.005 A 
BRANCH   5   9
ATOM      9  N   LIG    1        3.647   2.181  -0.022  0.00  0.00    +0.006 N 
ATOM     10  O   LIG    1        3.628   3.389  -0.016  0.00  0.00    -0.130 OA
BRANCH   9  11
ATOM     11  O   LIG    1        4.704   1.593  -0.036  0.00  0.00    -0.396 OA
ATOM     12  H   LIG    1        4.719   0.657  -0.041  0.00  0.00    +0.329 HD
ENDBRANCH   9  11
ENDBRANCH   5   9
ENDBRANCH   1   8
BRANCH   2  13
ATOM     13  N   LIG    1       -2.443  -2.780   0.011  0.00  0.00    -0.219 N 
ATOM     14  H   LIG    1       -3.291  -2.309   0.021  0.00  0.00    +0.176 HD
BRANCH  13  15
ATOM     15  C   LIG    1       -2.421  -4.145   0.003  0.00  0.00    +0.146 C 
ATOM     16  N   LIG    1       -3.451  -4.982   0.003  0.00  0.00    -0.267 N 
ATOM     17  H   LIG    1       -4.343  -4.600   0.009  0.00  0.00    +0.157 HD
ATOM     18  C   LIG    1       -3.346  -6.282  -0.004  0.00  0.00    +0.229 C 
ATOM     19  C   LIG    1       -1.920  -6.821  -0.013  0.00  0.00    +0.173 C 
ATOM     20  O   LIG    1       -4.317  -7.013  -0.004  0.00  0.00    -0.275 OA
ATOM     21  S   LIG    1       -0.998  -5.226  -0.017  0.00  0.00    -0.084 S 
ENDBRANCH  13  15
ENDBRANCH   2  13
TORSDOF 5
