REMARK  Name = ZINC29210891
REMARK                            x       y       z     vdW  Elec       q    Type
REMARK                         _______ _______ _______ _____ _____    ______ ____
ROOT
ATOM      1  C   LIG    1       -1.271   3.144   0.008  0.00  0.00    +0.060 A 
ATOM      2  C   LIG    1       -0.550   2.864   1.192  0.00  0.00    +0.026 A 
ATOM      3  C   LIG    1       -1.022   3.287   2.443  0.00  0.00    +0.061 A 
ATOM      4  C   LIG    1       -0.306   3.004   3.570  0.00  0.00    +0.162 A 
ATOM      5  C   LIG    1        0.899   2.292   3.490  0.00  0.00    +0.164 A 
ATOM      6  C   LIG    1        1.384   1.865   2.275  0.00  0.00    +0.077 A 
ATOM      7  C   LIG    1        0.666   2.145   1.101  0.00  0.00    +0.077 A 
ATOM      8  N   LIG    1        1.123   1.738  -0.092  0.00  0.00    -0.253 NA
ATOM      9  C   LIG    1        0.477   1.983  -1.203  0.00  0.00    +0.132 A 
ATOM     10  C   LIG    1       -0.734   2.695  -1.208  0.00  0.00    +0.091 A 
ENDROOT
BRANCH   1  11
ATOM     11  N   LIG    1       -2.461   3.842   0.047  0.00  0.00    -0.313 N 
ATOM     12  H   LIG    1       -2.464   4.933  -0.095  0.00  0.00    +0.152 HD
BRANCH  11  16
ATOM     13  C   LIG    1       -6.045   1.816   0.698  0.00  0.00    +0.120 A 
ATOM     14  C   LIG    1       -6.060   3.169   0.394  0.00  0.00    +0.047 A 
ATOM     15  C   LIG    1       -4.873   3.841   0.178  0.00  0.00    +0.027 A 
ATOM     16  C   LIG    1       -3.665   3.162   0.265  0.00  0.00    +0.032 A 
ATOM     17  C   LIG    1       -3.652   1.805   0.565  0.00  0.00    +0.027 A 
ATOM     18  C   LIG    1       -4.839   1.136   0.785  0.00  0.00    +0.047 A 
BRANCH  13  20
ATOM     19  C   LIG    1       -7.126  -0.238   1.219  0.00  0.00    +0.277 C 
ATOM     20  O   LIG    1       -7.215   1.155   0.910  0.00  0.00    -0.495 OA
ENDBRANCH  13  20
ENDBRANCH  11  16
ENDBRANCH   1  11
BRANCH   4  21
ATOM     21  O   LIG    1       -0.765   3.416   4.782  0.00  0.00    -0.491 OA
ATOM     22  C   LIG    1       -1.999   4.137   4.796  0.00  0.00    +0.277 C 
ENDBRANCH   4  21
BRANCH   5  23
ATOM     23  O   LIG    1        1.596   2.021   4.624  0.00  0.00    -0.491 OA
ATOM     24  C   LIG    1        2.817   1.292   4.477  0.00  0.00    +0.277 C 
ENDBRANCH   5  23
BRANCH  10  25
ATOM     25  C   LIG    1       -1.416   2.954  -2.440  0.00  0.00    +0.103 C 
ATOM     26  N   LIG    1       -1.957   3.159  -3.418  0.00  0.00    -0.191 NA
ENDBRANCH  10  25
TORSDOF 6
