REMARK  Name = ZINC34016620
REMARK                            x       y       z     vdW  Elec       q    Type
REMARK                         _______ _______ _______ _____ _____    ______ ____
ROOT
ATOM      1  CA  LIG    1       -3.877  -0.566  -2.596  0.00  0.00    +0.145 C 
ENDROOT
BRANCH   1   2
ATOM      2  C   LIG    1       -5.364  -0.643  -2.362  0.00  0.00    +0.231 C 
ATOM      3  N   LIG    1       -6.219  -0.284  -3.340  0.00  0.00    -0.301 N 
ATOM      4  H   LIG    1       -5.878   0.023  -4.194  0.00  0.00    +0.150 HD
ATOM      5  O   LIG    1       -5.790  -1.027  -1.294  0.00  0.00    -0.274 OA
BRANCH   3   6
ATOM      6  CA  LIG    1       -7.664  -0.359  -3.112  0.00  0.00    +0.182 C 
BRANCH   6   7
ATOM      7  C   LIG    1       -8.147  -1.757  -3.401  0.00  0.00    +0.325 C 
ATOM      8  O   LIG    1       -9.109  -2.206  -2.802  0.00  0.00    -0.249 OA
BRANCH   7   9
ATOM      9  OXT LIG    1       -7.575  -2.439  -4.234  0.00  0.00    -0.479 OA
ATOM     10  HXT LIG    1       -6.835  -2.094  -4.695  0.00  0.00    +0.295 HD
ENDBRANCH   7   9
ENDBRANCH   6   7
BRANCH   6  11
ATOM     11  CB  LIG    1       -8.378   0.629  -4.038  0.00  0.00    +0.044 C 
BRANCH  11  12
ATOM     12  CG  LIG    1       -7.982   2.058  -3.662  0.00  0.00    +0.071 C 
BRANCH  12  13
ATOM     13  SD  LIG    1       -8.829   3.228  -4.759  0.00  0.00    -0.164 S 
ATOM     14  CE  LIG    1       -8.260   4.854  -4.189  0.00  0.00    +0.084 C 
ENDBRANCH  12  13
ENDBRANCH  11  12
ENDBRANCH   6  11
ENDBRANCH   3   6
ENDBRANCH   1   2
BRANCH   1  15
ATOM     15  N   LIG    1       -3.167  -1.007  -1.388  0.00  0.00    -0.307 NA
ATOM     16  H   LIG    1       -2.812  -1.945  -1.500  0.00  0.00    +0.123 HD
BRANCH  15  17
ATOM     17  C   ACE A  0       -2.088  -0.073  -1.041  0.00  0.00    +0.066 C 
BRANCH  17  18
ATOM     18  C   LIG    1       -1.473  -0.480   0.300  0.00  0.00    -0.055 C 
BRANCH  18  20
ATOM     19  C   LIG    1        0.770   0.264  -0.510  0.00  0.00    +0.005 C 
ATOM     20  C   LIG    1       -0.270   0.415   0.602  0.00  0.00    -0.030 C 
ATOM     21  C   LIG    1       -0.726   1.874   0.679  0.00  0.00    +0.005 C 
ENDBRANCH  18  20
BRANCH  18  22
ATOM     22  N   LIG    1       -1.037  -1.881   0.234  0.00  0.00    +0.383 N 
ATOM     23  H   LIG    1       -0.288  -1.969  -0.437  0.00  0.00    -0.085 HD
ATOM     24  H   LIG    1       -1.812  -2.462  -0.049  0.00  0.00    -0.085 HD
BRANCH  22  25
ATOM     25  C   LIG    1       -0.562  -2.309   1.556  0.00  0.00    -0.063 C 
BRANCH  25  26
ATOM     26  C   LIG    1       -0.104  -3.767   1.486  0.00  0.00    +0.043 C 
BRANCH  26  27
ATOM     27  N   LIG    1        0.903  -3.913   0.427  0.00  0.00    -0.328 NA
ATOM     28  H   LIG    1        1.175  -4.879   0.317  0.00  0.00    +0.118 HD
ATOM     29  H   LIG    1        1.706  -3.330   0.608  0.00  0.00    +0.118 HD
ENDBRANCH  26  27
BRANCH  26  30
ATOM     30  C   LIG    1        0.506  -4.175   2.829  0.00  0.00    +0.082 C 
BRANCH  30  31
ATOM     31  S   LIG    1        1.050  -5.904   2.746  0.00  0.00    -0.177 S 
ATOM     32  H   LIG    1        1.560  -6.143   3.967  0.00  0.00    +0.102 HD
ENDBRANCH  30  31
ENDBRANCH  26  30
ENDBRANCH  25  26
ENDBRANCH  22  25
ENDBRANCH  18  22
ENDBRANCH  17  18
ENDBRANCH  15  17
ENDBRANCH   1  15
BRANCH   1  33
ATOM     33  CB  LIG    1       -3.498  -1.472  -3.770  0.00  0.00    +0.063 C 
BRANCH  33  34
ATOM     34  CG  LIG    1       -2.028  -1.323  -4.065  0.00  0.00    -0.045 A 
ATOM     35  CD2 LIG    1       -1.584  -0.282  -4.859  0.00  0.00    +0.004 A 
ATOM     36  CE2 LIG    1       -0.236  -0.145  -5.130  0.00  0.00    +0.000 A 
ATOM     37  CZ  LIG    1        0.670  -1.049  -4.607  0.00  0.00    +0.000 A 
ATOM     38  CE1 LIG    1        0.226  -2.090  -3.812  0.00  0.00    +0.000 A 
ATOM     39  CD1 LIG    1       -1.122  -2.224  -3.538  0.00  0.00    +0.004 A 
ENDBRANCH  33  34
ENDBRANCH   1  33
TORSDOF 19
