REMARK  Name = ZINC28824588
REMARK                            x       y       z     vdW  Elec       q    Type
REMARK                         _______ _______ _______ _____ _____    ______ ____
ROOT
ATOM      1  C   LIG    1       -0.078   5.328   0.032  0.00  0.00    +0.141 A 
ATOM      2  N   LIG    1       -1.212   6.096   0.041  0.00  0.00    -0.208 NA
ATOM      3  C   LIG    1       -0.814   7.416   0.050  0.00  0.00    +0.178 A 
ATOM      4  N   LIG    1       -1.468   8.566   0.066  0.00  0.00    -0.234 NA
ATOM      5  C   LIG    1       -0.834   9.721   0.070  0.00  0.00    +0.113 A 
ATOM      6  C   LIG    1        0.551   9.784   0.058  0.00  0.00    +0.022 A 
ATOM      7  C   LIG    1        1.286   8.614   0.036  0.00  0.00    +0.031 A 
ATOM      8  C   LIG    1        0.593   7.398   0.036  0.00  0.00    +0.086 A 
ATOM      9  N   LIG    1        0.981   6.101   0.026  0.00  0.00    -0.337 N 
ATOM     10  H   LIG    1        2.051   5.846   0.014  0.00  0.00    +0.167 HD
ENDROOT
BRANCH   1  15
ATOM     11  C   LIG    1        1.183   1.785   0.011  0.00  0.00    +0.030 A 
ATOM     12  C   LIG    1       -0.013   1.076   0.024  0.00  0.00    +0.023 A 
ATOM     13  C   LIG    1       -1.220   1.748   0.034  0.00  0.00    +0.002 A 
ATOM     14  C   LIG    1       -1.246   3.128   0.042  0.00  0.00    +0.011 A 
ATOM     15  C   LIG    1       -0.052   3.849   0.029  0.00  0.00    +0.019 A 
ATOM     16  C   LIG    1        1.167   3.171   0.013  0.00  0.00    +0.034 A 
BRANCH  11  18
ATOM     17  C   LIG    1        2.418  -0.364  -0.009  0.00  0.00    +0.129 C 
ATOM     18  N   LIG    1        2.401   1.101  -0.006  0.00  0.00    -0.336 N 
ATOM     19  C   LIG    1        3.661   1.848  -0.020  0.00  0.00    +0.129 C 
ENDBRANCH  11  18
ENDBRANCH   1  15
TORSDOF 2
