REMARK  Name = ZINC34093119
REMARK                            x       y       z     vdW  Elec       q    Type
REMARK                         _______ _______ _______ _____ _____    ______ ____
ROOT
ATOM      1  C   LIG    1        0.110   0.304  -0.328  0.00  0.00    +0.115 C 
ATOM      2  C   LIG    1       -0.731   0.475   0.942  0.00  0.00    +0.021 C 
ATOM      3  C   LIG    1       -1.008   1.964   1.159  0.00  0.00    -0.035 C 
ATOM      4  C   LIG    1       -1.868   2.155   2.379  0.00  0.00    -0.054 A 
ATOM      5  C   LIG    1       -2.903   1.260   2.608  0.00  0.00    +0.051 A 
ATOM      6  C   LIG    1       -3.720   1.403   3.716  0.00  0.00    +0.162 A 
ATOM      7  C   LIG    1       -3.500   2.452   4.604  0.00  0.00    +0.162 A 
ATOM      8  C   LIG    1       -2.466   3.341   4.372  0.00  0.00    +0.053 A 
ATOM      9  C   LIG    1       -1.649   3.192   3.262  0.00  0.00    -0.044 A 
ATOM     10  C   LIG    1       -0.528   4.178   3.054  0.00  0.00    +0.017 C 
ATOM     11  C   LIG    1       -0.018   4.092   1.615  0.00  0.00    -0.073 C 
ATOM     12  N   LIG    1        0.259   2.682   1.313  0.00  0.00    +0.385 N 
ATOM     13  H   LIG    1        0.788   2.269   2.066  0.00  0.00    -0.081 HD
ATOM     14  C   LIG    1        1.036   2.591   0.072  0.00  0.00    -0.072 C 
ATOM     15  C   LIG    1        1.395   1.127  -0.196  0.00  0.00    +0.001 C 
ENDROOT
BRANCH   1  16
ATOM     16  O   LIG    1       -0.634   0.759  -1.459  0.00  0.00    -0.392 OA
ATOM     17  H   LIG    1       -1.463   0.282  -1.602  0.00  0.00    +0.210 HD
ENDBRANCH   1  16
BRANCH   6  18
ATOM     18  O   LIG    1       -4.733   0.523   3.935  0.00  0.00    -0.491 OA
ATOM     19  C   LIG    1       -4.898  -0.527   2.980  0.00  0.00    +0.277 C 
ENDBRANCH   6  18
BRANCH   7  20
ATOM     20  O   LIG    1       -4.299   2.602   5.695  0.00  0.00    -0.491 OA
ATOM     21  C   LIG    1       -4.013   3.702   6.562  0.00  0.00    +0.277 C 
ENDBRANCH   7  20
BRANCH  15  22
ATOM     22  C   LIG    1        2.199   1.029  -1.494  0.00  0.00    +0.007 C 
BRANCH  22  23
ATOM     23  C   LIG    1        3.548   1.727  -1.313  0.00  0.00    -0.017 C 
ATOM     24  C   LIG    1        4.293   1.751  -2.649  0.00  0.00    +0.007 C 
ATOM     25  C   LIG    1        4.380   0.967  -0.278  0.00  0.00    +0.007 C 
ENDBRANCH  22  23
ENDBRANCH  15  22
TORSDOF 5
