REMARK  Name = ZINC14827287
REMARK                            x       y       z     vdW  Elec       q    Type
REMARK                         _______ _______ _______ _____ _____    ______ ____
ROOT
ATOM      1  C   LIG    1        2.534   3.726  -0.002  0.00  0.00    +0.026 C 
ATOM      2  C   LIG    1        1.145   3.085   0.008  0.00  0.00    -0.041 C 
ATOM      3  C   LIG    1        1.286   1.562  -0.002  0.00  0.00    +0.131 C 
ATOM      4  C   LIG    1        2.040   1.127  -1.261  0.00  0.00    +0.173 C 
ATOM      5  C   LIG    1        3.429   1.769  -1.270  0.00  0.00    +0.179 C 
ATOM      6  C   LIG    1        3.287   3.292  -1.261  0.00  0.00    +0.116 C 
ENDROOT
BRANCH   2   7
ATOM      7  N   LIG    1        0.413   3.506  -1.200  0.00  0.00    +0.382 N 
ATOM      8  H   LIG    1        0.918   3.176  -2.032  0.00  0.00    -0.090 HD
ATOM      9  H   LIG    1        0.347   4.521  -1.233  0.00  0.00    -0.090 HD
ATOM     10  H   LIG    1       -0.523   3.105  -1.199  0.00  0.00    -0.090 HD
ENDBRANCH   2   7
BRANCH   3  11
ATOM     11  O   LIG    1       -0.011   0.963   0.007  0.00  0.00    -0.391 OA
ATOM     12  H   LIG    1        0.002  -0.004   0.002  0.00  0.00    +0.210 HD
ENDBRANCH   3  11
BRANCH   4  13
ATOM     13  O   LIG    1        2.172  -0.295  -1.270  0.00  0.00    -0.387 OA
ATOM     14  H   LIG    1        1.329  -0.769  -1.264  0.00  0.00    +0.210 HD
ENDBRANCH   4  13
BRANCH   5  15
ATOM     15  O   LIG    1        4.155   1.350  -0.113  0.00  0.00    -0.386 OA
ATOM     16  H   LIG    1        4.282   0.394  -0.053  0.00  0.00    +0.210 HD
ENDBRANCH   5  15
BRANCH   6  17
ATOM     17  O   LIG    1        2.561   3.710  -2.419  0.00  0.00    -0.384 OA
ATOM     18  H   LIG    1        2.434   4.667  -2.478  0.00  0.00    +0.210 HD
ENDBRANCH   6  17
BRANCH   6  19
ATOM     19  C   LIG    1        4.676   3.933  -1.271  0.00  0.00    +0.193 C 
BRANCH  19  20
ATOM     20  O   LIG    1        4.548   5.351  -1.145  0.00  0.00    -0.392 OA
ATOM     21  H   LIG    1        5.391   5.824  -1.143  0.00  0.00    +0.210 HD
ENDBRANCH  19  20
ENDBRANCH   6  19
TORSDOF 7
