REMARK  Name = ZINC00057000
REMARK                            x       y       z     vdW  Elec       q    Type
REMARK                         _______ _______ _______ _____ _____    ______ ____
ROOT
ATOM      1  C   LIG    1        0.810  -0.560   1.146  0.00  0.00    +0.220 C 
ATOM      2  N   LIG    1        0.404  -0.363   2.416  0.00  0.00    -0.288 N 
ATOM      3  C   LIG    1       -0.859   0.278   2.825  0.00  0.00    +0.109 C 
ATOM      4  C   LIG    1       -0.588   0.814   4.252  0.00  0.00    +0.021 C 
ATOM      5  C   LIG    1        0.311  -0.305   4.841  0.00  0.00    +0.035 C 
ATOM      6  C   LIG    1        1.145  -0.757   3.623  0.00  0.00    +0.184 C 
ATOM      7  O   LIG    1        1.827  -1.182   0.924  0.00  0.00    -0.275 OA
ENDROOT
BRANCH   1   9
ATOM      8  C   LIG    1        0.566   1.353  -0.412  0.00  0.00    +0.018 C 
ATOM      9  C   LIG    1        0.000  -0.007   0.002  0.00  0.00    +0.082 C 
BRANCH   9  10
ATOM     10  C   LIG    1        0.069  -0.971  -1.184  0.00  0.00    +0.078 C 
BRANCH  10  11
ATOM     11  S   LIG    1       -1.022  -0.380  -2.507  0.00  0.00    -0.178 S 
ATOM     12  H   LIG    1       -0.878  -1.296  -3.481  0.00  0.00    +0.102 HD
ENDBRANCH  10  11
ENDBRANCH   9  10
ENDBRANCH   1   9
BRANCH   6  13
ATOM     13  C   LIG    1        1.325  -2.253   3.649  0.00  0.00    +0.325 C 
ATOM     14  O   LIG    1        2.068  -2.763   4.470  0.00  0.00    -0.249 OA
BRANCH  13  15
ATOM     15  O   LIG    1        0.728  -2.953   2.849  0.00  0.00    -0.479 OA
ATOM     16  H   LIG    1        0.157  -2.560   2.218  0.00  0.00    +0.295 HD
ENDBRANCH  13  15
ENDBRANCH   6  13
TORSDOF 5
