REMARK  Name = ZINC13805803
REMARK                            x       y       z     vdW  Elec       q    Type
REMARK                         _______ _______ _______ _____ _____    ______ ____
ROOT
ATOM      1  C   LIG    1       -1.581  -2.837  -0.810  0.00  0.00    +0.020 A 
ATOM      2  C   LIG    1       -1.389  -2.042   0.255  0.00  0.00    -0.021 A 
ATOM      3  C   LIG    1       -1.162  -2.916   1.408  0.00  0.00    +0.006 A 
ATOM      4  C   LIG    1       -0.914  -2.688   2.764  0.00  0.00    +0.056 A 
ATOM      5  C   LIG    1       -0.740  -3.760   3.615  0.00  0.00    +0.121 A 
ATOM      6  C   LIG    1       -0.812  -5.063   3.127  0.00  0.00    +0.047 A 
ATOM      7  C   LIG    1       -1.056  -5.299   1.793  0.00  0.00    +0.030 A 
ATOM      8  C   LIG    1       -1.233  -4.232   0.918  0.00  0.00    +0.047 A 
ATOM      9  N   LIG    1       -1.486  -4.149  -0.435  0.00  0.00    -0.358 N 
ATOM     10  H   LIG    1       -1.585  -4.907  -1.031  0.00  0.00    +0.166 HD
ENDROOT
BRANCH   1  12
ATOM     11  C   LIG    1       -0.532  -2.052  -2.915  0.00  0.00    +0.010 C 
ATOM     12  C   LIG    1       -1.856  -2.355  -2.211  0.00  0.00    +0.050 C 
ENDBRANCH   1  12
BRANCH   5  13
ATOM     13  O   LIG    1       -0.498  -3.544   4.936  0.00  0.00    -0.495 OA
ATOM     14  C   LIG    1       -0.329  -4.698   5.761  0.00  0.00    +0.277 C 
ENDBRANCH   5  13
BRANCH   2  15
ATOM     15  C   LIG    1       -1.409  -0.535   0.263  0.00  0.00    +0.019 C 
BRANCH  15  16
ATOM     16  C   LIG    1        0.002  -0.004   0.002  0.00  0.00    -0.075 C 
BRANCH  16  17
ATOM     17  N   LIG    1       -0.030   1.473   0.034  0.00  0.00    +0.376 N 
ATOM     18  H   LIG    1       -0.486   1.778   0.903  0.00  0.00    -0.083 HD
ATOM     19  C   LIG    1       -0.802   1.987  -1.117  0.00  0.00    -0.097 C 
ATOM     20  C   LIG    1        1.346   2.010   0.000  0.00  0.00    -0.097 C 
ENDBRANCH  16  17
ENDBRANCH  15  16
ENDBRANCH   2  15
TORSDOF 5
