REMARK  Name = ZINC22009607
REMARK                            x       y       z     vdW  Elec       q    Type
REMARK                         _______ _______ _______ _____ _____    ______ ____
ROOT
ATOM      1  C   LIG    1        0.131   1.484   0.335  0.00  0.00    +0.061 C 
ATOM      2  C   LIG    1        0.075  -0.011   0.161  0.00  0.00    +0.016 C 
ATOM      3  C   LIG    1       -1.117  -0.633   0.135  0.00  0.00    +0.065 C 
ATOM      4  C   LIG    1       -1.221  -2.121  -0.045  0.00  0.00    +0.096 C 
ATOM      5  C   LIG    1        0.104  -2.781   0.209  0.00  0.00    +0.065 C 
ATOM      6  C   LIG    1        1.247  -2.074   0.232  0.00  0.00    +0.016 C 
ATOM      7  C   LIG    1        2.555  -2.780   0.483  0.00  0.00    +0.061 C 
ATOM      8  N   LIG    1        1.238  -0.720   0.025  0.00  0.00    -0.321 N 
ATOM      9  H   LIG    1        2.058  -0.261  -0.215  0.00  0.00    +0.152 HD
ENDROOT
BRANCH   4  10
ATOM     10  C   LIG    1       -1.661  -2.421  -1.454  0.00  0.00    -0.033 A 
ATOM     11  C   LIG    1       -0.887  -2.009  -2.523  0.00  0.00    +0.005 A 
ATOM     12  C   LIG    1       -1.291  -2.284  -3.816  0.00  0.00    +0.003 A 
ATOM     13  C   LIG    1       -2.470  -2.971  -4.040  0.00  0.00    +0.032 A 
ATOM     14  C   LIG    1       -3.244  -3.383  -2.972  0.00  0.00    +0.122 A 
ATOM     15  C   LIG    1       -2.837  -3.112  -1.678  0.00  0.00    +0.037 A 
BRANCH  14  16
ATOM     16  N   LIG    1       -4.506  -4.118  -3.212  0.00  0.00    +0.006 N 
ATOM     17  O   LIG    1       -4.860  -4.358  -4.343  0.00  0.00    -0.130 OA
BRANCH  16  18
ATOM     18  O   LIG    1       -5.183  -4.478  -2.277  0.00  0.00    -0.396 OA
ATOM     19  H   LIG    1       -4.909  -4.292  -1.401  0.00  0.00    +0.329 HD
ENDBRANCH  16  18
ENDBRANCH  14  16
ENDBRANCH   4  10
BRANCH   3  20
ATOM     20  C   LIG    1       -2.298   0.131   0.281  0.00  0.00    +0.337 C 
ATOM     21  O   LIG    1       -2.229   1.337   0.428  0.00  0.00    -0.245 OA
BRANCH  20  22
ATOM     22  O   LIG    1       -3.502  -0.478   0.257  0.00  0.00    -0.465 OA
ATOM     23  C   LIG    1       -4.653   0.354   0.411  0.00  0.00    +0.280 C 
ENDBRANCH  20  22
ENDBRANCH   3  20
BRANCH   5  24
ATOM     24  C   LIG    1        0.151  -4.177   0.430  0.00  0.00    +0.338 C 
ATOM     25  O   LIG    1       -0.228  -4.639   1.490  0.00  0.00    -0.245 OA
BRANCH  24  26
ATOM     26  O   LIG    1        0.615  -4.998  -0.535  0.00  0.00    -0.457 OA
BRANCH  26  27
ATOM     27  C   LIG    1        0.633  -6.397  -0.244  0.00  0.00    +0.192 C 
ATOM     28  C   LIG    1       -0.657  -7.079  -0.754  0.00  0.00    +0.061 C 
ATOM     29  C   LIG    1       -0.198  -8.431  -1.330  0.00  0.00    +0.088 C 
ATOM     30  N   LIG    1        1.265  -8.515  -1.125  0.00  0.00    -0.295 NA
ATOM     31  C   LIG    1        1.748  -7.110  -1.050  0.00  0.00    +0.129 C 
BRANCH  30  32
ATOM     32  C   LIG    1        1.910  -9.236  -2.230  0.00  0.00    +0.119 C 
BRANCH  32  33
ATOM     33  C   LIG    1        1.538 -10.695  -2.164  0.00  0.00    -0.033 A 
ATOM     34  C   LIG    1        2.316 -11.574  -1.434  0.00  0.00    +0.005 A 
ATOM     35  C   LIG    1        1.974 -12.912  -1.373  0.00  0.00    +0.000 A 
ATOM     36  C   LIG    1        0.854 -13.371  -2.041  0.00  0.00    +0.000 A 
ATOM     37  C   LIG    1        0.075 -12.491  -2.769  0.00  0.00    +0.000 A 
ATOM     38  C   LIG    1        0.415 -11.152  -2.827  0.00  0.00    +0.005 A 
ENDBRANCH  32  33
ENDBRANCH  30  32
ENDBRANCH  26  27
ENDBRANCH  24  26
ENDBRANCH   5  24
TORSDOF 10
