REMARK  Name = ZINC22454217
REMARK                            x       y       z     vdW  Elec       q    Type
REMARK                         _______ _______ _______ _____ _____    ______ ____
ROOT
ATOM      1  C   LIG    1        6.427  -5.645   4.561  0.00  0.00    +0.112 C 
ENDROOT
BRANCH   1   6
ATOM      2  N   LIG    1        5.087  -3.681   1.066  0.00  0.00    +0.384 N 
ATOM      3  H   LIG    1        4.286  -4.293   1.032  0.00  0.00    -0.081 HD
ATOM      4  C   LIG    1        5.075  -2.929   2.328  0.00  0.00    -0.063 C 
ATOM      5  C   LIG    1        5.112  -3.907   3.504  0.00  0.00    +0.066 C 
ATOM      6  N   LIG    1        6.326  -4.730   3.416  0.00  0.00    -0.304 NA
ATOM      7  C   LIG    1        6.364  -5.470   2.146  0.00  0.00    +0.066 C 
ATOM      8  C   LIG    1        6.317  -4.479   0.981  0.00  0.00    -0.063 C 
BRANCH   2   9
ATOM      9  C   LIG    1        5.033  -2.743  -0.063  0.00  0.00    -0.051 C 
BRANCH   9  11
ATOM     10  C   LIG    1        3.695  -0.685  -0.038  0.00  0.00    +0.002 C 
ATOM     11  C   LIG    1        3.716  -2.010  -0.046  0.00  0.00    -0.045 C 
BRANCH  10  15
ATOM     12  C   LIG    1       -0.017   1.379   0.010  0.00  0.00    +0.000 A 
ATOM     13  C   LIG    1        1.168   2.093   0.002  0.00  0.00    +0.001 A 
ATOM     14  C   LIG    1        2.377   1.429  -0.013  0.00  0.00    +0.008 A 
ATOM     15  C   LIG    1        2.403   0.034  -0.021  0.00  0.00    -0.025 A 
ATOM     16  C   LIG    1        1.204  -0.681  -0.013  0.00  0.00    +0.008 A 
ATOM     17  C   LIG    1        0.002  -0.004   0.002  0.00  0.00    +0.001 A 
ENDBRANCH  10  15
ENDBRANCH   9  11
ENDBRANCH   2   9
ENDBRANCH   1   6
BRANCH   1  18
ATOM     18  C   LIG    1        7.809  -6.301   4.569  0.00  0.00    +0.176 C 
BRANCH  18  19
ATOM     19  O   LIG    1        8.808  -5.304   4.793  0.00  0.00    -0.366 OA
BRANCH  19  20
ATOM     20  C   LIG    1       10.143  -5.815   4.819  0.00  0.00    +0.178 C 
BRANCH  20  21
ATOM     21  C   LIG    1       10.989  -4.963   5.729  0.00  0.00    -0.014 A 
ATOM     22  C   LIG    1       10.761  -3.602   5.810  0.00  0.00    +0.009 A 
ATOM     23  C   LIG    1       11.535  -2.819   6.645  0.00  0.00    +0.039 A 
ATOM     24  C   LIG    1       12.540  -3.399   7.401  0.00  0.00    +0.123 A 
ATOM     25  F   LIG    1       13.299  -2.635   8.217  0.00  0.00    -0.205 F 
ATOM     26  C   LIG    1       12.768  -4.762   7.319  0.00  0.00    +0.039 A 
ATOM     27  C   LIG    1       11.988  -5.543   6.487  0.00  0.00    +0.009 A 
ENDBRANCH  20  21
BRANCH  20  28
ATOM     28  C   LIG    1       10.719  -5.788   3.427  0.00  0.00    -0.014 A 
ATOM     29  C   LIG    1       10.472  -4.709   2.598  0.00  0.00    +0.009 A 
ATOM     30  C   LIG    1       11.000  -4.682   1.321  0.00  0.00    +0.039 A 
ATOM     31  C   LIG    1       11.776  -5.737   0.872  0.00  0.00    +0.123 A 
ATOM     32  F   LIG    1       12.293  -5.713  -0.376  0.00  0.00    -0.205 F 
ATOM     33  C   LIG    1       12.023  -6.817   1.702  0.00  0.00    +0.039 A 
ATOM     34  C   LIG    1       11.498  -6.839   2.981  0.00  0.00    +0.009 A 
ENDBRANCH  20  28
ENDBRANCH  19  20
ENDBRANCH  18  19
ENDBRANCH   1  18
TORSDOF 9
