REMARK  Name = ZINC18354955
REMARK                            x       y       z     vdW  Elec       q    Type
REMARK                         _______ _______ _______ _____ _____    ______ ____
ROOT
ATOM      1  C   LIG    1       -0.018   1.447   0.010  0.00  0.00    +0.125 C 
ATOM      2  C   LIG    1        1.423   2.026  -0.001  0.00  0.00    +0.098 C 
ATOM      3  S   LIG    1        2.289   0.578  -0.745  0.00  0.00    -0.091 S 
ATOM      4  C   LIG    1        1.064  -0.664  -0.363  0.00  0.00    +0.125 C 
ATOM      5  N   LIG    1        0.002  -0.004   0.002  0.00  0.00    -0.367 N 
ATOM      6  H   LIG    1       -0.791  -0.492   0.274  0.00  0.00    +0.161 HD
ENDROOT
BRANCH   4   7
ATOM      7  N   LIG    1        1.212  -2.029  -0.438  0.00  0.00    -0.339 N 
ATOM      8  H   LIG    1        0.471  -2.611  -0.204  0.00  0.00    +0.144 HD
ATOM      9  H   LIG    1        2.056  -2.411  -0.725  0.00  0.00    +0.144 HD
ENDBRANCH   4   7
TORSDOF 1
