REMARK  Name = ZINC18098320
REMARK                            x       y       z     vdW  Elec       q    Type
REMARK                         _______ _______ _______ _____ _____    ______ ____
ROOT
ATOM      1  C   LIG    1       11.783   1.410   3.110  0.00  0.00    +0.003 C 
ENDROOT
BRANCH   1   2
ATOM      2  C   LIG    1       12.757   0.751   2.132  0.00  0.00    +0.003 C 
BRANCH   2   3
ATOM      3  C   LIG    1       13.784   1.784   1.662  0.00  0.00    +0.037 C 
BRANCH   3   4
ATOM      4  C   LIG    1       14.758   1.125   0.683  0.00  0.00    +0.196 C 
BRANCH   4   5
ATOM      5  N   LIG    1       15.742   2.113   0.233  0.00  0.00    -0.276 N 
ATOM      6  H   LIG    1       15.699   3.024   0.562  0.00  0.00    +0.258 HD
BRANCH   5   7
ATOM      7  C   LIG    1       16.725   1.749  -0.656  0.00  0.00    +0.388 C 
ATOM      8  N   LIG    1       16.782   0.525  -1.098  0.00  0.00    -0.129 NA
ATOM      9  H   LIG    1       17.520   0.247  -1.663  0.00  0.00    +0.306 HD
BRANCH   7  10
ATOM     10  N   LIG    1       17.650   2.679  -1.080  0.00  0.00    -0.186 N 
ATOM     11  H   LIG    1       17.790   3.492  -0.569  0.00  0.00    +0.271 HD
BRANCH  10  12
ATOM     12  C   LIG    1       18.376   2.455  -2.228  0.00  0.00    +0.394 C 
ATOM     13  N   LIG    1       19.341   3.277  -2.566  0.00  0.00    -0.073 NA
BRANCH  13  14
ATOM     14  C   LIG    1       19.528   4.439  -1.864  0.00  0.00    +0.142 A 
ATOM     15  C   LIG    1       18.573   5.455  -1.923  0.00  0.00    +0.047 A 
ATOM     16  C   LIG    1       18.766   6.622  -1.214  0.00  0.00    +0.023 A 
ATOM     17  C   LIG    1       19.906   6.787  -0.444  0.00  0.00    +0.041 A 
ATOM     18 CL   LIG    1       20.142   8.259   0.445  0.00  0.00    -0.084 Cl
ATOM     19  C   LIG    1       20.857   5.783  -0.382  0.00  0.00    +0.023 A 
ATOM     20  C   LIG    1       20.672   4.609  -1.083  0.00  0.00    +0.047 A 
ENDBRANCH  13  14
BRANCH  12  21
ATOM     21  N   LIG    1       18.089   1.371  -3.021  0.00  0.00    -0.288 N 
ATOM     22  H   LIG    1       18.765   1.016  -3.620  0.00  0.00    +0.255 HD
ATOM     23  H   LIG    1       17.212   0.960  -2.981  0.00  0.00    +0.255 HD
ENDBRANCH  12  21
ENDBRANCH  10  12
ENDBRANCH   7  10
ENDBRANCH   5   7
ENDBRANCH   4   5
ENDBRANCH   3   4
ENDBRANCH   2   3
ENDBRANCH   1   2
BRANCH   1  24
ATOM     24  C   LIG    1       10.756   0.378   3.580  0.00  0.00    +0.037 C 
BRANCH  24  25
ATOM     25  C   LIG    1        9.781   1.037   4.558  0.00  0.00    +0.196 C 
BRANCH  25  26
ATOM     26  N   LIG    1        8.798   0.049   5.009  0.00  0.00    -0.276 N 
ATOM     27  H   LIG    1        8.841  -0.863   4.679  0.00  0.00    +0.258 HD
BRANCH  26  29
ATOM     28  N   LIG    1        6.911  -0.468   6.267  0.00  0.00    -0.006 NA
ATOM     29  C   LIG    1        7.820   0.411   5.893  0.00  0.00    +0.389 C 
BRANCH  28  30
ATOM     30  C   LIG    1        7.024  -1.758   5.890  0.00  0.00    +0.394 C 
ATOM     31  N   LIG    1        8.170  -2.380   6.020  0.00  0.00    -0.288 N 
ATOM     32  H   LIG    1        8.257  -3.302   5.733  0.00  0.00    +0.255 HD
ATOM     33  H   LIG    1        8.932  -1.918   6.404  0.00  0.00    +0.255 HD
BRANCH  30  34
ATOM     34  N   LIG    1        5.933  -2.424   5.367  0.00  0.00    -0.243 N 
ATOM     35  H   LIG    1        6.014  -3.352   5.098  0.00  0.00    +0.265 HD
BRANCH  34  37
ATOM     36  C   LIG    1        4.315  -0.821   6.172  0.00  0.00    +0.043 A 
ATOM     37  C   LIG    1        4.710  -1.760   5.227  0.00  0.00    +0.100 A 
ATOM     38  C   LIG    1        3.887  -2.038   4.143  0.00  0.00    +0.043 A 
ATOM     39  C   LIG    1        2.680  -1.380   4.007  0.00  0.00    +0.023 A 
ATOM     40  C   LIG    1        2.291  -0.445   4.949  0.00  0.00    +0.041 A 
ATOM     41 CL   LIG    1        0.773   0.380   4.774  0.00  0.00    -0.084 Cl
ATOM     42  C   LIG    1        3.108  -0.166   6.030  0.00  0.00    +0.023 A 
ENDBRANCH  34  37
ENDBRANCH  30  34
ENDBRANCH  28  30
BRANCH  29  43
ATOM     43  N   LIG    1        7.785   1.684   6.389  0.00  0.00    -0.289 N 
ATOM     44  H   LIG    1        8.454   2.330   6.114  0.00  0.00    +0.255 HD
ATOM     45  H   LIG    1        7.092   1.941   7.017  0.00  0.00    +0.255 HD
ENDBRANCH  29  43
ENDBRANCH  26  29
ENDBRANCH  25  26
ENDBRANCH  24  25
ENDBRANCH   1  24
TORSDOF 17
