REMARK  Name = ZINC24613787
REMARK                            x       y       z     vdW  Elec       q    Type
REMARK                         _______ _______ _______ _____ _____    ______ ____
ROOT
ATOM      1  C   LIG    1        1.490   0.709  -0.805  0.00  0.00    -0.073 C 
ATOM      2  C   LIG    1        0.228   0.569   0.006  0.00  0.00    +0.039 C 
ATOM      3  C   LIG    1        2.426   1.541  -0.421  0.00  0.00    +0.015 C 
ENDROOT
BRANCH   1   4
ATOM      4  C   LIG    1        1.675  -0.108  -2.058  0.00  0.00    +0.034 C 
BRANCH   4   5
ATOM      5  C   LIG    1        2.238  -1.483  -1.692  0.00  0.00    +0.031 C 
BRANCH   5   8
ATOM      6  C   LIG    1        3.587  -2.842  -3.207  0.00  0.00    -0.076 C 
ATOM      7  C   LIG    1        4.716  -2.718  -2.217  0.00  0.00    +0.039 C 
ATOM      8  C   LIG    1        2.423  -2.300  -2.944  0.00  0.00    -0.028 C 
BRANCH   6   9
ATOM      9  C   LIG    1        3.796  -3.589  -4.498  0.00  0.00    +0.034 C 
BRANCH   9  10
ATOM     10  C   LIG    1        4.408  -2.649  -5.538  0.00  0.00    +0.031 C 
BRANCH  10  14
ATOM     11  C   LIG    1        2.933  -1.944  -7.837  0.00  0.00    +0.038 C 
ATOM     12  C   LIG    1        3.980  -3.025  -7.913  0.00  0.00    -0.080 C 
ATOM     13  C   LIG    1        4.296  -3.677  -9.234  0.00  0.00    +0.038 C 
ATOM     14  C   LIG    1        4.617  -3.397  -6.830  0.00  0.00    -0.028 C 
ENDBRANCH  10  14
ENDBRANCH   9  10
ENDBRANCH   6   9
ENDBRANCH   5   8
ENDBRANCH   4   5
ENDBRANCH   1   4
BRANCH   3  15
ATOM     15  C   LIG    1        2.295   2.269   0.891  0.00  0.00    +0.251 C 
BRANCH  15  16
ATOM     16  P   LIG    1        3.634   1.748   2.013  0.00  0.00    +0.360 P 
ATOM     17  O   LIG    1        4.943   2.067   1.401  0.00  0.00    -0.256 OA
BRANCH  16  18
ATOM     18  O   LIG    1        3.533   0.161   2.268  0.00  0.00    -0.322 OA
ATOM     19  H   LIG    1        4.262  -0.338   2.923  0.00  0.00    +0.220 HD
ENDBRANCH  16  18
BRANCH  16  20
ATOM     20  O   LIG    1        3.493   2.527   3.415  0.00  0.00    -0.322 OA
ATOM     21  H   LIG    1        3.554   3.482   3.262  0.00  0.00    +0.220 HD
ENDBRANCH  16  20
ENDBRANCH  15  16
BRANCH  15  22
ATOM     22  O   LIG    1        2.384   3.678   0.665  0.00  0.00    -0.376 OA
ATOM     23  H   LIG    1        2.309   4.376   1.511  0.00  0.00    +0.211 HD
ENDBRANCH  15  22
ENDBRANCH   3  15
TORSDOF 11
