REMARK  Name = ZINC28951410
REMARK                            x       y       z     vdW  Elec       q    Type
REMARK                         _______ _______ _______ _____ _____    ______ ____
ROOT
ATOM      1  N   LIG    1        0.122  -2.978  -0.265  0.00  0.00    -0.213 N 
ATOM      2  H   LIG    1        0.855  -2.635   0.269  0.00  0.00    +0.174 HD
ENDROOT
BRANCH   1   8
ATOM      3  C   LIG    1       -0.737  -0.790  -0.845  0.00  0.00    +0.142 A 
ATOM      4  C   LIG    1       -1.800   0.035  -1.175  0.00  0.00    +0.048 A 
ATOM      5  C   LIG    1       -3.079  -0.480  -1.251  0.00  0.00    +0.012 A 
ATOM      6  C   LIG    1       -3.304  -1.831  -0.996  0.00  0.00    -0.016 A 
ATOM      7  C   LIG    1       -2.236  -2.663  -0.664  0.00  0.00    +0.036 A 
ATOM      8  C   LIG    1       -0.954  -2.144  -0.594  0.00  0.00    +0.090 A 
BRANCH   6   9
ATOM      9  C   LIG    1       -4.678  -2.384  -1.077  0.00  0.00    -0.018 A 
ATOM     10  C   LIG    1       -4.906  -3.734  -0.817  0.00  0.00    +0.008 A 
ATOM     11  C   LIG    1       -6.187  -4.242  -0.894  0.00  0.00    +0.001 A 
ATOM     12  C   LIG    1       -7.244  -3.414  -1.229  0.00  0.00    +0.000 A 
ATOM     13  C   LIG    1       -7.023  -2.074  -1.489  0.00  0.00    +0.001 A 
ATOM     14  C   LIG    1       -5.747  -1.553  -1.409  0.00  0.00    +0.008 A 
ENDBRANCH   6   9
BRANCH   3  16
ATOM     15  C   LIG    1        0.672   1.116  -1.040  0.00  0.00    +0.277 C 
ATOM     16  O   LIG    1        0.521  -0.280  -0.771  0.00  0.00    -0.493 OA
ENDBRANCH   3  16
ENDBRANCH   1   8
BRANCH   1  17
ATOM     17  S   LIG    1        0.141  -4.549  -0.788  0.00  0.00    +0.076 S 
ATOM     18  O   LIG    1        1.370  -5.108  -0.345  0.00  0.00    -0.150 OA
ATOM     19  O   LIG    1       -0.235  -4.526  -2.158  0.00  0.00    -0.150 OA
BRANCH  17  20
ATOM     20  C   LIG    1       -1.139  -5.400   0.072  0.00  0.00    +0.152 A 
ATOM     21  C   LIG    1       -2.195  -5.950  -0.628  0.00  0.00    +0.052 A 
ATOM     22  C   LIG    1       -3.201  -6.618   0.046  0.00  0.00    +0.044 A 
ATOM     23 CL   LIG    1       -4.528  -7.307  -0.837  0.00  0.00    -0.083 Cl
ATOM     24  C   LIG    1       -3.152  -6.739   1.424  0.00  0.00    +0.043 A 
ATOM     25  C   LIG    1       -2.097  -6.190   2.129  0.00  0.00    +0.086 A 
ATOM     26 CL   LIG    1       -2.035  -6.340   3.857  0.00  0.00    -0.080 Cl
ATOM     27  C   LIG    1       -1.083  -5.524   1.452  0.00  0.00    +0.162 A 
BRANCH  27  28
ATOM     28  O   LIG    1       -0.042  -4.989   2.143  0.00  0.00    -0.503 OA
ATOM     29  H   LIG    1       -0.199  -4.088   2.456  0.00  0.00    +0.292 HD
ENDBRANCH  27  28
ENDBRANCH  17  20
ENDBRANCH   1  17
TORSDOF 6
