REMARK  Name = ZINC22463332
REMARK                            x       y       z     vdW  Elec       q    Type
REMARK                         _______ _______ _______ _____ _____    ______ ____
ROOT
ATOM      1  N   LIG    1        7.518  -7.369   0.343  0.00  0.00    -0.300 NA
ATOM      2  C   LIG    1        8.239  -7.026  -0.890  0.00  0.00    +0.100 C 
ATOM      3  C   LIG    1        9.527  -7.850  -0.971  0.00  0.00    +0.100 C 
ATOM      4  N   LIG    1        9.193  -9.280  -0.940  0.00  0.00    -0.289 NA
ATOM      5  C   LIG    1        8.472  -9.624   0.293  0.00  0.00    +0.100 C 
ATOM      6  C   LIG    1        7.184  -8.800   0.374  0.00  0.00    +0.100 C 
ENDROOT
BRANCH   1   7
ATOM      7  C   LIG    1        6.312  -6.544   0.494  0.00  0.00    +0.084 C 
BRANCH   7   8
ATOM      8  C   LIG    1        6.717  -5.084   0.707  0.00  0.00    +0.017 C 
BRANCH   8   9
ATOM      9  C   LIG    1        5.461  -4.224   0.865  0.00  0.00    +0.020 C 
BRANCH   9  10
ATOM     10  C   LIG    1        5.866  -2.764   1.078  0.00  0.00    +0.104 C 
BRANCH  10  12
ATOM     11  C   LIG    1        4.776  -0.613   1.428  0.00  0.00    +0.237 C 
ATOM     12  N   LIG    1        4.663  -1.941   1.229  0.00  0.00    -0.312 N 
ATOM     13  H   LIG    1        3.668  -2.407   1.179  0.00  0.00    +0.149 HD
ATOM     14  O   LIG    1        5.877  -0.098   1.483  0.00  0.00    -0.271 OA
BRANCH  11  16
ATOM     15  C   LIG    1        3.688   1.538   1.778  0.00  0.00    +0.014 C 
ATOM     16  C   LIG    1        3.574   0.209   1.579  0.00  0.00    +0.068 C 
BRANCH  15  21
ATOM     17  C   LIG    1       -1.075   4.623   2.351  0.00  0.00    +0.065 C 
ATOM     18  C   LIG    1        0.197   3.829   2.202  0.00  0.00    +0.038 A 
ATOM     19  C   LIG    1        1.417   4.479   2.275  0.00  0.00    +0.023 A 
ATOM     20  C   LIG    1        2.583   3.748   2.138  0.00  0.00    +0.011 A 
ATOM     21  C   LIG    1        2.479   2.365   1.930  0.00  0.00    -0.007 A 
ATOM     22  C   LIG    1        1.208   1.786   1.869  0.00  0.00    +0.119 A 
ATOM     23  N   LIG    1        0.128   2.527   2.000  0.00  0.00    -0.260 NA
ENDBRANCH  15  21
ENDBRANCH  11  16
ENDBRANCH  10  12
ENDBRANCH   9  10
ENDBRANCH   8   9
ENDBRANCH   7   8
ENDBRANCH   1   7
BRANCH   4  24
ATOM     24  C   LIG    1       10.399 -10.106  -1.091  0.00  0.00    +0.117 C 
BRANCH  24  25
ATOM     25  C   LIG    1       11.075  -9.773  -2.397  0.00  0.00    -0.026 A 
ATOM     26  C   LIG    1       10.323  -9.636  -3.549  0.00  0.00    +0.005 A 
ATOM     27  C   LIG    1       10.943  -9.326  -4.745  0.00  0.00    +0.000 A 
ATOM     28  C   LIG    1       12.315  -9.164  -4.791  0.00  0.00    +0.000 A 
ATOM     29  C   LIG    1       13.067  -9.307  -3.640  0.00  0.00    +0.000 A 
ATOM     30  C   LIG    1       12.447  -9.611  -2.443  0.00  0.00    +0.005 A 
ENDBRANCH  24  25
BRANCH  24  31
ATOM     31  C   LIG    1       10.015 -11.563  -1.081  0.00  0.00    -0.026 A 
ATOM     32  C   LIG    1        8.918 -11.993  -1.804  0.00  0.00    +0.005 A 
ATOM     33  C   LIG    1        8.568 -13.331  -1.799  0.00  0.00    +0.000 A 
ATOM     34  C   LIG    1        9.310 -14.236  -1.063  0.00  0.00    +0.000 A 
ATOM     35  C   LIG    1       10.403 -13.805  -0.336  0.00  0.00    +0.000 A 
ATOM     36  C   LIG    1       10.756 -12.468  -0.345  0.00  0.00    +0.005 A 
ENDBRANCH  24  31
ENDBRANCH   4  24
TORSDOF 10
