REMARK  Name = ZINC00045767
REMARK                            x       y       z     vdW  Elec       q    Type
REMARK                         _______ _______ _______ _____ _____    ______ ____
ROOT
ATOM      1  C   LIG    1       -0.206  -4.952  -1.341  0.00  0.00    +0.133 A 
ATOM      2  C   LIG    1       -0.313  -6.356  -1.473  0.00  0.00    +0.053 A 
ATOM      3  C   LIG    1       -0.341  -6.647  -2.788  0.00  0.00    +0.118 A 
ATOM      4  N   LIG    1       -0.256  -5.475  -3.479  0.00  0.00    -0.203 N 
ATOM      5  C   LIG    1       -0.252  -5.345  -4.821  0.00  0.00    +0.278 C 
ATOM      6  O   LIG    1       -0.240  -6.333  -5.527  0.00  0.00    -0.265 OA
ATOM      7  N   LIG    1       -0.177  -4.429  -2.550  0.00  0.00    -0.160 NA
ENDROOT
BRANCH   5   8
ATOM      8  C   LIG    1       -0.263  -4.002  -5.431  0.00  0.00    +0.041 A 
ATOM      9  C   LIG    1       -0.133  -2.865  -4.629  0.00  0.00    +0.016 A 
ATOM     10  C   LIG    1       -0.144  -1.614  -5.205  0.00  0.00    +0.039 A 
ATOM     11  C   LIG    1       -0.284  -1.481  -6.578  0.00  0.00    +0.123 A 
ATOM     12  F   LIG    1       -0.294  -0.251  -7.138  0.00  0.00    -0.205 F 
ATOM     13  C   LIG    1       -0.413  -2.605  -7.380  0.00  0.00    +0.039 A 
ATOM     14  C   LIG    1       -0.398  -3.862  -6.815  0.00  0.00    +0.016 A 
ENDBRANCH   5   8
BRANCH   1  15
ATOM     15  C   LIG    1       -0.144  -4.202  -0.070  0.00  0.00    +0.213 C 
ATOM     16  O   LIG    1       -0.088  -4.801   0.987  0.00  0.00    -0.285 OA
BRANCH  15  21
ATOM     17  C   LIG    1       -0.165   1.552  -0.118  0.00  0.00    +0.044 C 
ATOM     18  C   LIG    1       -0.160   0.045  -0.105  0.00  0.00    -0.050 A 
ATOM     19  C   LIG    1       -1.303  -0.645   0.260  0.00  0.00    +0.004 A 
ATOM     20  C   LIG    1       -1.305  -2.024   0.274  0.00  0.00    +0.012 A 
ATOM     21  C   LIG    1       -0.150  -2.725  -0.083  0.00  0.00    +0.027 A 
ATOM     22  C   LIG    1        1.000  -2.022  -0.450  0.00  0.00    -0.039 A 
ATOM     23  C   LIG    1        2.251  -2.769  -0.835  0.00  0.00    +0.044 C 
ATOM     24  C   LIG    1        0.986  -0.643  -0.465  0.00  0.00    +0.007 A 
ENDBRANCH  15  21
ENDBRANCH   1  15
TORSDOF 3
