REMARK  Name = ZINC17970819
REMARK                            x       y       z     vdW  Elec       q    Type
REMARK                         _______ _______ _______ _____ _____    ______ ____
ROOT
ATOM      1  C   LIG    1       -0.017   1.373   0.010  0.00  0.00    +0.001 A 
ATOM      2  C   LIG    1       -1.222   2.063   0.019  0.00  0.00    +0.002 A 
ATOM      3  C   LIG    1       -2.421   1.388   0.021  0.00  0.00    +0.028 A 
ATOM      4  C   LIG    1       -2.429  -0.009   0.013  0.00  0.00    +0.078 A 
ATOM      5  N   LIG    1       -3.587  -0.714   0.016  0.00  0.00    -0.237 NA
ATOM      6  C   LIG    1       -3.593  -2.013   0.009  0.00  0.00    +0.199 A 
ATOM      7  N   LIG    1       -2.462  -2.765  -0.000  0.00  0.00    -0.313 N 
ATOM      8  H   LIG    1       -2.529  -3.733  -0.005  0.00  0.00    +0.170 HD
ATOM      9  C   LIG    1       -1.243  -2.177  -0.003  0.00  0.00    +0.259 A 
ATOM     10  O   LIG    1       -0.222  -2.839  -0.011  0.00  0.00    -0.267 OA
ATOM     11  C   LIG    1       -1.201  -0.707   0.004  0.00  0.00    +0.065 A 
ATOM     12  C   LIG    1        0.002  -0.004   0.002  0.00  0.00    +0.015 A 
ENDROOT
TORSDOF 0
