REMARK  Name = ZINC28231319
REMARK                            x       y       z     vdW  Elec       q    Type
REMARK                         _______ _______ _______ _____ _____    ______ ____
ROOT
ATOM      1  N   LIG    1        2.421   1.139  -0.035  0.00  0.00    -0.333 N 
ATOM      2  C   LIG    1        2.499   0.173   1.069  0.00  0.00    +0.086 C 
ATOM      3  C   LIG    1        3.812  -0.606   0.971  0.00  0.00    -0.059 C 
ATOM      4  N   LIG    1        4.941   0.334   1.017  0.00  0.00    +0.385 N 
ATOM      5  H   LIG    1        4.880   0.893   1.962  0.00  0.00    -0.081 HD
ATOM      6  C   LIG    1        4.864   1.300  -0.088  0.00  0.00    -0.059 C 
ATOM      7  C   LIG    1        3.550   2.079   0.010  0.00  0.00    +0.086 C 
ENDROOT
BRANCH   1  11
ATOM      8  C   LIG    1       -1.217   3.172   0.009  0.00  0.00    +0.120 A 
ATOM      9  C   LIG    1       -1.198   1.786  -0.048  0.00  0.00    +0.047 A 
ATOM     10  C   LIG    1        0.007   1.112  -0.058  0.00  0.00    +0.027 A 
ATOM     11  C   LIG    1        1.200   1.822  -0.020  0.00  0.00    +0.030 A 
ATOM     12  C   LIG    1        1.180   3.209   0.032  0.00  0.00    +0.027 A 
ATOM     13  C   LIG    1       -0.026   3.882   0.047  0.00  0.00    +0.047 A 
BRANCH   8  15
ATOM     14  C   LIG    1       -3.592   3.041  -0.017  0.00  0.00    +0.277 C 
ATOM     15  O   LIG    1       -2.405   3.836   0.024  0.00  0.00    -0.495 OA
ENDBRANCH   8  15
ENDBRANCH   1  11
BRANCH   4  16
ATOM     16  C   LIG    1        6.223  -0.383   1.000  0.00  0.00    -0.039 C 
ATOM     17  C   LIG    1        6.239  -1.427   2.119  0.00  0.00    -0.013 C 
ATOM     18  C   LIG    1        7.574  -2.173   2.102  0.00  0.00    -0.001 C 
ATOM     19  C   LIG    1        8.717  -1.178   2.317  0.00  0.00    +0.002 C 
ATOM     20  C   LIG    1        8.702  -0.135   1.199  0.00  0.00    +0.030 C 
ATOM     21  C   LIG    1        7.366   0.612   1.216  0.00  0.00    +0.101 C 
BRANCH  21  22
ATOM     22  O   LIG    1        7.200   1.263   2.477  0.00  0.00    -0.393 OA
ATOM     23  H   LIG    1        7.930   2.017   2.807  0.00  0.00    +0.210 HD
ENDBRANCH  21  22
ENDBRANCH   4  16
TORSDOF 4
