REMARK  Name = ZINC49017396
REMARK                            x       y       z     vdW  Elec       q    Type
REMARK                         _______ _______ _______ _____ _____    ______ ____
ROOT
ATOM      1  C   LIG    1        0.742  -0.511   1.242  0.00  0.00    +0.019 C 
ENDROOT
BRANCH   1   2
ATOM      2  C   LIG    1        0.870  -2.011   1.172  0.00  0.00    -0.049 A 
ATOM      3  C   LIG    1       -0.119  -2.813   1.711  0.00  0.00    +0.004 A 
ATOM      4  C   LIG    1       -0.005  -4.188   1.650  0.00  0.00    +0.015 A 
ATOM      5  C   LIG    1        1.105  -4.765   1.044  0.00  0.00    +0.008 A 
ATOM      6  C   LIG    1        2.097  -3.956   0.503  0.00  0.00    +0.015 A 
ATOM      7  C   LIG    1        1.973  -2.582   0.564  0.00  0.00    +0.004 A 
BRANCH   5   8
ATOM      8  S   LIG    1        1.255  -6.519   0.964  0.00  0.00    -0.129 S 
ATOM      9  C   LIG    1        2.830  -6.785   0.105  0.00  0.00    +0.090 C 
ENDBRANCH   5   8
ENDBRANCH   1   2
BRANCH   1  11
ATOM     10  C   LIG    1       -0.019   1.526   0.010  0.00  0.00    -0.013 C 
ATOM     11  C   LIG    1        0.002  -0.004   0.002  0.00  0.00    -0.070 C 
BRANCH  11  12
ATOM     12  N   LIG    1       -1.376  -0.512   0.012  0.00  0.00    +0.383 N 
ATOM     13  H   LIG    1       -1.873  -0.121   0.799  0.00  0.00    -0.085 HD
ATOM     14  H   LIG    1       -1.363  -1.518   0.090  0.00  0.00    -0.085 HD
BRANCH  12  15
ATOM     15  C   LIG    1       -2.050  -0.126  -1.234  0.00  0.00    -0.072 C 
ATOM     16  C   LIG    1       -3.253   0.813  -1.125  0.00  0.00    -0.017 C 
ATOM     17  C   LIG    1       -3.463  -0.663  -1.469  0.00  0.00    -0.017 C 
ENDBRANCH  12  15
ENDBRANCH  11  12
ENDBRANCH   1  11
TORSDOF 5
