REMARK  Name = ZINC15974495
REMARK                            x       y       z     vdW  Elec       q    Type
REMARK                         _______ _______ _______ _____ _____    ______ ____
ROOT
ATOM      1  C   LIG    1       -0.013   1.086   0.008  0.00  0.00    +0.155 C 
ATOM      2  N   LIG    1       -0.721   1.571  -1.179  0.00  0.00    -0.281 N 
ATOM      3  C   LIG    1       -0.035   1.813  -2.309  0.00  0.00    +0.333 A 
ATOM      4  O   LIG    1        1.166   1.622  -2.318  0.00  0.00    -0.246 OA
ATOM      5  N   LIG    1       -0.629   2.254  -3.430  0.00  0.00    -0.262 N 
ATOM      6  C   LIG    1        0.178   2.492  -4.630  0.00  0.00    +0.157 C 
ATOM      7  C   LIG    1       -1.959   2.486  -3.466  0.00  0.00    +0.284 A 
ATOM      8  O   LIG    1       -2.494   2.890  -4.482  0.00  0.00    -0.265 OA
ATOM      9  C   LIG    1       -2.744   2.240  -2.253  0.00  0.00    +0.171 A 
ATOM     10  N   LIG    1       -4.053   2.360  -1.939  0.00  0.00    -0.221 NA
ATOM     11  C   LIG    1       -4.229   2.002  -0.690  0.00  0.00    +0.144 A 
ATOM     12  N   LIG    1       -3.021   1.634  -0.151  0.00  0.00    -0.324 N 
ATOM     13  H   LIG    1       -2.868   1.327   0.756  0.00  0.00    +0.169 HD
ATOM     14  C   LIG    1       -2.080   1.779  -1.121  0.00  0.00    +0.148 A 
ENDROOT
BRANCH  11  15
ATOM     15  C   LIG    1       -5.522   1.995   0.025  0.00  0.00    +0.059 A 
ATOM     16  C   LIG    1       -5.584   1.598   1.361  0.00  0.00    +0.015 A 
ATOM     17  C   LIG    1       -6.794   1.594   2.022  0.00  0.00    +0.001 A 
ATOM     18  C   LIG    1       -7.949   1.982   1.366  0.00  0.00    +0.004 A 
ATOM     19  C   LIG    1       -7.901   2.378   0.043  0.00  0.00    +0.046 A 
ATOM     20  C   LIG    1       -6.692   2.394  -0.634  0.00  0.00    +0.127 A 
BRANCH  20  21
ATOM     21  O   LIG    1       -6.643   2.788  -1.932  0.00  0.00    -0.506 OA
ATOM     22  H   LIG    1       -6.767   2.070  -2.567  0.00  0.00    +0.292 HD
ENDBRANCH  20  21
ENDBRANCH  11  15
TORSDOF 2
