REMARK  Name = ZINC35076415
REMARK                            x       y       z     vdW  Elec       q    Type
REMARK                         _______ _______ _______ _____ _____    ______ ____
ROOT
ATOM      1  C   LIG    1        0.679  -2.115   1.088  0.00  0.00    +0.168 C 
ATOM      2  C   LIG    1       -0.655  -2.661   1.617  0.00  0.00    +0.067 C 
ATOM      3  C   LIG    1       -0.471  -4.126   1.922  0.00  0.00    -0.016 A 
ATOM      4  C   LIG    1       -1.470  -5.149   2.141  0.00  0.00    +0.003 A 
ATOM      5  C   LIG    1       -2.868  -5.127   2.145  0.00  0.00    +0.010 A 
ATOM      6  C   LIG    1       -3.507  -6.316   2.396  0.00  0.00    +0.001 A 
ATOM      7  C   LIG    1       -2.811  -7.490   2.635  0.00  0.00    +0.002 A 
ATOM      8  C   LIG    1       -1.427  -7.540   2.637  0.00  0.00    +0.026 A 
ATOM      9  C   LIG    1       -0.751  -6.348   2.385  0.00  0.00    +0.047 A 
ATOM     10  N   LIG    1        0.579  -6.048   2.314  0.00  0.00    -0.357 N 
ATOM     11  H   LIG    1        1.302  -6.683   2.441  0.00  0.00    +0.166 HD
ATOM     12  C   LIG    1        0.739  -4.718   2.037  0.00  0.00    +0.034 A 
ATOM     13  C   LIG    1        2.041  -3.968   1.874  0.00  0.00    +0.135 C 
ATOM     14  N   LIG    1        1.766  -2.527   1.987  0.00  0.00    -0.298 NA
ATOM     15  H   LIG    1        2.600  -1.985   1.817  0.00  0.00    +0.123 HD
ENDROOT
BRANCH   1  16
ATOM     16  C   LIG    1        0.618  -0.611   1.029  0.00  0.00    +0.324 C 
ATOM     17  O   LIG    1        1.124   0.049   1.905  0.00  0.00    -0.249 OA
BRANCH  16  19
ATOM     18  C   LIG    1       -0.017   1.425   0.010  0.00  0.00    +0.280 C 
ATOM     19  O   LIG    1        0.002  -0.004   0.002  0.00  0.00    -0.467 OA
ENDBRANCH  16  19
ENDBRANCH   1  16
TORSDOF 2
