REMARK  Name = ZINC44136098
REMARK                            x       y       z     vdW  Elec       q    Type
REMARK                         _______ _______ _______ _____ _____    ______ ____
ROOT
ATOM      1  C   LIG    1        2.805   2.525  -0.056  0.00  0.00    +0.088 A 
ATOM      2  C   LIG    1        3.969   1.742   0.089  0.00  0.00    +0.061 A 
ATOM      3  C   LIG    1        5.204   2.395   0.115  0.00  0.00    +0.128 A 
ATOM      4  N   LIG    1        5.238   3.711   0.004  0.00  0.00    -0.222 NA
ATOM      5  C   LIG    1        4.123   4.417  -0.132  0.00  0.00    +0.216 A 
ATOM      6  N   LIG    1        2.930   3.844  -0.168  0.00  0.00    -0.214 NA
ENDROOT
BRANCH   1   9
ATOM      7  C   LIG    1       -0.209   0.516   0.942  0.00  0.00    +0.021 A 
ATOM      8  C   LIG    1        1.038   1.105   0.979  0.00  0.00    +0.013 A 
ATOM      9  C   LIG    1        1.468   1.889  -0.091  0.00  0.00    +0.020 A 
ATOM     10  C   LIG    1        0.634   2.072  -1.196  0.00  0.00    +0.052 A 
ATOM     11 CL   LIG    1        1.161   3.046  -2.533  0.00  0.00    -0.083 Cl
ATOM     12  C   LIG    1       -0.612   1.477  -1.222  0.00  0.00    +0.040 A 
ATOM     13  C   LIG    1       -1.033   0.700  -0.156  0.00  0.00    +0.042 A 
ATOM     14 CL   LIG    1       -2.600  -0.046  -0.196  0.00  0.00    -0.083 Cl
ENDBRANCH   1   9
BRANCH   2  15
ATOM     15  C   LIG    1        3.885   0.273   0.211  0.00  0.00    +0.142 A 
ATOM     16  N   LIG    1        4.926  -0.568   0.479  0.00  0.00    -0.344 N 
ATOM     17  C   LIG    1        4.417  -1.840   0.506  0.00  0.00    +0.104 A 
ATOM     18  C   LIG    1        3.095  -1.742   0.257  0.00  0.00    +0.130 A 
ATOM     19  H   LIG    1        5.851  -0.314   0.623  0.00  0.00    +0.167 HD
ATOM     20  N   LIG    1        2.792  -0.449   0.087  0.00  0.00    -0.236 NA
ENDBRANCH   2  15
BRANCH   5  21
ATOM     21  N   LIG    1        4.210   5.792  -0.245  0.00  0.00    -0.312 N 
ATOM     22  H   LIG    1        3.405   6.323  -0.345  0.00  0.00    +0.149 HD
BRANCH  21  23
ATOM     23  C   LIG    1        5.520   6.448  -0.214  0.00  0.00    +0.123 C 
BRANCH  23  24
ATOM     24  C   LIG    1        5.337   7.960  -0.357  0.00  0.00    +0.121 C 
BRANCH  24  25
ATOM     25  N   LIG    1        6.646   8.616  -0.326  0.00  0.00    -0.328 N 
ATOM     26  H   LIG    1        7.452   8.086  -0.226  0.00  0.00    +0.148 HD
BRANCH  25  27
ATOM     27  C   LIG    1        6.734   9.999  -0.439  0.00  0.00    +0.121 A 
ATOM     28  C   LIG    1        5.574  10.753  -0.576  0.00  0.00    +0.046 A 
ATOM     29  C   LIG    1        5.671  12.130  -0.688  0.00  0.00    +0.039 A 
ATOM     30  C   LIG    1        6.928  12.710  -0.659  0.00  0.00    +0.161 A 
ATOM     31  C   LIG    1        8.048  11.899  -0.520  0.00  0.00    +0.149 A 
ATOM     32  N   LIG    1        7.921  10.585  -0.410  0.00  0.00    -0.216 NA
BRANCH  31  33
ATOM     33  N   LIG    1        9.314  12.473  -0.490  0.00  0.00    -0.341 N 
ATOM     34  H   LIG    1       10.094  11.919  -0.332  0.00  0.00    +0.144 HD
ATOM     35  H   LIG    1        9.417  13.428  -0.628  0.00  0.00    +0.144 HD
ENDBRANCH  31  33
BRANCH  30  36
ATOM     36  N   LIG    1        7.078  14.178  -0.776  0.00  0.00    +0.009 N 
ATOM     37  O   LIG    1        6.278  14.912  -0.243  0.00  0.00    -0.130 OA
BRANCH  36  38
ATOM     38  O   LIG    1        7.999  14.644  -1.405  0.00  0.00    -0.396 OA
ATOM     39  H   LIG    1        8.619  14.076  -1.819  0.00  0.00    +0.329 HD
ENDBRANCH  36  38
ENDBRANCH  30  36
ENDBRANCH  25  27
ENDBRANCH  24  25
ENDBRANCH  23  24
ENDBRANCH  21  23
ENDBRANCH   5  21
TORSDOF 10
