REMARK  Name = ZINC34016806
REMARK                            x       y       z     vdW  Elec       q    Type
REMARK                         _______ _______ _______ _____ _____    ______ ____
ROOT
ATOM      1  C   LIG    1        0.302   1.764  -0.286  0.00  0.00    +0.000 C 
ATOM      2  C   LIG    1        1.845   1.884  -0.214  0.00  0.00    +0.000 C 
ATOM      3  C   LIG    1        2.321   0.641  -1.007  0.00  0.00    +0.005 C 
ATOM      4  C   LIG    1        1.317  -0.463  -0.618  0.00  0.00    -0.035 C 
ATOM      5  C   LIG    1        0.034   0.251  -0.160  0.00  0.00    +0.005 C 
ENDROOT
BRANCH   4   6
ATOM      6  C   LIG    1        1.020  -1.351  -1.829  0.00  0.00    -0.079 C 
BRANCH   6   7
ATOM      7  N   LIG    1        0.169  -2.475  -1.415  0.00  0.00    +0.378 N 
ATOM      8  H   LIG    1       -0.665  -2.120  -0.973  0.00  0.00    -0.090 HD
ATOM      9  H   LIG    1        0.674  -3.056  -0.762  0.00  0.00    -0.090 HD
ATOM     10  H   LIG    1       -0.085  -3.021  -2.224  0.00  0.00    -0.090 HD
ENDBRANCH   6   7
ENDBRANCH   4   6
BRANCH   4  11
ATOM     11  C   LIG    1        1.884  -1.308   0.525  0.00  0.00    +0.125 C 
BRANCH  11  12
ATOM     12  C   LIG    1        3.151  -1.985   0.069  0.00  0.00    +0.305 C 
ATOM     13  O   LIG    1        3.617  -1.731  -1.029  0.00  0.00    -0.251 OA
BRANCH  12  14
ATOM     14  O   LIG    1        3.709  -2.787   0.797  0.00  0.00    -0.481 OA
ATOM     15  H   LIG    1        3.351  -2.983   1.641  0.00  0.00    +0.295 HD
ENDBRANCH  12  14
ENDBRANCH  11  12
ENDBRANCH   4  11
TORSDOF 5
