REMARK  Name = ZINC36295151
REMARK                            x       y       z     vdW  Elec       q    Type
REMARK                         _______ _______ _______ _____ _____    ______ ____
ROOT
ATOM      1  C   LIG    1       -0.866  -3.799  -2.794  0.00  0.00    -0.018 A 
ATOM      2  C   LIG    1       -0.309  -4.445  -3.907  0.00  0.00    +0.044 A 
ATOM      3  C   LIG    1       -0.492  -5.798  -4.079  0.00  0.00    +0.167 A 
ATOM      4  C   LIG    1       -1.229  -6.527  -3.153  0.00  0.00    +0.189 A 
ATOM      5  C   LIG    1       -1.787  -5.892  -2.043  0.00  0.00    +0.161 A 
ATOM      6  C   LIG    1       -1.604  -4.537  -1.858  0.00  0.00    +0.057 A 
ENDROOT
BRANCH   1   8
ATOM      7  C   LIG    1       -0.594  -1.834  -1.335  0.00  0.00    +0.114 C 
ATOM      8  C   LIG    1       -0.672  -2.359  -2.607  0.00  0.00    +0.032 C 
BRANCH   7  11
ATOM      9  C   LIG    1       -0.416   1.584   0.297  0.00  0.00    +0.132 C 
ATOM     10  N   LIG    1       -0.325   0.138   0.079  0.00  0.00    -0.303 N 
ATOM     11  C   LIG    1       -0.571  -0.376  -1.142  0.00  0.00    +0.256 C 
ATOM     12  O   LIG    1       -0.775   0.366  -2.084  0.00  0.00    -0.269 OA
ATOM     13  C   LIG    1        0.035  -0.749   1.188  0.00  0.00    +0.132 C 
ENDBRANCH   7  11
BRANCH   7  14
ATOM     14  C   LIG    1       -0.536  -2.708  -0.202  0.00  0.00    +0.104 C 
ATOM     15  N   LIG    1       -0.490  -3.401   0.697  0.00  0.00    -0.191 NA
ENDBRANCH   7  14
ENDBRANCH   1   8
BRANCH   3  16
ATOM     16  N   LIG    1        0.096  -6.479  -5.254  0.00  0.00    +0.010 N 
ATOM     17  O   LIG    1        0.737  -5.846  -6.061  0.00  0.00    -0.130 OA
BRANCH  16  18
ATOM     18  O   LIG    1       -0.064  -7.667  -5.407  0.00  0.00    -0.396 OA
ATOM     19  H   LIG    1       -0.561  -8.157  -4.782  0.00  0.00    +0.329 HD
ENDBRANCH  16  18
ENDBRANCH   3  16
BRANCH   4  20
ATOM     20  O   LIG    1       -1.407  -7.861  -3.330  0.00  0.00    -0.502 OA
ATOM     21  H   LIG    1       -1.033  -8.289  -4.075  0.00  0.00    +0.292 HD
ENDBRANCH   4  20
BRANCH   5  22
ATOM     22  O   LIG    1       -2.508  -6.610  -1.141  0.00  0.00    -0.503 OA
ATOM     23  H   LIG    1       -1.980  -6.977  -0.419  0.00  0.00    +0.292 HD
ENDBRANCH   5  22
TORSDOF 7
