REMARK  Name = ZINC35337303
REMARK                            x       y       z     vdW  Elec       q    Type
REMARK                         _______ _______ _______ _____ _____    ______ ____
ROOT
ATOM      1  N   LIG    1        3.559   1.581  -6.289  0.00  0.00    -0.306 N 
ATOM      2  C   LIG    1        2.829   2.192  -7.258  0.00  0.00    +0.069 A 
ATOM      3  C   LIG    1        1.552   1.972  -7.779  0.00  0.00    +0.028 A 
ATOM      4  C   LIG    1        1.075   2.781  -8.787  0.00  0.00    +0.002 A 
ATOM      5  C   LIG    1        1.854   3.814  -9.288  0.00  0.00    +0.002 A 
ATOM      6  C   LIG    1        3.118   4.044  -8.784  0.00  0.00    +0.028 A 
ATOM      7  C   LIG    1        3.613   3.239  -7.769  0.00  0.00    +0.068 A 
ATOM      8  N   LIG    1        4.806   3.206  -7.065  0.00  0.00    -0.315 N 
ATOM      9  C   LIG    1        4.719   2.178  -6.170  0.00  0.00    +0.175 A 
ENDROOT
BRANCH   9  10
ATOM     10  N   LIG    1        5.707   1.820  -5.277  0.00  0.00    -0.330 N 
ATOM     11  H   LIG    1        6.541   2.316  -5.252  0.00  0.00    +0.145 HD
ATOM     12  H   LIG    1        5.568   1.073  -4.674  0.00  0.00    +0.145 HD
ENDBRANCH   9  10
BRANCH   1  13
ATOM     13  C   LIG    1        3.115   0.434  -5.493  0.00  0.00    +0.204 C 
BRANCH  13  14
ATOM     14  C   LIG    1        2.410   0.925  -4.255  0.00  0.00    +0.183 C 
ATOM     15  O   LIG    1        2.291   2.115  -4.056  0.00  0.00    -0.290 OA
BRANCH  14  18
ATOM     16  C   LIG    1        0.707  -0.490  -1.238  0.00  0.00    +0.000 A 
ATOM     17  C   LIG    1        1.212   0.414  -2.137  0.00  0.00    +0.019 A 
ATOM     18  C   LIG    1        1.868  -0.039  -3.288  0.00  0.00    +0.020 A 
ATOM     19  C   LIG    1        2.004  -1.414  -3.515  0.00  0.00    +0.019 A 
ATOM     20  C   LIG    1        1.496  -2.310  -2.610  0.00  0.00    +0.000 A 
ATOM     21  C   LIG    1        0.850  -1.855  -1.466  0.00  0.00    +0.124 A 
BRANCH  16  23
ATOM     22  C   LIG    1       -0.019   1.526   0.010  0.00  0.00    +0.015 C 
ATOM     23  C   LIG    1        0.002  -0.004   0.002  0.00  0.00    -0.009 C 
ATOM     24  C   LIG    1       -1.433  -0.534   0.013  0.00  0.00    +0.015 C 
ATOM     25  C   LIG    1        0.742  -0.511   1.242  0.00  0.00    +0.015 C 
ENDBRANCH  16  23
BRANCH  20  26
ATOM     26  C   LIG    1        1.642  -3.790  -2.853  0.00  0.00    -0.009 C 
ATOM     27  C   LIG    1        0.256  -4.433  -2.935  0.00  0.00    +0.015 C 
ATOM     28  C   LIG    1        2.429  -4.420  -1.703  0.00  0.00    +0.015 C 
ATOM     29  C   LIG    1        2.389  -4.019  -4.168  0.00  0.00    +0.015 C 
ENDBRANCH  20  26
BRANCH  21  30
ATOM     30  O   LIG    1        0.354  -2.745  -0.570  0.00  0.00    -0.506 OA
ATOM     31  H   LIG    1       -0.559  -3.011  -0.745  0.00  0.00    +0.292 HD
ENDBRANCH  21  30
ENDBRANCH  14  18
ENDBRANCH  13  14
ENDBRANCH   1  13
BRANCH   8  32
ATOM     32  C   LIG    1        5.946   4.108  -7.244  0.00  0.00    +0.106 C 
BRANCH  32  33
ATOM     33  C   LIG    1        5.787   5.319  -6.323  0.00  0.00    -0.057 C 
BRANCH  33  34
ATOM     34  N   LIG    1        6.931   6.224  -6.502  0.00  0.00    +0.384 N 
ATOM     35  H   LIG    1        7.016   6.469  -7.478  0.00  0.00    -0.082 HD
ATOM     36  C   LIG    1        8.160   5.555  -6.055  0.00  0.00    -0.050 C 
ATOM     37  C   LIG    1        9.350   6.500  -6.244  0.00  0.00    +0.141 C 
ATOM     38  O   LIG    1        9.113   7.707  -5.514  0.00  0.00    -0.383 OA
ATOM     39  C   LIG    1        7.913   8.384  -5.897  0.00  0.00    +0.141 C 
ATOM     40  C   LIG    1        6.721   7.442  -5.708  0.00  0.00    -0.050 C 
ENDBRANCH  33  34
ENDBRANCH  32  33
ENDBRANCH   8  32
TORSDOF 10
