REMARK  Name = ZINC40410832
REMARK                            x       y       z     vdW  Elec       q    Type
REMARK                         _______ _______ _______ _____ _____    ______ ____
ROOT
ATOM      1  C   LIG    1        3.383  -1.421  -7.468  0.00  0.00    +0.263 C 
ENDROOT
BRANCH   1   2
ATOM      2  S   LIG    1        2.476  -0.666  -6.091  0.00  0.00    -0.018 S 
ATOM      3  O   LIG    1        3.131   0.541  -5.729  0.00  0.00    -0.174 OA
ATOM      4  O   LIG    1        1.096  -0.629  -6.428  0.00  0.00    -0.174 OA
BRANCH   2   5
ATOM      5  C   LIG    1        2.707  -1.868  -4.752  0.00  0.00    +0.201 C 
BRANCH   5   9
ATOM      6  C   LIG    1        0.707  -0.490  -1.238  0.00  0.00    -0.042 A 
ATOM      7  C   LIG    1        0.036  -1.284  -2.148  0.00  0.00    +0.004 A 
ATOM      8  C   LIG    1        0.683  -1.730  -3.286  0.00  0.00    +0.005 A 
ATOM      9  C   LIG    1        2.001  -1.381  -3.513  0.00  0.00    -0.027 A 
ATOM     10  C   LIG    1        2.672  -0.586  -2.603  0.00  0.00    +0.005 A 
ATOM     11  C   LIG    1        2.024  -0.137  -1.467  0.00  0.00    +0.004 A 
BRANCH   6  13
ATOM     12  C   LIG    1       -0.019   1.526   0.010  0.00  0.00    +0.015 C 
ATOM     13  C   LIG    1        0.002  -0.004   0.002  0.00  0.00    -0.013 C 
ATOM     14  C   LIG    1       -1.433  -0.534   0.013  0.00  0.00    +0.015 C 
ATOM     15  C   LIG    1        0.742  -0.511   1.242  0.00  0.00    +0.015 C 
ENDBRANCH   6  13
ENDBRANCH   5   9
ENDBRANCH   2   5
ENDBRANCH   1   2
BRANCH   1  16
ATOM     16  C   LIG    1        3.288  -0.531  -8.681  0.00  0.00    +0.260 C 
ATOM     17  O   LIG    1        2.666   0.513  -8.621  0.00  0.00    -0.272 OA
BRANCH  16  18
ATOM     18  N   LIG    1        3.881  -0.887  -9.813  0.00  0.00    -0.152 NA
ATOM     19  C   LIG    1        3.796  -0.099 -10.887  0.00  0.00    +0.200 A 
ATOM     20  N   LIG    1        4.327  -0.295 -12.123  0.00  0.00    -0.166 N 
ATOM     21  C   LIG    1        4.118   0.643 -13.085  0.00  0.00    +0.077 A 
ATOM     22  C   LIG    1        3.392   1.716 -12.747  0.00  0.00    +0.073 A 
ATOM     23  S   LIG    1        3.001   1.375 -11.041  0.00  0.00    -0.057 S 
BRANCH  20  24
ATOM     24  O   LIG    1        5.086  -1.458 -12.405  0.00  0.00    -0.425 OA
ATOM     25  H   LIG    1        5.225  -2.099 -11.737  0.00  0.00    +0.326 HD
ENDBRANCH  20  24
BRANCH  21  26
ATOM     26  C   LIG    1        4.680   0.483 -14.473  0.00  0.00    +0.177 C 
BRANCH  26  27
ATOM     27  C   LIG    1        6.098   0.994 -14.503  0.00  0.00    +0.311 C 
ATOM     28  O   LIG    1        6.604   1.447 -13.491  0.00  0.00    -0.251 OA
BRANCH  27  29
ATOM     29  O   LIG    1        6.738   0.955 -15.540  0.00  0.00    -0.480 OA
ATOM     30  H   LIG    1        6.349   0.607 -16.318  0.00  0.00    +0.295 HD
ENDBRANCH  27  29
ENDBRANCH  26  27
ENDBRANCH  21  26
ENDBRANCH  16  18
ENDBRANCH   1  16
TORSDOF 10
