REMARK  Name = ZINC27990140
REMARK                            x       y       z     vdW  Elec       q    Type
REMARK                         _______ _______ _______ _____ _____    ______ ____
ROOT
ATOM      1  N   LIG    1       -0.083   5.254   0.030  0.00  0.00    -0.239 N 
ATOM      2  C   LIG    1       -1.191   6.016   0.039  0.00  0.00    +0.129 A 
ATOM      3  C   LIG    1       -0.783   7.336   0.047  0.00  0.00    +0.097 A 
ATOM      4  C   LIG    1        0.630   7.336   0.034  0.00  0.00    +0.149 A 
ATOM      5  N   LIG    1        1.035   6.096   0.024  0.00  0.00    -0.174 NA
ENDROOT
BRANCH   1  10
ATOM      6  C   LIG    1       -1.217   1.750   0.017  0.00  0.00    +0.003 A 
ATOM      7  C   LIG    1       -0.013   1.076   0.008  0.00  0.00    +0.019 A 
ATOM      8  C   LIG    1        1.187   1.791   0.000  0.00  0.00    +0.054 A 
ATOM      9  C   LIG    1        1.162   3.186   0.008  0.00  0.00    +0.046 A 
ATOM     10  C   LIG    1       -0.052   3.852   0.022  0.00  0.00    +0.067 A 
ATOM     11  C   LIG    1       -1.241   3.132   0.030  0.00  0.00    +0.028 A 
BRANCH   8  12
ATOM     12  C   LIG    1        2.438   1.094  -0.014  0.00  0.00    +0.099 C 
ATOM     13  N   LIG    1        3.431   0.542  -0.026  0.00  0.00    -0.191 NA
ENDBRANCH   8  12
ENDBRANCH   1  10
BRANCH   3  14
ATOM     14  C   LIG    1       -1.658   8.521   0.060  0.00  0.00    +0.340 C 
ATOM     15  O   LIG    1       -2.866   8.385   0.070  0.00  0.00    -0.245 OA
BRANCH  14  16
ATOM     16  O   LIG    1       -1.119   9.756   0.062  0.00  0.00    -0.477 OA
ATOM     17  H   LIG    1       -0.188   9.861   0.054  0.00  0.00    +0.295 HD
ENDBRANCH  14  16
ENDBRANCH   3  14
TORSDOF 4
