REMARK  Name = ZINC19702112
REMARK                            x       y       z     vdW  Elec       q    Type
REMARK                         _______ _______ _______ _____ _____    ______ ____
ROOT
ATOM      1  C   LIG    1       -1.433  -0.534   0.013  0.00  0.00    +0.267 C 
ENDROOT
BRANCH   1   2
ATOM      2  P   LIG    1       -2.287   0.054   1.513  0.00  0.00    +0.371 P 
ATOM      3  O   LIG    1       -1.539  -0.458   2.764  0.00  0.00    -0.255 OA
BRANCH   2   4
ATOM      4  O   LIG    1       -3.797  -0.503   1.524  0.00  0.00    -0.322 OA
ATOM      5  H   LIG    1       -4.312  -0.229   2.296  0.00  0.00    +0.220 HD
ENDBRANCH   2   4
BRANCH   2   6
ATOM      6  O   LIG    1       -2.308   1.599   1.521  0.00  0.00    -0.322 OA
ATOM      7  H   LIG    1       -1.397   1.935   1.514  0.00  0.00    +0.220 HD
ENDBRANCH   2   6
ENDBRANCH   1   2
BRANCH   1   8
ATOM      8  P   LIG    1       -1.409  -2.357   0.003  0.00  0.00    +0.371 P 
ATOM      9  O   LIG    1       -0.773  -2.870   1.314  0.00  0.00    -0.255 OA
BRANCH   8  10
ATOM     10  O   LIG    1       -0.578  -2.854  -1.201  0.00  0.00    -0.322 OA
ATOM     11  H   LIG    1        0.330  -2.518  -1.128  0.00  0.00    +0.220 HD
ENDBRANCH   8  10
BRANCH   8  12
ATOM     12  O   LIG    1       -2.914  -2.913  -0.118  0.00  0.00    -0.322 OA
ATOM     13  H   LIG    1       -2.978  -3.878  -0.129  0.00  0.00    +0.220 HD
ENDBRANCH   8  12
ENDBRANCH   1   8
BRANCH   1  14
ATOM     14  O   LIG    1       -2.124  -0.060  -1.145  0.00  0.00    -0.367 OA
ATOM     15  H   LIG    1       -1.725  -0.336  -1.981  0.00  0.00    +0.212 HD
ENDBRANCH   1  14
BRANCH   1  16
ATOM     16  C   LIG    1        0.002  -0.004   0.002  0.00  0.00    +0.058 C 
BRANCH  16  17
ATOM     17  C   LIG    1       -0.019   1.526   0.010  0.00  0.00    -0.016 C 
BRANCH  17  18
ATOM     18  C   LIG    1        1.417   2.055  -0.000  0.00  0.00    -0.086 C 
BRANCH  18  19
ATOM     19  N   LIG    1        1.397   3.524   0.008  0.00  0.00    +0.378 N 
ATOM     20  H   LIG    1        2.343   3.873   0.001  0.00  0.00    -0.090 HD
ATOM     21  H   LIG    1        0.924   3.850   0.838  0.00  0.00    -0.090 HD
ATOM     22  H   LIG    1        0.909   3.858  -0.810  0.00  0.00    -0.090 HD
ENDBRANCH  18  19
ENDBRANCH  17  18
ENDBRANCH  16  17
ENDBRANCH   1  16
TORSDOF 11
