REMARK  Name = ZINC14959026
REMARK                            x       y       z     vdW  Elec       q    Type
REMARK                         _______ _______ _______ _____ _____    ______ ____
ROOT
ATOM      1  C   LIG    1       -1.575   0.621  -1.913  0.00  0.00    +0.132 C 
ATOM      2  N   LIG    1       -0.652   1.520  -1.217  0.00  0.00    -0.299 N 
ATOM      3  C   LIG    1       -0.411   2.751  -1.710  0.00  0.00    +0.263 C 
ATOM      4  O   LIG    1        0.356   3.499  -1.132  0.00  0.00    -0.268 OA
ENDROOT
BRANCH   3   5
ATOM      5  C   LIG    1       -1.073   3.190  -2.943  0.00  0.00    +0.102 A 
ATOM      6  C   LIG    1       -0.787   4.334  -3.659  0.00  0.00    +0.032 A 
ATOM      7  C   LIG    1       -1.650   4.356  -4.759  0.00  0.00    +0.020 A 
ATOM      8  C   LIG    1       -2.437   3.256  -4.692  0.00  0.00    +0.083 A 
ATOM      9  N   LIG    1       -2.096   2.539  -3.594  0.00  0.00    -0.357 N 
ATOM     10  H   LIG    1       -2.505   1.705  -3.312  0.00  0.00    +0.165 HD
ENDBRANCH   3   5
BRANCH   2  11
ATOM     11  C   LIG    1        0.009   1.082   0.015  0.00  0.00    +0.112 C 
BRANCH  11  12
ATOM     12  C   LIG    1       -0.858   1.455   1.219  0.00  0.00    +0.054 C 
BRANCH  12  13
ATOM     13  C   LIG    1       -0.178   1.004   2.486  0.00  0.00    -0.046 A 
ATOM     14  C   LIG    1       -0.430  -0.257   2.995  0.00  0.00    +0.004 A 
ATOM     15  C   LIG    1        0.197  -0.672   4.154  0.00  0.00    +0.000 A 
ATOM     16  C   LIG    1        1.069   0.177   4.811  0.00  0.00    +0.000 A 
ATOM     17  C   LIG    1        1.316   1.439   4.305  0.00  0.00    +0.000 A 
ATOM     18  C   LIG    1        0.693   1.853   3.143  0.00  0.00    +0.004 A 
ENDBRANCH  12  13
ENDBRANCH  11  12
ENDBRANCH   2  11
TORSDOF 4
