REMARK  Name = ZINC35622996
REMARK                            x       y       z     vdW  Elec       q    Type
REMARK                         _______ _______ _______ _____ _____    ______ ____
ROOT
ATOM      1  N   LIG    1        4.125  -2.669  -0.011  0.00  0.00    -0.289 NA
ATOM      2  C   LIG    1        3.525  -2.060  -1.207  0.00  0.00    +0.100 C 
ATOM      3  C   LIG    1        3.256  -3.147  -2.249  0.00  0.00    +0.100 C 
ATOM      4  N   LIG    1        4.516  -3.825  -2.583  0.00  0.00    -0.292 NA
ATOM      5  C   LIG    1        5.116  -4.435  -1.388  0.00  0.00    +0.100 C 
ATOM      6  C   LIG    1        5.385  -3.347  -0.345  0.00  0.00    +0.100 C 
ENDROOT
BRANCH   1   7
ATOM      7  C   LIG    1        4.329  -1.667   1.044  0.00  0.00    +0.117 C 
BRANCH   7  11
ATOM      8  C   LIG    1        0.612   0.240   1.934  0.00  0.00    +0.000 A 
ATOM      9  C   LIG    1        1.777   0.984   1.887  0.00  0.00    +0.000 A 
ATOM     10  C   LIG    1        2.980   0.366   1.599  0.00  0.00    +0.005 A 
ATOM     11  C   LIG    1        3.018  -0.995   1.359  0.00  0.00    -0.026 A 
ATOM     12  C   LIG    1        1.854  -1.738   1.407  0.00  0.00    +0.005 A 
ATOM     13  C   LIG    1        0.651  -1.120   1.693  0.00  0.00    +0.000 A 
ENDBRANCH   7  11
BRANCH   7  14
ATOM     14  C   LIG    1        4.857  -2.344   2.283  0.00  0.00    -0.026 A 
ATOM     15  C   LIG    1        4.361  -3.577   2.662  0.00  0.00    +0.005 A 
ATOM     16  C   LIG    1        4.845  -4.197   3.799  0.00  0.00    +0.000 A 
ATOM     17  C   LIG    1        5.826  -3.584   4.556  0.00  0.00    +0.000 A 
ATOM     18  C   LIG    1        6.323  -2.351   4.176  0.00  0.00    +0.000 A 
ATOM     19  C   LIG    1        5.842  -1.733   3.037  0.00  0.00    +0.005 A 
ENDBRANCH   7  14
ENDBRANCH   1   7
BRANCH   4  20
ATOM     20  C   LIG    1        4.311  -4.827  -3.638  0.00  0.00    +0.181 C 
BRANCH  20  21
ATOM     21  C   LIG    1        5.648  -5.324  -4.125  0.00  0.00    +0.238 C 
ATOM     22  N   LIG    1        5.708  -6.333  -5.016  0.00  0.00    -0.239 N 
ATOM     23  O   LIG    1        6.670  -4.815  -3.715  0.00  0.00    -0.273 OA
BRANCH  22  24
ATOM     24  C   LIG    1        4.530  -6.856  -5.562  0.00  0.00    +0.041 A 
ATOM     25  C   LIG    1        3.756  -6.083  -6.418  0.00  0.00    +0.024 A 
ATOM     26  C   LIG    1        2.594  -6.602  -6.954  0.00  0.00    +0.002 A 
ATOM     27  C   LIG    1        2.200  -7.890  -6.639  0.00  0.00    +0.000 A 
ATOM     28  C   LIG    1        2.969  -8.662  -5.788  0.00  0.00    +0.002 A 
ATOM     29  C   LIG    1        4.135  -8.151  -5.253  0.00  0.00    +0.024 A 
ENDBRANCH  22  24
BRANCH  22  30
ATOM     30  C   LIG    1        6.949  -6.858  -5.397  0.00  0.00    +0.041 A 
ATOM     31  C   LIG    1        7.722  -7.554  -4.476  0.00  0.00    +0.024 A 
ATOM     32  C   LIG    1        8.946  -8.070  -4.855  0.00  0.00    +0.002 A 
ATOM     33  C   LIG    1        9.402  -7.896  -6.149  0.00  0.00    +0.000 A 
ATOM     34  C   LIG    1        8.634  -7.204  -7.068  0.00  0.00    +0.002 A 
ATOM     35  C   LIG    1        7.407  -6.690  -6.697  0.00  0.00    +0.024 A 
ENDBRANCH  22  30
ENDBRANCH  20  21
ENDBRANCH   4  20
TORSDOF 7
