REMARK  Name = ZINC26388017
REMARK                            x       y       z     vdW  Elec       q    Type
REMARK                         _______ _______ _______ _____ _____    ______ ____
ROOT
ATOM      1  C   LIG    1        1.399   1.996  -0.188  0.00  0.00    +0.000 C 
ATOM      2  C   LIG    1       -0.037   1.470  -0.131  0.00  0.00    +0.000 C 
ATOM      3  C   LIG    1       -0.017  -0.059  -0.073  0.00  0.00    +0.006 C 
ATOM      4  C   LIG    1        0.757  -0.512   1.160  0.00  0.00    -0.033 C 
ATOM      5  C   LIG    1        0.042  -0.034   2.437  0.00  0.00    -0.075 C 
ATOM      6  N   LIG    1       -0.796  -1.190   2.850  0.00  0.00    +0.380 N 
ATOM      7  H   LIG    1       -1.722  -1.203   2.256  0.00  0.00    -0.086 HD
ATOM      8  H   LIG    1       -1.046  -1.099   3.917  0.00  0.00    -0.086 HD
ATOM      9  C   LIG    1        0.056  -2.377   2.577  0.00  0.00    -0.067 C 
ATOM     10  C   LIG    1        2.184   0.023   1.127  0.00  0.00    +0.006 C 
ATOM     11  C   LIG    1        0.767  -2.048   1.246  0.00  0.00    +0.085 C 
ATOM     12  C   LIG    1        2.156   1.552   1.065  0.00  0.00    +0.000 C 
ENDROOT
BRANCH  11  13
ATOM     13  C   LIG    1        2.184  -2.562   1.267  0.00  0.00    +0.306 C 
ATOM     14  O   LIG    1        2.772  -2.670   2.317  0.00  0.00    -0.251 OA
BRANCH  13  15
ATOM     15  O   LIG    1        2.792  -2.901   0.119  0.00  0.00    -0.480 OA
ATOM     16  H   LIG    1        2.336  -2.817  -0.695  0.00  0.00    +0.295 HD
ENDBRANCH  13  15
ENDBRANCH  11  13
TORSDOF 2
