REMARK  Name = ZINC22064446
REMARK                            x       y       z     vdW  Elec       q    Type
REMARK                         _______ _______ _______ _____ _____    ______ ____
ROOT
ATOM      1  N   LIG    1        4.830   3.916   0.368  0.00  0.00    -0.294 NA
ATOM      2  C   LIG    1        4.716   5.147   1.169  0.00  0.00    +0.113 C 
ATOM      3  C   LIG    1        3.505   5.959   0.709  0.00  0.00    +0.176 C 
ATOM      4  O   LIG    1        2.329   5.140   0.778  0.00  0.00    -0.369 OA
ATOM      5  C   LIG    1        2.427   3.969  -0.029  0.00  0.00    +0.166 C 
ATOM      6  C   LIG    1        1.163   3.159  -0.002  0.00  0.00    -0.011 A 
ATOM      7  C   LIG    1       -0.049   3.831   0.017  0.00  0.00    +0.052 A 
ATOM      8  C   LIG    1       -1.242   3.128   0.029  0.00  0.00    +0.117 A 
ATOM      9  C   LIG    1       -1.220   1.741   0.017  0.00  0.00    +0.045 A 
ATOM     10  C   LIG    1       -0.013   1.076   0.008  0.00  0.00    +0.007 A 
ATOM     11  C   LIG    1        1.186   1.779   0.000  0.00  0.00    -0.041 A 
ATOM     12  C   LIG    1        2.463   0.982   0.010  0.00  0.00    +0.037 C 
ATOM     13  C   LIG    1        3.667   1.851  -0.350  0.00  0.00    +0.026 C 
ATOM     14  C   LIG    1        3.598   3.129   0.484  0.00  0.00    +0.090 C 
ENDROOT
BRANCH   8  15
ATOM     15  O   LIG    1       -2.428   3.793   0.048  0.00  0.00    -0.507 OA
ATOM     16  H   LIG    1       -3.373   3.231   0.058  0.00  0.00    +0.292 HD
ENDBRANCH   8  15
BRANCH   1  17
ATOM     17  C   LIG    1        6.000   3.127   0.778  0.00  0.00    +0.084 C 
BRANCH  17  19
ATOM     18  C   LIG    1        8.496   3.060   0.840  0.00  0.00    +0.005 C 
ATOM     19  C   LIG    1        7.279   3.882   0.412  0.00  0.00    +0.012 C 
ENDBRANCH  17  19
ENDBRANCH   1  17
TORSDOF 3
