REMARK  Name = ZINC28383270
REMARK                            x       y       z     vdW  Elec       q    Type
REMARK                         _______ _______ _______ _____ _____    ______ ____
ROOT
ATOM      1  C   LIG    1        4.366  -0.130  -4.020  0.00  0.00    +0.011 C 
ATOM      2  C   LIG    1        3.826   1.275  -3.748  0.00  0.00    +0.029 C 
ATOM      3  C   LIG    1        3.707   1.515  -2.219  0.00  0.00    +0.011 C 
ATOM      4  C   LIG    1        2.243   1.167  -1.929  0.00  0.00    +0.005 C 
ATOM      5  C   LIG    1        1.653   1.785  -0.675  0.00  0.00    +0.034 C 
ATOM      6  C   LIG    1        2.381   1.250   0.560  0.00  0.00    +0.011 C 
ATOM      7  C   LIG    1        1.810   1.909   1.820  0.00  0.00    +0.032 C 
ATOM      8  C   LIG    1        0.311   1.675   1.838  0.00  0.00    -0.053 C 
ATOM      9  C   LIG    1       -0.246   1.165   2.927  0.00  0.00    +0.051 C 
ATOM     10  C   LIG    1       -1.694   0.904   2.974  0.00  0.00    +0.179 C 
ATOM     11  C   LIG    1       -2.496   1.177   1.770  0.00  0.00    +0.047 C 
ATOM     12  C   LIG    1       -1.919   1.692   0.696  0.00  0.00    -0.009 C 
ATOM     13  O   LIG    1       -2.216   0.473   3.985  0.00  0.00    -0.288 OA
ATOM     14  C   LIG    1       -0.472   2.039   0.611  0.00  0.00    +0.044 C 
ATOM     15  C   LIG    1       -0.381   3.555   0.431  0.00  0.00    +0.023 C 
ATOM     16  C   LIG    1        0.171   1.383  -0.615  0.00  0.00    +0.153 C 
ATOM     17  F   LIG    1        0.075  -0.007  -0.496  0.00  0.00    -0.238 F 
ATOM     18  C   LIG    1       -0.587   1.835  -1.859  0.00  0.00    +0.154 C 
ATOM     19  C   LIG    1        0.097   1.292  -3.146  0.00  0.00    +0.045 C 
ATOM     20  C   LIG    1        1.521   1.814  -3.141  0.00  0.00    +0.013 C 
ATOM     21  C   LIG    1        1.513   3.337  -2.988  0.00  0.00    +0.015 C 
ATOM     22  C   LIG    1        2.396   1.416  -4.325  0.00  0.00    +0.170 C 
ENDROOT
BRANCH  18  23
ATOM     23  O   LIG    1       -0.615   3.263  -1.896  0.00  0.00    -0.389 OA
ATOM     24  H   LIG    1       -1.120   3.782  -2.724  0.00  0.00    +0.210 HD
ENDBRANCH  18  23
BRANCH  22  25
ATOM     25  O   LIG    1        1.954   0.170  -4.870  0.00  0.00    -0.377 OA
ATOM     26  H   LIG    1        0.955   0.091  -5.323  0.00  0.00    +0.211 HD
ENDBRANCH  22  25
BRANCH  22  27
ATOM     27  C   LIG    1        2.362   2.488  -5.384  0.00  0.00    +0.338 C 
ATOM     28  O   LIG    1        3.234   3.324  -5.424  0.00  0.00    -0.248 OA
BRANCH  27  29
ATOM     29  O   LIG    1        1.365   2.514  -6.281  0.00  0.00    -0.479 OA
ATOM     30  H   LIG    1        0.689   1.866  -6.250  0.00  0.00    +0.295 HD
ENDBRANCH  27  29
ENDBRANCH  22  27
TORSDOF 4
