REMARK  Name = ZINC00057914
REMARK                            x       y       z     vdW  Elec       q    Type
REMARK                         _______ _______ _______ _____ _____    ______ ____
ROOT
ATOM      1  C   LIG    1       -0.018   1.503   0.010  0.00  0.00    +0.046 C 
ATOM      2  C   LIG    1        0.002  -0.004   0.002  0.00  0.00    -0.015 A 
ATOM      3  C   LIG    1       -1.244  -0.773   0.004  0.00  0.00    +0.022 A 
ATOM      4  C   LIG    1       -2.487  -0.130   0.013  0.00  0.00    +0.015 A 
ATOM      5  C   LIG    1       -3.634  -0.871   0.014  0.00  0.00    +0.046 A 
ATOM      6  C   LIG    1       -3.575  -2.263   0.006  0.00  0.00    +0.120 A 
ATOM      7  C   LIG    1       -2.353  -2.916  -0.003  0.00  0.00    +0.092 A 
ATOM      8  C   LIG    1       -1.178  -2.179  -0.005  0.00  0.00    +0.143 A 
ATOM      9  O   LIG    1        0.023  -2.796  -0.015  0.00  0.00    -0.421 OA
ATOM     10  C   LIG    1        1.169  -2.097  -0.018  0.00  0.00    +0.356 A 
ATOM     11  O   LIG    1        2.229  -2.697  -0.028  0.00  0.00    -0.244 OA
ATOM     12  C   LIG    1        1.177  -0.686  -0.013  0.00  0.00    +0.129 A 
ATOM     13 CL   LIG    1        2.684   0.176  -0.023  0.00  0.00    -0.076 Cl
ENDROOT
BRANCH   6  14
ATOM     14  O   LIG    1       -4.724  -2.986   0.007  0.00  0.00    -0.507 OA
ATOM     15  H   LIG    1       -5.061  -3.190  -0.876  0.00  0.00    +0.292 HD
ENDBRANCH   6  14
TORSDOF 1
