REMARK  Name = ZINC00020248
REMARK                            x       y       z     vdW  Elec       q    Type
REMARK                         _______ _______ _______ _____ _____    ______ ____
ROOT
ATOM      1  N   LIG    1       -2.770  -4.031  -0.119  0.00  0.00    -0.300 N 
ATOM      2  C   LIG    1       -2.730  -4.684  -1.345  0.00  0.00    +0.037 A 
ATOM      3  C   LIG    1       -1.826  -4.166  -2.281  0.00  0.00    +0.024 A 
ATOM      4  C   LIG    1       -1.680  -4.748  -3.519  0.00  0.00    +0.002 A 
ATOM      5  C   LIG    1       -2.437  -5.861  -3.838  0.00  0.00    +0.000 A 
ATOM      6  C   LIG    1       -3.333  -6.365  -2.925  0.00  0.00    +0.005 A 
ATOM      7  C   LIG    1       -3.504  -5.775  -1.669  0.00  0.00    -0.026 A 
ATOM      8  C   LIG    1       -4.574  -6.417  -0.822  0.00  0.00    +0.042 C 
ATOM      9  C   LIG    1       -4.992  -5.603   0.378  0.00  0.00    +0.042 C 
ATOM     10  C   LIG    1       -3.889  -5.468   1.384  0.00  0.00    -0.026 A 
ATOM     11  C   LIG    1       -3.975  -6.126   2.600  0.00  0.00    +0.007 A 
ATOM     12  C   LIG    1       -2.925  -6.013   3.514  0.00  0.00    +0.020 A 
ATOM     13  C   LIG    1       -1.809  -5.252   3.213  0.00  0.00    +0.043 A 
ATOM     14 CL   LIG    1       -0.506  -5.131   4.354  0.00  0.00    -0.083 Cl
ATOM     15  C   LIG    1       -1.732  -4.588   2.000  0.00  0.00    +0.043 A 
ATOM     16  C   LIG    1       -2.784  -4.699   1.102  0.00  0.00    +0.039 A 
ENDROOT
BRANCH   1  17
ATOM     17  C   LIG    1       -2.794  -2.566  -0.111  0.00  0.00    +0.109 C 
BRANCH  17  18
ATOM     18  C   LIG    1       -4.240  -2.080  -0.004  0.00  0.00    +0.001 C 
BRANCH  18  19
ATOM     19  C   LIG    1       -4.258  -0.555   0.119  0.00  0.00    -0.078 C 
BRANCH  19  21
ATOM     20  C   LIG    1       -5.660   1.362   0.460  0.00  0.00    -0.097 C 
ATOM     21  N   LIG    1       -5.647  -0.088   0.222  0.00  0.00    +0.376 N 
ATOM     22  H   LIG    1       -6.104  -0.558   0.988  0.00  0.00    -0.083 HD
ATOM     23  C   LIG    1       -6.357  -0.385  -1.029  0.00  0.00    -0.097 C 
ENDBRANCH  19  21
ENDBRANCH  18  19
ENDBRANCH  17  18
ENDBRANCH   1  17
TORSDOF 4
