REMARK  Name = ZINC45951686
REMARK                            x       y       z     vdW  Elec       q    Type
REMARK                         _______ _______ _______ _____ _____    ______ ____
ROOT
ATOM      1  C   LIG    1       -0.017   1.363   0.009  0.00  0.00    +0.001 A 
ATOM      2  C   LIG    1        1.171   2.082   0.002  0.00  0.00    +0.004 A 
ATOM      3  C   LIG    1        2.387   1.433  -0.013  0.00  0.00    +0.047 A 
ATOM      4  C   LIG    1        2.430   0.044  -0.021  0.00  0.00    +0.136 A 
ATOM      5  C   LIG    1        1.224  -0.679  -0.013  0.00  0.00    +0.021 A 
ATOM      6  C   LIG    1        1.610  -2.092  -0.025  0.00  0.00    +0.060 A 
ATOM      7  C   LIG    1        2.965  -2.111  -0.039  0.00  0.00    +0.155 A 
ATOM      8  O   LIG    1        3.439  -0.849  -0.036  0.00  0.00    -0.453 OA
ATOM      9  C   LIG    1        0.002  -0.004   0.002  0.00  0.00    +0.011 A 
ENDROOT
BRANCH   7  10
ATOM     10  C   LIG    1        3.796  -3.331  -0.054  0.00  0.00    +0.111 A 
ATOM     11  C   LIG    1        5.193  -3.239  -0.062  0.00  0.00    +0.051 A 
ATOM     12  C   LIG    1        5.929  -4.409  -0.075  0.00  0.00    +0.116 A 
ATOM     13  N   LIG    1        5.297  -5.573  -0.081  0.00  0.00    -0.223 NA
ATOM     14  C   LIG    1        3.973  -5.631  -0.073  0.00  0.00    +0.213 A 
ATOM     15  N   LIG    1        3.229  -4.537  -0.055  0.00  0.00    -0.212 NA
BRANCH  14  16
ATOM     16  N   LIG    1        3.353  -6.869  -0.080  0.00  0.00    -0.327 N 
ATOM     17  H   LIG    1        2.385  -6.926  -0.074  0.00  0.00    +0.145 HD
ATOM     18  H   LIG    1        3.887  -7.679  -0.089  0.00  0.00    +0.145 HD
ENDBRANCH  14  16
ENDBRANCH   7  10
TORSDOF 2
