REMARK  Name = ZINC49013809
REMARK                            x       y       z     vdW  Elec       q    Type
REMARK                         _______ _______ _______ _____ _____    ______ ____
ROOT
ATOM      1  C   LIG    1        0.612  -2.125  -1.597  0.00  0.00    +0.019 C 
ENDROOT
BRANCH   1   2
ATOM      2  C   LIG    1        1.444  -2.620  -2.752  0.00  0.00    -0.049 A 
ATOM      3  C   LIG    1        0.900  -2.670  -4.022  0.00  0.00    +0.004 A 
ATOM      4  C   LIG    1        1.660  -3.123  -5.083  0.00  0.00    +0.015 A 
ATOM      5  C   LIG    1        2.972  -3.529  -4.872  0.00  0.00    +0.008 A 
ATOM      6  C   LIG    1        3.515  -3.477  -3.593  0.00  0.00    +0.015 A 
ATOM      7  C   LIG    1        2.751  -3.018  -2.539  0.00  0.00    +0.004 A 
BRANCH   5   8
ATOM      8  S   LIG    1        3.945  -4.109  -6.221  0.00  0.00    -0.129 S 
ATOM      9  C   LIG    1        5.545  -4.512  -5.468  0.00  0.00    +0.090 C 
ENDBRANCH   5   8
ENDBRANCH   1   2
BRANCH   1  10
ATOM     10  C   LIG    1        0.781  -0.610  -1.459  0.00  0.00    -0.068 C 
BRANCH  10  11
ATOM     11  N   LIG    1        2.171  -0.304  -1.095  0.00  0.00    +0.379 N 
ATOM     12  H   LIG    1        2.795  -0.721  -1.770  0.00  0.00    -0.086 HD
ATOM     13  H   LIG    1        2.369  -0.677  -0.179  0.00  0.00    -0.086 HD
ATOM     14  C   LIG    1        2.365   1.152  -1.083  0.00  0.00    -0.100 C 
ENDBRANCH  10  11
BRANCH  10  16
ATOM     15  C   LIG    1       -1.610  -0.298  -0.804  0.00  0.00    +0.002 C 
ATOM     16  C   LIG    1       -0.158  -0.090  -0.368  0.00  0.00    -0.019 C 
ENDBRANCH  10  16
ENDBRANCH   1  10
TORSDOF 5
