REMARK  Name = ZINC15834250
REMARK                            x       y       z     vdW  Elec       q    Type
REMARK                         _______ _______ _______ _____ _____    ______ ____
ROOT
ATOM      1  C   LIG    1        0.780   4.831  -3.445  0.00  0.00    +0.069 A 
ATOM      2  C   LIG    1        2.149   4.882  -3.367  0.00  0.00    +0.089 A 
ATOM      3  C   LIG    1        2.514   4.382  -2.017  0.00  0.00    +0.082 A 
ATOM      4  N   LIG    1        3.870   4.331  -1.659  0.00  0.00    -0.294 N 
ATOM      5  C   LIG    1        4.293   3.849  -0.342  0.00  0.00    +0.154 C 
ATOM      6  C   LIG    1        4.769   4.747  -2.578  0.00  0.00    +0.332 A 
ATOM      7  N   LIG    1        4.476   5.200  -3.801  0.00  0.00    -0.263 N 
ATOM      8  C   LIG    1        5.583   5.607  -4.669  0.00  0.00    +0.157 C 
ATOM      9  O   LIG    1        5.943   4.706  -2.266  0.00  0.00    -0.246 OA
ATOM     10  C   LIG    1        1.379   4.065  -1.411  0.00  0.00    +0.073 A 
ATOM     11  C   LIG    1        1.157   3.480  -0.033  0.00  0.00    +0.153 C 
ATOM     12  N   LIG    1       -0.190   3.870   0.411  0.00  0.00    -0.330 N 
ATOM     13  H   LIG    1       -0.343   4.113   1.337  0.00  0.00    +0.147 HD
ATOM     14  C   LIG    1       -1.252   3.892  -0.500  0.00  0.00    +0.052 A 
ATOM     15  C   LIG    1       -2.552   3.675  -0.070  0.00  0.00    +0.025 A 
ATOM     16  C   LIG    1       -3.598   3.752  -0.971  0.00  0.00    +0.002 A 
ATOM     17  C   LIG    1       -3.357   4.048  -2.300  0.00  0.00    +0.002 A 
ATOM     18  C   LIG    1       -2.062   4.258  -2.742  0.00  0.00    +0.028 A 
ATOM     19  C   LIG    1       -1.010   4.164  -1.851  0.00  0.00    +0.068 A 
ATOM     20  C   LIG    1        3.212   5.305  -4.285  0.00  0.00    +0.266 A 
ATOM     21  O   LIG    1        2.976   5.720  -5.404  0.00  0.00    -0.267 OA
ATOM     22  N   LIG    1        0.319   4.353  -2.258  0.00  0.00    -0.306 N 
ENDROOT
BRANCH   1  28
ATOM     23  C   LIG    1       -0.428   4.295  -8.256  0.00  0.00    +0.044 C 
ATOM     24  C   LIG    1       -0.628   4.969  -6.922  0.00  0.00    -0.050 A 
ATOM     25  C   LIG    1       -1.585   5.959  -6.786  0.00  0.00    +0.003 A 
ATOM     26  C   LIG    1       -1.775   6.583  -5.565  0.00  0.00    +0.001 A 
ATOM     27  C   LIG    1       -1.010   6.222  -4.476  0.00  0.00    +0.010 A 
ATOM     28  C   LIG    1       -0.042   5.223  -4.606  0.00  0.00    -0.000 A 
ATOM     29  C   LIG    1        0.147   4.601  -5.843  0.00  0.00    +0.013 A 
ENDBRANCH   1  28
BRANCH  11  30
ATOM     30  C   LIG    1        1.258   1.978  -0.095  0.00  0.00    +0.014 A 
ATOM     31  C   LIG    1        1.184   1.329  -1.313  0.00  0.00    +0.008 A 
ATOM     32  C   LIG    1        1.278  -0.049  -1.370  0.00  0.00    +0.001 A 
ATOM     33  C   LIG    1        1.446  -0.780  -0.209  0.00  0.00    +0.003 A 
ATOM     34  C   LIG    1        1.519  -0.134   1.010  0.00  0.00    +0.039 A 
ATOM     35  C   LIG    1        1.425   1.246   1.069  0.00  0.00    +0.129 A 
ATOM     36  F   LIG    1        1.497   1.879   2.260  0.00  0.00    -0.205 F 
ENDBRANCH  11  30
TORSDOF 2
