REMARK  Name = ZINC29127489
REMARK                            x       y       z     vdW  Elec       q    Type
REMARK                         _______ _______ _______ _____ _____    ______ ____
ROOT
ATOM      1  C   LIG    1       -0.013   1.076   0.008  0.00  0.00    +0.028 C 
ATOM      2  C   LIG    1        1.201   1.722   0.201  0.00  0.00    +0.097 C 
ATOM      3  C   LIG    1        2.467   0.972   0.280  0.00  0.00    +0.218 C 
ATOM      4  N   LIG    1        3.609   1.666   0.468  0.00  0.00    -0.127 NA
ATOM      5  C   LIG    1        3.606   3.001   0.582  0.00  0.00    +0.340 C 
ATOM      6  N   LIG    1        2.493   3.746   0.520  0.00  0.00    -0.188 N 
ATOM      7  O   LIG    1        4.668   3.567   0.751  0.00  0.00    -0.250 OA
ATOM      8  C   LIG    1        1.280   3.187   0.330  0.00  0.00    +0.263 C 
ATOM      9  O   LIG    1        0.278   3.874   0.271  0.00  0.00    -0.269 OA
ENDROOT
BRANCH   1  13
ATOM     10  C   LIG    1       -3.058   4.448  -1.951  0.00  0.00    +0.149 C 
ATOM     11  N   LIG    1       -2.563   3.338  -1.132  0.00  0.00    -0.349 N 
ATOM     12  C   LIG    1       -1.299   2.880  -1.150  0.00  0.00    +0.094 A 
ATOM     13  C   LIG    1       -1.175   1.826  -0.261  0.00  0.00    +0.001 A 
ATOM     14  C   LIG    1       -2.507   1.651   0.353  0.00  0.00    +0.007 A 
ATOM     15  C   LIG    1       -3.024   0.781   1.308  0.00  0.00    +0.010 A 
ATOM     16  C   LIG    1       -4.349   0.880   1.676  0.00  0.00    +0.001 A 
ATOM     17  C   LIG    1       -5.164   1.841   1.099  0.00  0.00    +0.002 A 
ATOM     18  C   LIG    1       -4.665   2.709   0.152  0.00  0.00    +0.026 A 
ATOM     19  C   LIG    1       -3.330   2.625  -0.232  0.00  0.00    +0.049 A 
ENDBRANCH   1  13
BRANCH   6  20
ATOM     20  C   LIG    1        2.592   5.135   0.650  0.00  0.00    +0.053 A 
ATOM     21  C   LIG    1        2.780   5.925  -0.463  0.00  0.00    +0.024 A 
ATOM     22  C   LIG    1        2.875   7.309  -0.345  0.00  0.00    +0.002 A 
ATOM     23  C   LIG    1        2.796   7.918   0.870  0.00  0.00    +0.008 A 
ATOM     24  C   LIG    1        2.610   7.147   2.030  0.00  0.00    -0.016 A 
ATOM     25  C   LIG    1        2.525   7.749   3.298  0.00  0.00    +0.008 A 
ATOM     26  C   LIG    1        2.346   6.972   4.401  0.00  0.00    +0.001 A 
ATOM     27  C   LIG    1        2.244   5.586   4.294  0.00  0.00    +0.001 A 
ATOM     28  C   LIG    1        2.322   4.970   3.083  0.00  0.00    +0.010 A 
ATOM     29  C   LIG    1        2.507   5.739   1.922  0.00  0.00    +0.004 A 
ENDBRANCH   6  20
BRANCH   3  30
ATOM     30  O   LIG    1        2.483  -0.240   0.177  0.00  0.00    -0.493 OA
ATOM     31  H   LIG    1        1.682  -0.710   0.046  0.00  0.00    +0.294 HD
ENDBRANCH   3  30
TORSDOF 3
