REMARK  Name = ZINC40878304
REMARK                            x       y       z     vdW  Elec       q    Type
REMARK                         _______ _______ _______ _____ _____    ______ ____
ROOT
ATOM      1  C   LIG    1       -0.016   1.356   0.009  0.00  0.00    +0.064 A 
ATOM      2  C   LIG    1        1.258   2.073   0.001  0.00  0.00    +0.042 A 
ATOM      3  C   LIG    1        1.294   3.475   0.009  0.00  0.00    +0.088 A 
ATOM      4 CL   LIG    1       -0.171   4.407   0.027  0.00  0.00    -0.080 Cl
ATOM      5  C   LIG    1        2.533   4.095   0.001  0.00  0.00    +0.160 A 
ATOM      6  F   LIG    1        2.622   5.443   0.007  0.00  0.00    -0.202 F 
ATOM      7  C   LIG    1        3.682   3.317  -0.015  0.00  0.00    +0.153 A 
ATOM      8  N   LIG    1        3.623   2.001  -0.022  0.00  0.00    -0.234 NA
ATOM      9  C   LIG    1        2.466   1.352  -0.014  0.00  0.00    +0.143 A 
ATOM     10  N   LIG    1        2.444  -0.025  -0.022  0.00  0.00    -0.304 N 
ATOM     11  H   LIG    1        3.282  -0.514  -0.033  0.00  0.00    +0.170 HD
ATOM     12  C   LIG    1        1.284  -0.704  -0.016  0.00  0.00    +0.292 A 
ATOM     13  O   LIG    1        1.302  -1.923  -0.023  0.00  0.00    -0.264 OA
ATOM     14  C   LIG    1        0.002  -0.004   0.002  0.00  0.00    +0.182 A 
ENDROOT
BRANCH  14  15
ATOM     15  O   LIG    1       -1.163  -0.706   0.010  0.00  0.00    -0.502 OA
ATOM     16  H   LIG    1       -1.044  -1.665   0.004  0.00  0.00    +0.292 HD
ENDBRANCH  14  15
TORSDOF 1
