REMARK  Name = ZINC38491915
REMARK                            x       y       z     vdW  Elec       q    Type
REMARK                         _______ _______ _______ _____ _____    ______ ____
ROOT
ATOM      1  C   LIG    1       -3.186  -8.624   4.738  0.00  0.00    +0.146 A 
ATOM      2  C   LIG    1       -2.040  -9.278   5.184  0.00  0.00    +0.048 A 
ATOM      3  C   LIG    1       -2.136 -10.320   6.061  0.00  0.00    +0.019 A 
ATOM      4  C   LIG    1       -3.393 -10.732   6.516  0.00  0.00    +0.063 A 
ATOM      5  C   LIG    1       -3.525 -11.850   7.460  0.00  0.00    +0.156 A 
ATOM      6  C   LIG    1       -4.796 -12.205   7.869  0.00  0.00    +0.162 A 
ATOM      7  C   LIG    1       -5.907 -11.495   7.374  0.00  0.00    +0.362 A 
ATOM      8  O   LIG    1       -5.766 -10.477   6.511  0.00  0.00    -0.419 OA
ATOM      9  O   LIG    1       -7.025 -11.814   7.739  0.00  0.00    -0.243 OA
ATOM     10  C   LIG    1       -4.554 -10.077   6.071  0.00  0.00    +0.164 A 
ATOM     11  C   LIG    1       -4.439  -9.017   5.182  0.00  0.00    +0.126 A 
ATOM     12 CL   LIG    1       -5.859  -8.190   4.625  0.00  0.00    -0.076 Cl
ENDROOT
BRANCH   6  13
ATOM     13  N   LIG    1       -4.979 -13.267   8.771  0.00  0.00    -0.273 N 
ATOM     14  H   LIG    1       -4.667 -14.156   8.542  0.00  0.00    +0.155 HD
ATOM     15  C   LIG    1       -5.587 -13.049   9.954  0.00  0.00    +0.249 C 
ATOM     16  O   LIG    1       -6.052 -11.953  10.206  0.00  0.00    -0.270 OA
BRANCH  15  17
ATOM     17  C   LIG    1       -5.689 -14.139  10.943  0.00  0.00    +0.038 A 
ATOM     18  C   LIG    1       -5.151 -15.397  10.657  0.00  0.00    +0.016 A 
ATOM     19  C   LIG    1       -5.249 -16.412  11.582  0.00  0.00    +0.046 A 
ATOM     20  C   LIG    1       -5.882 -16.187  12.799  0.00  0.00    +0.120 A 
ATOM     21  C   LIG    1       -6.418 -14.938  13.087  0.00  0.00    -0.002 A 
ATOM     22  C   LIG    1       -6.320 -13.915  12.169  0.00  0.00    +0.020 A 
BRANCH  20  23
ATOM     23  O   LIG    1       -5.976 -17.190  13.709  0.00  0.00    -0.506 OA
ATOM     24  H   LIG    1       -5.234 -17.232  14.327  0.00  0.00    +0.292 HD
ENDBRANCH  20  23
BRANCH  21  25
ATOM     25  C   LIG    1       -7.104 -14.699  14.408  0.00  0.00    +0.066 C 
BRANCH  25  26
ATOM     26  C   LIG    1       -8.506 -15.248  14.353  0.00  0.00    -0.023 C 
ATOM     27  C   LIG    1       -9.526 -14.466  14.608  0.00  0.00    -0.079 C 
ATOM     28  C   LIG    1      -10.932 -14.980  14.436  0.00  0.00    +0.038 C 
ATOM     29  C   LIG    1       -9.293 -13.052  15.074  0.00  0.00    +0.038 C 
ENDBRANCH  25  26
ENDBRANCH  21  25
ENDBRANCH  15  17
ENDBRANCH   6  13
BRANCH   5  30
ATOM     30  O   LIG    1       -2.434 -12.511   7.916  0.00  0.00    -0.504 OA
ATOM     31  H   LIG    1       -1.579 -12.258   7.630  0.00  0.00    +0.292 HD
ENDBRANCH   5  30
BRANCH   1  32
ATOM     32  O   LIG    1       -3.075  -7.590   3.865  0.00  0.00    -0.459 OA
BRANCH  32  35
ATOM     33  C   LIG    1       -0.420  -5.722   1.975  0.00  0.00    +0.243 C 
ATOM     34  C   LIG    1       -1.838  -6.140   2.377  0.00  0.00    +0.226 C 
ATOM     35  C   LIG    1       -1.756  -7.234   3.445  0.00  0.00    +0.341 C 
ATOM     36  O   LIG    1       -1.014  -6.749   4.565  0.00  0.00    -0.331 OA
ATOM     37  C   LIG    1        0.334  -6.387   4.260  0.00  0.00    +0.098 C 
ATOM     38  C   LIG    1        1.036  -5.911   5.533  0.00  0.00    +0.044 C 
ATOM     39  C   LIG    1        1.072  -7.601   3.693  0.00  0.00    +0.044 C 
ATOM     40  C   LIG    1        0.338  -5.260   3.223  0.00  0.00    +0.192 C 
BRANCH  34  41
ATOM     41  O   LIG    1       -2.531  -6.641   1.231  0.00  0.00    -0.382 OA
ATOM     42  H   LIG    1       -3.437  -6.925   1.413  0.00  0.00    +0.210 HD
ENDBRANCH  34  41
BRANCH  40  43
ATOM     43  O   LIG    1       -0.302  -4.107   3.772  0.00  0.00    -0.373 OA
ATOM     44  C   LIG    1        0.188  -2.868   3.254  0.00  0.00    +0.194 C 
ENDBRANCH  40  43
BRANCH  33  45
ATOM     45  O   LIG    1       -0.487  -4.651   1.032  0.00  0.00    -0.451 OA
BRANCH  45  46
ATOM     46  C   LIG    1       -0.532  -4.986  -0.274  0.00  0.00    +0.356 C 
ATOM     47  O   LIG    1       -0.516  -6.157  -0.602  0.00  0.00    -0.243 OA
BRANCH  46  52
ATOM     48  C   LIG    1       -0.739  -0.454  -2.455  0.00  0.00    +0.063 C 
ATOM     49  C   LIG    1       -0.693  -1.947  -2.262  0.00  0.00    +0.013 A 
ATOM     50  C   LIG    1       -0.711  -2.870  -3.253  0.00  0.00    +0.023 A 
ATOM     51  C   LIG    1       -0.653  -4.136  -2.662  0.00  0.00    +0.034 A 
ATOM     52  C   LIG    1       -0.601  -3.940  -1.297  0.00  0.00    +0.125 A 
ATOM     53  N   LIG    1       -0.621  -2.582  -1.073  0.00  0.00    -0.353 N 
ATOM     54  H   LIG    1       -0.592  -2.152  -0.204  0.00  0.00    +0.166 HD
ENDBRANCH  46  52
ENDBRANCH  45  46
ENDBRANCH  33  45
ENDBRANCH  32  35
ENDBRANCH   1  32
TORSDOF 13
