REMARK  Name = ZINC41162055
REMARK                            x       y       z     vdW  Elec       q    Type
REMARK                         _______ _______ _______ _____ _____    ______ ____
ROOT
ATOM      1  N   LIG    1        1.144  -2.858  -0.024  0.00  0.00    -0.309 N 
ATOM      2  C   LIG    1       -0.326  -2.801  -0.015  0.00  0.00    +0.134 C 
ATOM      3  C   LIG    1       -0.851  -3.703  -1.138  0.00  0.00    +0.179 C 
ATOM      4  O   LIG    1       -0.266  -5.001  -1.012  0.00  0.00    -0.375 OA
ATOM      5  C   LIG    1        1.157  -5.017  -1.153  0.00  0.00    +0.118 C 
ATOM      6  C   LIG    1        1.785  -4.183  -0.037  0.00  0.00    +0.136 C 
ENDROOT
BRANCH   1  11
ATOM      7  C   LIG    1       -0.016   1.297   0.009  0.00  0.00    +0.198 A 
ATOM      8  N   LIG    1        1.259   1.780  -0.000  0.00  0.00    -0.329 N 
ATOM      9  C   LIG    1        2.107   0.702  -0.014  0.00  0.00    +0.163 A 
ATOM     10  C   LIG    1        1.286  -0.438  -0.013  0.00  0.00    +0.147 A 
ATOM     11  C   LIG    1        1.902  -1.700  -0.025  0.00  0.00    +0.152 A 
ATOM     12  N   LIG    1        3.230  -1.756  -0.038  0.00  0.00    -0.218 NA
ATOM     13  C   LIG    1        3.961  -0.657  -0.039  0.00  0.00    +0.225 A 
ATOM     14  N   LIG    1        3.427   0.547  -0.028  0.00  0.00    -0.216 NA
ATOM     15  H   LIG    1        1.519   2.715   0.002  0.00  0.00    +0.168 HD
ATOM     16  N   LIG    1        0.002  -0.004   0.002  0.00  0.00    -0.231 NA
ENDBRANCH   1  11
BRANCH   5  17
ATOM     17  C   LIG    1        1.663  -6.459  -1.064  0.00  0.00    -0.053 C 
BRANCH  17  18
ATOM     18  N   LIG    1        1.151  -7.229  -2.205  0.00  0.00    +0.380 N 
ATOM     19  H   LIG    1        1.474  -6.811  -3.065  0.00  0.00    -0.090 HD
ATOM     20  H   LIG    1        0.142  -7.225  -2.188  0.00  0.00    -0.090 HD
ATOM     21  H   LIG    1        1.484  -8.179  -2.146  0.00  0.00    -0.090 HD
ENDBRANCH  17  18
ENDBRANCH   5  17
TORSDOF 3
