REMARK  Name = ZINC13911809
REMARK                            x       y       z     vdW  Elec       q    Type
REMARK                         _______ _______ _______ _____ _____    ______ ____
ROOT
ATOM      1  C   LIG    1       -1.501   1.392   1.347  0.00  0.00    +0.217 C 
ATOM      2  N   LIG    1       -2.092   1.731   0.185  0.00  0.00    -0.303 N 
ATOM      3  H   LIG    1       -2.881   2.296   0.188  0.00  0.00    +0.149 HD
ATOM      4  O   LIG    1       -0.568   0.618   1.350  0.00  0.00    -0.275 OA
ENDROOT
BRANCH   1   5
ATOM      5  C   LIG    1       -2.000   1.976   2.644  0.00  0.00    +0.078 C 
BRANCH   5   6
ATOM      6  C   LIG    1       -0.818   2.200   3.591  0.00  0.00    +0.015 C 
BRANCH   6   8
ATOM      7  C   LIG    1       -0.618   4.611   2.968  0.00  0.00    +0.007 C 
ATOM      8  C   LIG    1        0.110   3.266   3.005  0.00  0.00    -0.016 C 
ATOM      9  C   LIG    1        1.362   3.387   3.876  0.00  0.00    +0.007 C 
ENDBRANCH   6   8
ENDBRANCH   5   6
BRANCH   5  10
ATOM     10  C   LIG    1       -2.994   1.009   3.290  0.00  0.00    +0.045 C 
BRANCH  10  11
ATOM     11  C   LIG    1       -3.594   1.654   4.541  0.00  0.00    +0.125 C 
BRANCH  11  12
ATOM     12  O   LIG    1       -4.367   2.795   4.164  0.00  0.00    -0.391 OA
ATOM     13  H   LIG    1       -5.100   2.594   3.567  0.00  0.00    +0.210 HD
ENDBRANCH  11  12
BRANCH  11  14
ATOM     14  C   LIG    1       -4.492   0.642   5.255  0.00  0.00    +0.097 C 
BRANCH  14  15
ATOM     15  S   LIG    1       -5.204   1.407   6.739  0.00  0.00    -0.176 S 
ATOM     16  H   LIG    1       -5.963   0.434   7.273  0.00  0.00    +0.102 HD
ENDBRANCH  14  15
ENDBRANCH  11  14
ENDBRANCH  10  11
ENDBRANCH   5  10
ENDBRANCH   1   5
BRANCH   2  17
ATOM     17  C   LIG    1       -1.544   1.247  -1.084  0.00  0.00    +0.164 C 
BRANCH  17  18
ATOM     18  C   LIG    1       -1.937   2.188  -2.194  0.00  0.00    +0.234 C 
ATOM     19  N   LIG    1       -1.176   2.278  -3.303  0.00  0.00    -0.317 N 
ATOM     20  H   LIG    1       -0.417   1.686  -3.419  0.00  0.00    +0.148 HD
ATOM     21  C   LIG    1       -1.497   3.270  -4.332  0.00  0.00    +0.128 C 
ATOM     22  O   LIG    1       -2.939   2.864  -2.089  0.00  0.00    -0.274 OA
ENDBRANCH  17  18
BRANCH  17  23
ATOM     23  C   LIG    1       -2.097  -0.149  -1.379  0.00  0.00    -0.011 C 
ATOM     24  C   LIG    1       -3.611  -0.065  -1.581  0.00  0.00    +0.013 C 
ATOM     25  C   LIG    1       -1.790  -1.078  -0.203  0.00  0.00    +0.013 C 
ATOM     26  C   LIG    1       -1.442  -0.699  -2.648  0.00  0.00    +0.013 C 
ENDBRANCH  17  23
ENDBRANCH   2  17
TORSDOF 11
