REMARK  Name = ZINC71331761
REMARK                            x       y       z     vdW  Elec       q    Type
REMARK                         _______ _______ _______ _____ _____    ______ ____
ROOT
ATOM      1  N   LIG    1        0.083   0.080   2.372  0.00  0.00    -0.279 N 
ATOM      2  H   LIG    1       -0.227   0.999   2.387  0.00  0.00    +0.155 HD
ATOM      3  C   LIG    1        0.534  -0.497   3.503  0.00  0.00    +0.284 C 
ATOM      4  O   LIG    1        0.997  -1.623   3.469  0.00  0.00    -0.266 OA
ENDROOT
BRANCH   1  12
ATOM      5  C   LIG    1        2.051   0.677   0.405  0.00  0.00    +0.045 C 
ATOM      6  C   LIG    1        1.005  -0.387   0.190  0.00  0.00    -0.029 A 
ATOM      7  C   LIG    1        0.986  -1.109  -0.987  0.00  0.00    +0.007 A 
ATOM      8  C   LIG    1        0.026  -2.085  -1.186  0.00  0.00    -0.064 A 
ATOM      9  C   LIG    1       -0.917  -2.340  -0.207  0.00  0.00    +0.007 A 
ATOM     10  C   LIG    1       -0.904  -1.621   0.972  0.00  0.00    -0.029 A 
ATOM     11  C   LIG    1       -1.933  -1.900   2.037  0.00  0.00    +0.045 C 
ATOM     12  C   LIG    1        0.063  -0.645   1.177  0.00  0.00    +0.040 A 
BRANCH   8  13
ATOM     13  C   LIG    1        0.008  -2.871  -2.471  0.00  0.00    -0.051 C 
BRANCH  13  14
ATOM     14  N   LIG    1        0.845  -4.070  -2.324  0.00  0.00    +0.381 N 
ATOM     15  H   LIG    1        0.484  -4.641  -1.575  0.00  0.00    -0.090 HD
ATOM     16  H   LIG    1        1.792  -3.795  -2.111  0.00  0.00    -0.090 HD
ATOM     17  H   LIG    1        0.833  -4.596  -3.184  0.00  0.00    -0.090 HD
ENDBRANCH  13  14
ENDBRANCH   8  13
ENDBRANCH   1  12
BRANCH   3  18
ATOM     18  C   LIG    1        0.468   0.229   4.773  0.00  0.00    +0.190 A 
ATOM     19  C   LIG    1        0.896  -0.239   5.996  0.00  0.00    +0.055 A 
ATOM     20  C   LIG    1        0.644   0.774   6.927  0.00  0.00    +0.051 A 
ATOM     21  C   LIG    1        0.077   1.813   6.246  0.00  0.00    +0.137 A 
ATOM     22  O   LIG    1       -0.019   1.476   4.949  0.00  0.00    -0.450 OA
BRANCH  21  23
ATOM     23  C   LIG    1       -0.353   3.096   6.835  0.00  0.00    +0.037 A 
ATOM     24  C   LIG    1       -1.158   3.109   7.977  0.00  0.00    +0.033 A 
ATOM     25  C   LIG    1       -1.556   4.313   8.523  0.00  0.00    +0.042 A 
ATOM     26 CL   LIG    1       -2.557   4.331   9.941  0.00  0.00    -0.084 Cl
ATOM     27  C   LIG    1       -1.159   5.506   7.942  0.00  0.00    +0.021 A 
ATOM     28  C   LIG    1       -0.362   5.501   6.812  0.00  0.00    +0.022 A 
ATOM     29  C   LIG    1        0.048   4.304   6.258  0.00  0.00    +0.052 A 
ATOM     30 CL   LIG    1        1.055   4.300   4.843  0.00  0.00    -0.083 Cl
ENDBRANCH  21  23
ENDBRANCH   3  18
TORSDOF 5
