REMARK  Name = ZINC66066276
REMARK                            x       y       z     vdW  Elec       q    Type
REMARK                         _______ _______ _______ _____ _____    ______ ____
ROOT
ATOM      1  C   LIG    1        5.923  -6.629  -1.161  0.00  0.00    +0.213 C 
ATOM      2  N   LIG    1        6.768  -7.646  -1.220  0.00  0.00    -0.284 NA
ATOM      3  H   LIG    1        6.737  -8.334  -0.536  0.00  0.00    +0.125 HD
ATOM      4  C   LIG    1        7.657  -7.741  -2.199  0.00  0.00    +0.109 C 
ATOM      5  C   LIG    1        7.691  -6.759  -3.181  0.00  0.00    +0.125 C 
ATOM      6  C   LIG    1        6.765  -5.717  -3.103  0.00  0.00    +0.165 C 
ATOM      7  N   LIG    1        6.692  -4.757  -4.103  0.00  0.00    -0.315 N 
ATOM      8  C   LIG    1        6.930  -3.344  -3.796  0.00  0.00    +0.131 C 
ATOM      9  C   LIG    1        6.389  -5.155  -5.402  0.00  0.00    +0.043 A 
ATOM     10  C   LIG    1        5.253  -4.659  -6.029  0.00  0.00    +0.024 A 
ATOM     11  C   LIG    1        4.930  -5.076  -7.305  0.00  0.00    +0.002 A 
ATOM     12  C   LIG    1        5.733  -5.992  -7.965  0.00  0.00    +0.001 A 
ATOM     13  C   LIG    1        6.870  -6.484  -7.362  0.00  0.00    +0.015 A 
ATOM     14  C   LIG    1        7.220  -6.058  -6.076  0.00  0.00    +0.058 A 
ATOM     15  C   LIG    1        8.473  -6.526  -5.470  0.00  0.00    +0.249 C 
ATOM     16  O   LIG    1        9.431  -6.653  -6.207  0.00  0.00    -0.270 OA
ATOM     17  N   LIG    1        8.649  -6.821  -4.191  0.00  0.00    -0.293 N 
ATOM     18  C   LIG    1        9.991  -7.258  -3.797  0.00  0.00    +0.133 C 
ATOM     19  N   LIG    1        5.913  -5.678  -2.085  0.00  0.00    -0.266 NA
ATOM     20  H   LIG    1        6.079  -4.797  -1.599  0.00  0.00    +0.127 HD
ENDROOT
BRANCH   1  21
ATOM     21  N   LIG    1        5.022  -6.559  -0.110  0.00  0.00    -0.314 N 
ATOM     22  H   LIG    1        5.077  -7.197   0.619  0.00  0.00    +0.149 HD
BRANCH  21  26
ATOM     23  C   LIG    1        2.073  -3.603  -0.081  0.00  0.00    +0.033 A 
ATOM     24  C   LIG    1        2.499  -4.150  -1.284  0.00  0.00    +0.025 A 
ATOM     25  C   LIG    1        3.475  -5.128  -1.293  0.00  0.00    +0.028 A 
ATOM     26  C   LIG    1        4.032  -5.566  -0.100  0.00  0.00    +0.072 A 
ATOM     27  C   LIG    1        3.606  -5.018   1.108  0.00  0.00    +0.143 A 
ATOM     28  C   LIG    1        2.631  -4.035   1.115  0.00  0.00    +0.070 A 
BRANCH  23  34
ATOM     29  C   LIG    1       -0.139   1.388  -0.004  0.00  0.00    -0.096 C 
ATOM     30  N   LIG    1       -0.096  -0.080  -0.037  0.00  0.00    +0.380 N 
ATOM     31  H   LIG    1       -1.038  -0.442  -0.060  0.00  0.00    -0.082 HD
ATOM     32  C   LIG    1        0.624  -0.521  -1.238  0.00  0.00    -0.060 C 
ATOM     33  C   LIG    1        0.570  -2.049  -1.332  0.00  0.00    +0.086 C 
ATOM     34  N   LIG    1        1.084  -2.613  -0.075  0.00  0.00    -0.333 N 
ATOM     35  C   LIG    1        0.530  -2.106   1.190  0.00  0.00    +0.086 C 
ATOM     36  C   LIG    1        0.586  -0.575   1.166  0.00  0.00    -0.060 C 
ENDBRANCH  23  34
BRANCH  27  37
ATOM     37  O   LIG    1        4.149  -5.446   2.279  0.00  0.00    -0.493 OA
ATOM     38  C   LIG    1        3.665  -4.840   3.479  0.00  0.00    +0.277 C 
ENDBRANCH  27  37
ENDBRANCH  21  26
ENDBRANCH   1  21
TORSDOF 4
