REMARK  Name = ZINC27090735
REMARK                            x       y       z     vdW  Elec       q    Type
REMARK                         _______ _______ _______ _____ _____    ______ ____
ROOT
ATOM      1  C   LIG    1        3.796  -3.324  -0.052  0.00  0.00    +0.279 C 
ATOM      2  N   LIG    1        5.140  -3.223  -0.064  0.00  0.00    -0.309 N 
ATOM      3  H   LIG    1        5.560  -2.349  -0.064  0.00  0.00    +0.149 HD
ATOM      4  O   LIG    1        3.268  -4.420  -0.052  0.00  0.00    -0.267 OA
ENDROOT
BRANCH   1  11
ATOM      5  C   LIG    1       -0.017   1.362   0.009  0.00  0.00    +0.001 A 
ATOM      6  C   LIG    1        1.171   2.082   0.002  0.00  0.00    +0.004 A 
ATOM      7  C   LIG    1        2.387   1.434  -0.013  0.00  0.00    +0.047 A 
ATOM      8  C   LIG    1        2.431   0.045  -0.021  0.00  0.00    +0.136 A 
ATOM      9  C   LIG    1        1.225  -0.680  -0.013  0.00  0.00    +0.021 A 
ATOM     10  C   LIG    1        1.609  -2.091  -0.025  0.00  0.00    +0.063 A 
ATOM     11  C   LIG    1        2.967  -2.110  -0.038  0.00  0.00    +0.190 A 
ATOM     12  O   LIG    1        3.441  -0.847  -0.035  0.00  0.00    -0.450 OA
ATOM     13  C   LIG    1        0.002  -0.004   0.002  0.00  0.00    +0.011 A 
ENDBRANCH   1  11
BRANCH   2  14
ATOM     14  C   LIG    1        5.965  -4.433  -0.078  0.00  0.00    +0.104 C 
BRANCH  14  15
ATOM     15  C   LIG    1        7.444  -4.041  -0.090  0.00  0.00    +0.020 C 
BRANCH  15  16
ATOM     16  C   LIG    1        8.307  -5.305  -0.105  0.00  0.00    +0.017 C 
BRANCH  16  17
ATOM     17  C   LIG    1        9.786  -4.913  -0.117  0.00  0.00    +0.084 C 
BRANCH  17  18
ATOM     18  N   LIG    1       10.614  -6.126  -0.131  0.00  0.00    -0.298 NA
ATOM     19  C   LIG    1       10.468  -6.878   1.124  0.00  0.00    +0.112 C 
ATOM     20  C   LIG    1       11.299  -8.161   1.043  0.00  0.00    +0.175 C 
ATOM     21  O   LIG    1       12.661  -7.825   0.769  0.00  0.00    -0.377 OA
ATOM     22  C   LIG    1       12.840  -7.093  -0.447  0.00  0.00    +0.175 C 
ATOM     23  C   LIG    1       12.025  -5.798  -0.381  0.00  0.00    +0.112 C 
ENDBRANCH  17  18
ENDBRANCH  16  17
ENDBRANCH  15  16
ENDBRANCH  14  15
ENDBRANCH   2  14
TORSDOF 6
