REMARK  Name = ZINC13813276
REMARK                            x       y       z     vdW  Elec       q    Type
REMARK                         _______ _______ _______ _____ _____    ______ ____
ROOT
ATOM      1  C   LIG    1        2.998  -1.452   5.038  0.00  0.00    +0.063 C 
ATOM      2  C   LIG    1        2.078  -2.275   5.948  0.00  0.00    +0.097 C 
ATOM      3  N   LIG    1        2.070  -3.638   5.438  0.00  0.00    -0.295 NA
ATOM      4  C   LIG    1        1.092  -4.576   6.001  0.00  0.00    +0.085 C 
ATOM      5  C   LIG    1        1.654  -5.966   5.593  0.00  0.00    +0.017 C 
ATOM      6  C   LIG    1        3.174  -5.735   5.385  0.00  0.00    +0.025 C 
ATOM      7  C   LIG    1        3.379  -4.267   5.761  0.00  0.00    +0.087 C 
ATOM      8  C   LIG    1        4.434  -3.545   4.989  0.00  0.00    -0.026 A 
ATOM      9  C   LIG    1        5.588  -4.199   4.603  0.00  0.00    +0.005 A 
ATOM     10  C   LIG    1        6.568  -3.531   3.903  0.00  0.00    +0.000 A 
ATOM     11  C   LIG    1        6.394  -2.196   3.589  0.00  0.00    +0.000 A 
ATOM     12  C   LIG    1        5.239  -1.542   3.968  0.00  0.00    +0.004 A 
ATOM     13  C   LIG    1        4.245  -2.212   4.666  0.00  0.00    -0.034 A 
ENDROOT
BRANCH   1  17
ATOM     14  C   LIG    1        0.877  -0.427   1.472  0.00  0.00    +0.008 A 
ATOM     15  C   LIG    1        1.349   0.574   2.313  0.00  0.00    +0.015 A 
ATOM     16  C   LIG    1        2.035   0.239   3.464  0.00  0.00    +0.005 A 
ATOM     17  C   LIG    1        2.250  -1.090   3.781  0.00  0.00    -0.039 A 
ATOM     18  C   LIG    1        1.782  -2.088   2.946  0.00  0.00    +0.005 A 
ATOM     19  C   LIG    1        1.090  -1.761   1.796  0.00  0.00    +0.015 A 
BRANCH  14  21
ATOM     20  C   LIG    1       -0.022   1.810   0.012  0.00  0.00    +0.090 C 
ATOM     21  S   LIG    1        0.002  -0.004   0.002  0.00  0.00    -0.129 S 
ENDBRANCH  14  21
ENDBRANCH   1  17
TORSDOF 2
