REMARK  Name = ZINC13861059
REMARK                            x       y       z     vdW  Elec       q    Type
REMARK                         _______ _______ _______ _____ _____    ______ ____
ROOT
ATOM      1  C   LIG    1        1.625   2.074  -0.564  0.00  0.00    +0.020 A 
ATOM      2  C   LIG    1        0.375   1.521  -0.369  0.00  0.00    +0.007 A 
ATOM      3  C   LIG    1        0.244   0.138  -0.183  0.00  0.00    -0.021 A 
ATOM      4  C   LIG    1        1.395  -0.624  -0.211  0.00  0.00    +0.075 A 
ATOM      5  C   LIG    1        1.407  -2.097  -0.072  0.00  0.00    +0.007 C 
ATOM      6  C   LIG    1        0.413  -2.945  -0.768  0.00  0.00    -0.013 A 
ATOM      7  C   LIG    1        0.802  -3.893  -1.710  0.00  0.00    +0.010 A 
ATOM      8  C   LIG    1       -0.166  -4.670  -2.318  0.00  0.00    +0.020 A 
ATOM      9  C   LIG    1       -1.500  -4.498  -1.986  0.00  0.00    +0.041 A 
ATOM     10 CL   LIG    1       -2.710  -5.481  -2.749  0.00  0.00    -0.084 Cl
ATOM     11  C   LIG    1       -1.877  -3.549  -1.051  0.00  0.00    +0.024 A 
ATOM     12  C   LIG    1       -0.909  -2.766  -0.442  0.00  0.00    -0.038 A 
ATOM     13  C   LIG    1       -1.306  -1.730   0.564  0.00  0.00    +0.040 C 
ATOM     14  C   LIG    1        2.335  -2.674   0.701  0.00  0.00    -0.057 C 
ATOM     15  C   LIG    1        3.282  -1.836   1.531  0.00  0.00    +0.050 C 
ATOM     16  C   LIG    1        3.208  -2.329   2.987  0.00  0.00    +0.112 C 
ATOM     17  N   LIG    1        3.359  -3.790   2.998  0.00  0.00    -0.303 N 
ATOM     18  C   LIG    1        4.351  -4.368   3.704  0.00  0.00    +0.328 C 
ATOM     19  O   LIG    1        5.125  -3.681   4.336  0.00  0.00    -0.279 OA
ATOM     20  C   LIG    1        2.417  -4.614   2.230  0.00  0.00    +0.112 C 
ATOM     21  C   LIG    1        2.466  -4.180   0.759  0.00  0.00    +0.050 C 
ATOM     22  N   LIG    1        2.589  -0.045  -0.388  0.00  0.00    -0.255 NA
ATOM     23  C   LIG    1       -1.170  -0.323   0.049  0.00  0.00    +0.042 C 
ATOM     24  C   LIG    1        2.734   1.247  -0.563  0.00  0.00    +0.111 A 
ENDROOT
TORSDOF 0
