REMARK  Name = ZINC21659039
REMARK                            x       y       z     vdW  Elec       q    Type
REMARK                         _______ _______ _______ _____ _____    ______ ____
ROOT
ATOM      1  C   LIG    1       -0.218   4.663   1.938  0.00  0.00    +0.069 A 
ATOM      2  C   LIG    1       -1.527   4.651   2.349  0.00  0.00    +0.089 A 
ATOM      3  C   LIG    1       -2.186   3.531   1.631  0.00  0.00    +0.082 A 
ATOM      4  N   LIG    1       -3.547   3.284   1.867  0.00  0.00    -0.294 N 
ATOM      5  C   LIG    1       -4.252   2.192   1.191  0.00  0.00    +0.154 C 
ATOM      6  C   LIG    1       -4.180   4.095   2.743  0.00  0.00    +0.332 A 
ATOM      7  N   LIG    1       -3.620   5.112   3.405  0.00  0.00    -0.263 N 
ATOM      8  C   LIG    1       -4.461   5.888   4.319  0.00  0.00    +0.157 C 
ATOM      9  O   LIG    1       -5.360   3.882   2.945  0.00  0.00    -0.246 OA
ATOM     10  C   LIG    1       -1.259   2.974   0.865  0.00  0.00    +0.073 A 
ATOM     11  C   LIG    1       -1.382   1.819  -0.110  0.00  0.00    +0.150 C 
ATOM     12  N   LIG    1       -0.048   1.218  -0.263  0.00  0.00    -0.330 N 
ATOM     13  H   LIG    1        0.059   0.126  -0.334  0.00  0.00    +0.147 HD
ATOM     14  C   LIG    1        1.087   2.036  -0.318  0.00  0.00    +0.052 A 
ATOM     15  C   LIG    1        2.200   1.649  -1.049  0.00  0.00    +0.025 A 
ATOM     16  C   LIG    1        3.320   2.458  -1.079  0.00  0.00    +0.002 A 
ATOM     17  C   LIG    1        3.340   3.653  -0.382  0.00  0.00    +0.002 A 
ATOM     18  C   LIG    1        2.232   4.052   0.344  0.00  0.00    +0.028 A 
ATOM     19  C   LIG    1        1.105   3.253   0.370  0.00  0.00    +0.068 A 
ATOM     20  C   LIG    1       -2.315   5.467   3.279  0.00  0.00    +0.266 A 
ATOM     21  O   LIG    1       -1.832   6.398   3.896  0.00  0.00    -0.267 OA
ATOM     22  N   LIG    1       -0.056   3.642   1.054  0.00  0.00    -0.306 N 
ENDROOT
BRANCH   1  28
ATOM     23  C   LIG    1        1.429   9.346   2.421  0.00  0.00    +0.044 C 
ATOM     24  C   LIG    1        1.623   7.864   2.611  0.00  0.00    -0.050 A 
ATOM     25  C   LIG    1        2.783   7.389   3.198  0.00  0.00    +0.003 A 
ATOM     26  C   LIG    1        2.969   6.029   3.377  0.00  0.00    +0.001 A 
ATOM     27  C   LIG    1        1.996   5.138   2.974  0.00  0.00    +0.010 A 
ATOM     28  C   LIG    1        0.825   5.610   2.376  0.00  0.00    -0.000 A 
ATOM     29  C   LIG    1        0.644   6.984   2.199  0.00  0.00    +0.013 A 
ENDBRANCH   1  28
BRANCH  11  30
ATOM     30  C   LIG    1       -1.871   2.321  -1.444  0.00  0.00    -0.021 A 
ATOM     31  C   LIG    1       -3.105   1.918  -1.922  0.00  0.00    +0.009 A 
ATOM     32  C   LIG    1       -3.558   2.382  -3.142  0.00  0.00    +0.046 A 
ATOM     33  C   LIG    1       -2.770   3.242  -3.892  0.00  0.00    +0.117 A 
ATOM     34  C   LIG    1       -1.530   3.640  -3.413  0.00  0.00    +0.046 A 
ATOM     35  C   LIG    1       -1.084   3.178  -2.190  0.00  0.00    +0.009 A 
BRANCH  33  36
ATOM     36  O   LIG    1       -3.212   3.695  -5.095  0.00  0.00    -0.507 OA
ATOM     37  H   LIG    1       -2.586   4.377  -5.689  0.00  0.00    +0.292 HD
ENDBRANCH  33  36
ENDBRANCH  11  30
TORSDOF 3
