REMARK  Name = ZINC19901366
REMARK                            x       y       z     vdW  Elec       q    Type
REMARK                         _______ _______ _______ _____ _____    ______ ____
ROOT
ATOM      1  N   LIG    1        2.040   5.669   0.271  0.00  0.00    -0.297 NA
ATOM      2  C   LIG    1        1.351   6.170  -0.927  0.00  0.00    +0.100 C 
ATOM      3  C   LIG    1        0.948   7.630  -0.707  0.00  0.00    +0.100 C 
ATOM      4  N   LIG    1        2.147   8.429  -0.419  0.00  0.00    -0.298 NA
ATOM      5  C   LIG    1        2.836   7.928   0.778  0.00  0.00    +0.100 C 
ATOM      6  C   LIG    1        3.239   6.468   0.558  0.00  0.00    +0.100 C 
ENDROOT
BRANCH   1   7
ATOM      7  C   LIG    1        2.376   4.246   0.128  0.00  0.00    +0.119 C 
BRANCH   7   8
ATOM      8  C   LIG    1        2.628   3.640   1.510  0.00  0.00    +0.166 C 
BRANCH   8   9
ATOM      9  O   LIG    1        1.448   3.763   2.306  0.00  0.00    -0.387 OA
ATOM     10  H   LIG    1        1.032   4.757   2.524  0.00  0.00    +0.210 HD
ENDBRANCH   8   9
BRANCH   8  11
ATOM     11  C   LIG    1        2.992   2.162   1.360  0.00  0.00    +0.261 C 
BRANCH  11  12
ATOM     12  O   LIG    1        3.341   1.625   2.638  0.00  0.00    -0.489 OA
BRANCH  12  18
ATOM     13  C   LIG    1        4.068  -2.597   0.300  0.00  0.00    +0.044 C 
ATOM     14  C   LIG    1        4.058  -1.776   1.563  0.00  0.00    -0.047 A 
ATOM     15  C   LIG    1        4.407  -2.358   2.768  0.00  0.00    +0.004 A 
ATOM     16  C   LIG    1        4.399  -1.607   3.929  0.00  0.00    +0.008 A 
ATOM     17  C   LIG    1        4.048  -0.272   3.887  0.00  0.00    -0.003 A 
ATOM     18  C   LIG    1        3.692   0.313   2.681  0.00  0.00    +0.124 A 
ATOM     19  C   LIG    1        3.701  -0.443   1.517  0.00  0.00    +0.049 A 
BRANCH  17  20
ATOM     20  C   LIG    1        4.045   0.547   5.152  0.00  0.00    +0.016 C 
ATOM     21  C   LIG    1        5.451   0.559   5.755  0.00  0.00    +0.012 C 
ATOM     22  C   LIG    1        3.066  -0.066   6.155  0.00  0.00    +0.012 C 
ENDBRANCH  17  20
ENDBRANCH  12  18
ENDBRANCH  11  12
ENDBRANCH   8  11
ENDBRANCH   7   8
ENDBRANCH   1   7
BRANCH   4  23
ATOM     23  C   LIG    1        1.811   9.852  -0.276  0.00  0.00    +0.106 C 
BRANCH  23  24
ATOM     24  C   LIG    1        0.885  10.274  -1.419  0.00  0.00    +0.144 C 
BRANCH  24  25
ATOM     25  N   LIG    1        0.549  11.693  -1.276  0.00  0.00    -0.274 N 
ATOM     26  C   LIG    1       -0.542  12.033  -0.563  0.00  0.00    +0.262 A 
ATOM     27  C   LIG    1       -0.908  13.446  -0.394  0.00  0.00    +0.048 A 
ATOM     28  C   LIG    1       -2.020  13.841   0.335  0.00  0.00    +0.014 A 
ATOM     29  C   LIG    1       -2.329  15.190   0.463  0.00  0.00    +0.001 A 
ATOM     30  C   LIG    1       -1.559  16.158  -0.117  0.00  0.00    +0.008 A 
ATOM     31  C   LIG    1       -0.423  15.800  -0.864  0.00  0.00    -0.016 A 
ATOM     32  C   LIG    1        0.400  16.759  -1.480  0.00  0.00    +0.008 A 
ATOM     33  C   LIG    1        1.493  16.362  -2.196  0.00  0.00    +0.001 A 
ATOM     34  C   LIG    1        1.822  15.019  -2.339  0.00  0.00    +0.014 A 
ATOM     35  C   LIG    1        1.035  14.042  -1.746  0.00  0.00    +0.048 A 
ATOM     36  C   LIG    1       -0.100  14.434  -1.001  0.00  0.00    +0.007 A 
ATOM     37  O   LIG    1       -1.225  11.165  -0.054  0.00  0.00    -0.267 OA
ATOM     38  C   LIG    1        1.340  12.609  -1.867  0.00  0.00    +0.262 A 
ATOM     39  O   LIG    1        2.311  12.249  -2.504  0.00  0.00    -0.267 OA
ENDBRANCH  24  25
ENDBRANCH  23  24
ENDBRANCH   4  23
TORSDOF 10
