REMARK  Name = ZINC26166280
REMARK                            x       y       z     vdW  Elec       q    Type
REMARK                         _______ _______ _______ _____ _____    ______ ____
ROOT
ATOM      1  CA  TRP A  1        3.782  -0.983  -0.039  0.00  0.00    +0.186 C 
ENDROOT
BRANCH   1   2
ATOM      2  N   TRP A  1        2.501  -0.272  -0.023  0.00  0.00    -0.298 N 
ATOM      3  H   TRP A  1        1.558  -0.838  -0.017  0.00  0.00    +0.150 HD
ATOM      4  C   UNK A  0        2.478   1.075  -0.016  0.00  0.00    +0.246 C 
ATOM      5  O   UNK A  0        3.520   1.701  -0.022  0.00  0.00    -0.270 OA
BRANCH   4   6
ATOM      6  C   UNK A  0        1.187   1.792   0.000  0.00  0.00    +0.055 A 
ATOM      7  C   UNK A  0       -0.013   1.076   0.008  0.00  0.00    +0.016 A 
ATOM      8  C   UNK A  0       -1.215   1.750   0.017  0.00  0.00    +0.021 A 
ATOM      9  C   UNK A  0       -1.236   3.135   0.029  0.00  0.00    +0.042 A 
ATOM     10 CL   UNK A  0       -2.755   3.976   0.047  0.00  0.00    -0.083 Cl
ATOM     11  C   UNK A  0       -0.052   3.852   0.022  0.00  0.00    +0.040 A 
ATOM     12  C   UNK A  0        1.159   3.189   0.008  0.00  0.00    +0.054 A 
ATOM     13 CL   UNK A  0        2.644   4.088  -0.001  0.00  0.00    -0.083 Cl
ENDBRANCH   4   6
ENDBRANCH   1   2
BRANCH   1  14
ATOM     14  C   TRP A  1        4.268  -1.111  -1.460  0.00  0.00    +0.326 C 
ATOM     15  O   TRP A  1        3.612  -0.655  -2.366  0.00  0.00    -0.249 OA
BRANCH  14  16
ATOM     16  OXT TRP A  1        5.430  -1.731  -1.719  0.00  0.00    -0.479 OA
ATOM     17  HXT TRP A  1        5.939  -2.084  -1.016  0.00  0.00    +0.295 HD
ENDBRANCH  14  16
ENDBRANCH   1  14
BRANCH   1  18
ATOM     18  CB  TRP A  1        3.600  -2.377   0.565  0.00  0.00    +0.071 C 
BRANCH  18  24
ATOM     19  CZ3 TRP A  1       -0.470  -1.739   2.802  0.00  0.00    +0.001 A 
ATOM     20  CH2 TRP A  1       -0.325  -1.681   4.182  0.00  0.00    +0.002 A 
ATOM     21  CZ2 TRP A  1        0.917  -1.805   4.764  0.00  0.00    +0.026 A 
ATOM     22  CE2 TRP A  1        2.040  -1.991   3.963  0.00  0.00    +0.047 A 
ATOM     23  CD2 TRP A  1        1.888  -2.050   2.566  0.00  0.00    +0.003 A 
ATOM     24  CG  TRP A  1        3.233  -2.249   2.021  0.00  0.00    -0.020 A 
ATOM     25  CD1 TRP A  1        4.075  -2.303   3.064  0.00  0.00    +0.087 A 
ATOM     26  NE1 TRP A  1        3.381  -2.145   4.233  0.00  0.00    -0.360 N 
ATOM     27  HE1 TRP A  1        3.739  -2.128   5.273  0.00  0.00    +0.165 HD
ATOM     28  CE3 TRP A  1        0.619  -1.921   1.997  0.00  0.00    +0.010 A 
ENDBRANCH  18  24
ENDBRANCH   1  18
TORSDOF 6
