REMARK  Name = ZINC40442496
REMARK                            x       y       z     vdW  Elec       q    Type
REMARK                         _______ _______ _______ _____ _____    ______ ____
ROOT
ATOM      1  C   LIG    1        0.189  -3.061   1.672  0.00  0.00    +0.094 A 
ATOM      2  C   LIG    1        0.259  -2.844   3.054  0.00  0.00    +0.050 A 
ATOM      3  C   LIG    1        0.441  -3.934   3.883  0.00  0.00    +0.116 A 
ATOM      4  N   LIG    1        0.542  -5.143   3.352  0.00  0.00    -0.223 NA
ATOM      5  C   LIG    1        0.472  -5.321   2.040  0.00  0.00    +0.220 A 
ATOM      6  N   LIG    1        0.293  -4.307   1.209  0.00  0.00    -0.213 NA
ENDROOT
BRANCH   1  12
ATOM      7  C   LIG    1       -0.303   1.592  -0.201  0.00  0.00    +0.084 C 
ATOM      8  C   LIG    1       -0.220   0.092  -0.079  0.00  0.00    +0.084 A 
ATOM      9  N   LIG    1       -0.337  -0.757  -1.065  0.00  0.00    -0.349 N 
ATOM     10  H   LIG    1       -0.493  -0.519  -1.992  0.00  0.00    +0.166 HD
ATOM     11  C   LIG    1       -0.211  -2.004  -0.601  0.00  0.00    +0.112 A 
ATOM     12  C   LIG    1       -0.005  -1.930   0.744  0.00  0.00    +0.085 A 
ATOM     13  N   LIG    1       -0.008  -0.590   1.065  0.00  0.00    -0.326 N 
BRANCH  13  14
ATOM     14  C   LIG    1        0.182  -0.014   2.399  0.00  0.00    +0.083 C 
ATOM     15  C   LIG    1       -0.112   1.487   2.354  0.00  0.00    +0.030 C 
ATOM     16  C   LIG    1        1.627  -0.237   2.850  0.00  0.00    +0.030 C 
ENDBRANCH  13  14
ENDBRANCH   1  12
BRANCH   5  17
ATOM     17  N   LIG    1        0.583  -6.603   1.527  0.00  0.00    -0.284 N 
ATOM     18  H   LIG    1        0.613  -6.740   0.567  0.00  0.00    +0.155 HD
BRANCH  17  19
ATOM     19  C   LIG    1        0.650  -7.699   2.392  0.00  0.00    +0.034 A 
ATOM     20  C   LIG    1       -0.066  -7.692   3.582  0.00  0.00    +0.025 A 
ATOM     21  C   LIG    1        0.003  -8.777   4.434  0.00  0.00    +0.029 A 
ATOM     22  C   LIG    1        0.784  -9.870   4.103  0.00  0.00    +0.088 A 
ATOM     23  C   LIG    1        1.498  -9.880   2.919  0.00  0.00    +0.029 A 
ATOM     24  C   LIG    1        1.429  -8.801   2.060  0.00  0.00    +0.025 A 
BRANCH  22  25
ATOM     25  S   LIG    1        0.869 -11.252   5.193  0.00  0.00    -0.006 S 
ATOM     26  C   LIG    1       -0.477 -12.347   4.663  0.00  0.00    +0.200 C 
ATOM     27  O   LIG    1        0.587 -10.717   6.479  0.00  0.00    -0.170 OA
ATOM     28  O   LIG    1        2.127 -11.853   4.918  0.00  0.00    -0.170 OA
ENDBRANCH  22  25
ENDBRANCH  17  19
ENDBRANCH   5  17
TORSDOF 5
