REMARK  Name = ZINC27428713
REMARK                            x       y       z     vdW  Elec       q    Type
REMARK                         _______ _______ _______ _____ _____    ______ ____
ROOT
ATOM      1  C   LIG    1       -0.779   1.806  -3.623  0.00  0.00    +0.272 C 
ATOM      2  C   LIG    1        0.031   1.337  -2.411  0.00  0.00    +0.144 C 
ATOM      3  N   LIG    1       -0.744   1.582  -1.186  0.00  0.00    -0.282 NA
ATOM      4  C   LIG    1       -1.071   3.009  -1.052  0.00  0.00    +0.113 C 
ATOM      5  C   LIG    1       -1.870   3.460  -2.278  0.00  0.00    +0.178 C 
ATOM      6  O   LIG    1       -1.114   3.186  -3.461  0.00  0.00    -0.348 OA
ENDROOT
BRANCH   2   7
ATOM      7  C   LIG    1        0.321  -0.136  -2.537  0.00  0.00    -0.025 A 
ATOM      8  C   LIG    1       -0.649  -1.062  -2.200  0.00  0.00    +0.008 A 
ATOM      9  C   LIG    1       -0.386  -2.414  -2.321  0.00  0.00    +0.038 A 
ATOM     10  C   LIG    1        0.853  -2.840  -2.768  0.00  0.00    +0.123 A 
ATOM     11  F   LIG    1        1.113  -4.161  -2.881  0.00  0.00    -0.205 F 
ATOM     12  C   LIG    1        1.825  -1.912  -3.100  0.00  0.00    +0.038 A 
ATOM     13  C   LIG    1        1.558  -0.561  -2.984  0.00  0.00    +0.008 A 
ENDBRANCH   2   7
BRANCH   1  14
ATOM     14  O   LIG    1       -1.976   1.032  -3.724  0.00  0.00    -0.342 OA
BRANCH  14  16
ATOM     15  C   LIG    1       -3.696   2.374  -4.764  0.00  0.00    +0.043 C 
ATOM     16  C   LIG    1       -2.695   1.231  -4.943  0.00  0.00    +0.148 C 
BRANCH  16  17
ATOM     17  C   LIG    1       -3.434  -0.032  -5.301  0.00  0.00    -0.018 A 
ATOM     18  C   LIG    1       -4.049  -0.778  -4.313  0.00  0.00    +0.018 A 
ATOM     19  C   LIG    1       -4.731  -1.934  -4.642  0.00  0.00    +0.056 A 
ATOM     20  C   LIG    1       -4.790  -2.350  -5.959  0.00  0.00    +0.024 A 
ATOM     21  C   LIG    1       -4.171  -1.607  -6.947  0.00  0.00    +0.056 A 
ATOM     22  C   LIG    1       -3.493  -0.449  -6.618  0.00  0.00    +0.018 A 
BRANCH  19  23
ATOM     23  C   LIG    1       -5.406  -2.744  -3.566  0.00  0.00    +0.417 C 
ATOM     24  F   LIG    1       -6.370  -1.957  -2.926  0.00  0.00    -0.166 F 
ATOM     25  F   LIG    1       -4.453  -3.165  -2.632  0.00  0.00    -0.166 F 
ATOM     26  F   LIG    1       -6.022  -3.861  -4.139  0.00  0.00    -0.166 F 
ENDBRANCH  19  23
BRANCH  21  27
ATOM     27  C   LIG    1       -4.236  -2.060  -8.383  0.00  0.00    +0.417 C 
ATOM     28  F   LIG    1       -4.191  -0.945  -9.227  0.00  0.00    -0.166 F 
ATOM     29  F   LIG    1       -5.429  -2.760  -8.598  0.00  0.00    -0.166 F 
ATOM     30  F   LIG    1       -3.149  -2.897  -8.658  0.00  0.00    -0.166 F 
ENDBRANCH  21  27
ENDBRANCH  16  17
ENDBRANCH  14  16
ENDBRANCH   1  14
BRANCH   3  31
ATOM     31  C   LIG    1       -0.024   1.094  -0.002  0.00  0.00    +0.159 C 
BRANCH  31  32
ATOM     32  C   LIG    1       -0.722   1.575   1.244  0.00  0.00    +0.119 A 
ATOM     33  N   LIG    1       -0.465   2.689   1.875  0.00  0.00    -0.260 N 
ATOM     34  H   LIG    1        0.323   3.361   1.505  0.00  0.00    +0.190 HD
ATOM     35  N   LIG    1       -1.343   2.753   2.969  0.00  0.00    -0.118 NA
ATOM     36  C   LIG    1       -2.085   1.628   2.926  0.00  0.00    +0.311 A 
ATOM     37  N   LIG    1       -1.698   0.928   1.883  0.00  0.00    -0.296 N 
ATOM     38  H   LIG    1       -2.175  -0.038   1.661  0.00  0.00    +0.172 HD
BRANCH  36  39
ATOM     39  O   LIG    1       -3.057   1.280   3.803  0.00  0.00    -0.479 OA
ATOM     40  H   LIG    1       -3.522   0.474   3.692  0.00  0.00    +0.295 HD
ENDBRANCH  36  39
ENDBRANCH  31  32
ENDBRANCH   3  31
TORSDOF 9
