REMARK  Name = ZINC19361058
REMARK                            x       y       z     vdW  Elec       q    Type
REMARK                         _______ _______ _______ _____ _____    ______ ____
ROOT
ATOM      1  O   LIG    1       -4.195  -6.064  -2.473  0.00  0.00    -0.366 OA
ENDROOT
BRANCH   1   2
ATOM      2  C   LIG    1       -3.616  -6.492  -1.239  0.00  0.00    +0.176 C 
BRANCH   2   3
ATOM      3  C   LIG    1       -2.171  -5.996  -1.155  0.00  0.00    +0.112 C 
BRANCH   3   8
ATOM      4  N   LIG    1       -1.413  -2.002   0.005  0.00  0.00    +0.383 N 
ATOM      5  H   LIG    1       -0.856  -2.335   0.777  0.00  0.00    -0.082 HD
ATOM      6  C   LIG    1       -0.832  -2.477  -1.258  0.00  0.00    -0.063 C 
ATOM      7  C   LIG    1       -0.794  -4.007  -1.259  0.00  0.00    +0.066 C 
ATOM      8  N   LIG    1       -2.159  -4.528  -1.102  0.00  0.00    -0.304 NA
ATOM      9  C   LIG    1       -2.763  -4.041   0.146  0.00  0.00    +0.066 C 
ATOM     10  C   LIG    1       -2.785  -2.511   0.136  0.00  0.00    -0.063 C 
BRANCH   4  11
ATOM     11  C   LIG    1       -1.433  -0.534   0.013  0.00  0.00    -0.047 C 
BRANCH  11  13
ATOM     12  C   LIG    1       -0.019   1.526   0.010  0.00  0.00    +0.035 C 
ATOM     13  C   LIG    1        0.002  -0.004   0.002  0.00  0.00    +0.095 C 
BRANCH  13  14
ATOM     14  O   LIG    1        0.693  -0.477   1.160  0.00  0.00    -0.394 OA
ATOM     15  H   LIG    1        1.611  -0.180   1.219  0.00  0.00    +0.210 HD
ENDBRANCH  13  14
ENDBRANCH  11  13
ENDBRANCH   4  11
ENDBRANCH   3   8
ENDBRANCH   2   3
ENDBRANCH   1   2
BRANCH   1  16
ATOM     16  C   LIG    1       -5.551  -6.476  -2.653  0.00  0.00    +0.178 C 
BRANCH  16  17
ATOM     17  C   LIG    1       -5.831  -6.658  -4.123  0.00  0.00    -0.014 A 
ATOM     18  C   LIG    1       -5.225  -5.829  -5.049  0.00  0.00    +0.009 A 
ATOM     19  C   LIG    1       -5.480  -5.995  -6.397  0.00  0.00    +0.039 A 
ATOM     20  C   LIG    1       -6.342  -6.992  -6.820  0.00  0.00    +0.123 A 
ATOM     21  F   LIG    1       -6.593  -7.155  -8.137  0.00  0.00    -0.205 F 
ATOM     22  C   LIG    1       -6.948  -7.822  -5.892  0.00  0.00    +0.039 A 
ATOM     23  C   LIG    1       -6.688  -7.657  -4.544  0.00  0.00    +0.009 A 
ENDBRANCH  16  17
BRANCH  16  24
ATOM     24  C   LIG    1       -6.474  -5.425  -2.093  0.00  0.00    -0.014 A 
ATOM     25  C   LIG    1       -6.192  -4.086  -2.283  0.00  0.00    +0.009 A 
ATOM     26  C   LIG    1       -7.038  -3.121  -1.769  0.00  0.00    +0.039 A 
ATOM     27  C   LIG    1       -8.169  -3.497  -1.065  0.00  0.00    +0.123 A 
ATOM     28  F   LIG    1       -8.996  -2.554  -0.562  0.00  0.00    -0.205 F 
ATOM     29  C   LIG    1       -8.451  -4.839  -0.875  0.00  0.00    +0.039 A 
ATOM     30  C   LIG    1       -7.606  -5.802  -1.394  0.00  0.00    +0.009 A 
ENDBRANCH  16  24
ENDBRANCH   1  16
TORSDOF 9
