REMARK  Name = ZINC49771282
REMARK                            x       y       z     vdW  Elec       q    Type
REMARK                         _______ _______ _______ _____ _____    ______ ____
ROOT
ATOM      1  N   LIG    1        6.852  -4.951  -1.145  0.00  0.00    -0.295 NA
ATOM      2  C   LIG    1        6.009  -5.994  -1.744  0.00  0.00    +0.104 C 
ATOM      3  C   LIG    1        6.351  -6.132  -3.231  0.00  0.00    +0.126 C 
ATOM      4  N   LIG    1        7.799  -6.353  -3.359  0.00  0.00    -0.265 N 
ATOM      5  C   LIG    1        8.281  -7.379  -4.088  0.00  0.00    +0.408 C 
ATOM      6  O   LIG    1        7.515  -8.136  -4.651  0.00  0.00    -0.226 OA
ATOM      7  C   LIG    1        8.709  -5.425  -2.670  0.00  0.00    +0.126 C 
ATOM      8  C   LIG    1        8.274  -5.315  -1.205  0.00  0.00    +0.104 C 
ENDROOT
BRANCH   1   9
ATOM      9  C   LIG    1        6.438  -4.668   0.236  0.00  0.00    +0.119 C 
BRANCH   9  14
ATOM     10  C   LIG    1        3.630  -2.141   0.148  0.00  0.00    +0.129 A 
ATOM     11  C   LIG    1        2.517  -2.965   0.229  0.00  0.00    +0.046 A 
ATOM     12  C   LIG    1        2.677  -4.335   0.311  0.00  0.00    +0.004 A 
ATOM     13  C   LIG    1        3.946  -4.884   0.313  0.00  0.00    +0.005 A 
ATOM     14  C   LIG    1        5.057  -4.065   0.233  0.00  0.00    -0.030 A 
ATOM     15  C   LIG    1        4.902  -2.695   0.144  0.00  0.00    +0.051 A 
BRANCH  10  16
ATOM     16  O   LIG    1        3.474  -0.793   0.067  0.00  0.00    -0.456 OA
BRANCH  16  20
ATOM     17  C   LIG    1        2.648   1.274   3.540  0.00  0.00    +0.000 A 
ATOM     18  C   LIG    1        2.738  -0.106   3.563  0.00  0.00    +0.004 A 
ATOM     19  C   LIG    1        3.014  -0.800   2.401  0.00  0.00    +0.046 A 
ATOM     20  C   LIG    1        3.202  -0.113   1.211  0.00  0.00    +0.128 A 
ATOM     21  C   LIG    1        3.111   1.272   1.191  0.00  0.00    +0.046 A 
ATOM     22  C   LIG    1        2.835   1.962   2.355  0.00  0.00    +0.004 A 
ENDBRANCH  16  20
ENDBRANCH  10  16
ENDBRANCH   9  14
ENDBRANCH   1   9
BRANCH   5  23
ATOM     23  O   LIG    1        9.611  -7.565  -4.193  0.00  0.00    -0.411 OA
BRANCH  23  24
ATOM     24  C   LIG    1       10.055  -8.535  -5.036  0.00  0.00    +0.133 A 
ATOM     25  C   LIG    1       10.619  -9.695  -4.525  0.00  0.00    +0.048 A 
ATOM     26  C   LIG    1       11.069 -10.679  -5.384  0.00  0.00    +0.036 A 
ATOM     27  C   LIG    1       10.958 -10.509  -6.751  0.00  0.00    +0.122 A 
ATOM     28  C   LIG    1       10.396  -9.353  -7.263  0.00  0.00    +0.036 A 
ATOM     29  C   LIG    1        9.939  -8.369  -6.409  0.00  0.00    +0.048 A 
BRANCH  27  30
ATOM     30  N   LIG    1       11.441 -11.565  -7.669  0.00  0.00    +0.006 N 
ATOM     31  O   LIG    1       11.932 -12.575  -7.223  0.00  0.00    -0.130 OA
BRANCH  30  32
ATOM     32  O   LIG    1       11.344 -11.417  -8.865  0.00  0.00    -0.396 OA
ATOM     33  H   LIG    1       10.963 -10.634  -9.211  0.00  0.00    +0.329 HD
ENDBRANCH  30  32
ENDBRANCH  27  30
ENDBRANCH  23  24
ENDBRANCH   5  23
TORSDOF 8
