REMARK  Name = ZINC13760745
REMARK                            x       y       z     vdW  Elec       q    Type
REMARK                         _______ _______ _______ _____ _____    ______ ____
ROOT
ATOM      1  C   LIG    1        0.007   5.147   0.300  0.00  0.00    +0.032 A 
ATOM      2  C   LIG    1       -1.180   5.808   0.305  0.00  0.00    +0.026 A 
ATOM      3  C   LIG    1       -2.381   5.132   0.055  0.00  0.00    +0.050 A 
ATOM      4  C   LIG    1       -2.385   3.778  -0.202  0.00  0.00    +0.066 A 
ATOM      5 BR   LIG    1       -4.013   2.877  -0.537  0.00  0.00    -0.046 Br
ATOM      6  C   LIG    1       -1.171   3.072  -0.213  0.00  0.00    +0.105 A 
ATOM      7  N   LIG    1       -1.140   1.758  -0.466  0.00  0.00    -0.251 NA
ATOM      8  C   LIG    1        0.009   1.122  -0.465  0.00  0.00    +0.131 A 
ATOM      9  C   LIG    1        1.201   1.804  -0.214  0.00  0.00    +0.131 A 
ATOM     10  N   LIG    1        1.197   3.094   0.031  0.00  0.00    -0.252 NA
ATOM     11  C   LIG    1        0.040   3.765   0.041  0.00  0.00    +0.090 A 
ENDROOT
BRANCH   3  12
ATOM     12  N   LIG    1       -3.586   5.837   0.066  0.00  0.00    -0.284 N 
ATOM     13  H   LIG    1       -4.428   5.360  -0.004  0.00  0.00    +0.155 HD
BRANCH  12  14
ATOM     14  C   LIG    1       -3.580   7.219   0.178  0.00  0.00    +0.197 A 
ATOM     15  N   LIG    1       -4.678   8.012   0.300  0.00  0.00    -0.333 N 
ATOM     16  C   LIG    1       -4.230   9.310   0.381  0.00  0.00    +0.105 A 
ATOM     17  C   LIG    1       -2.889   9.267   0.307  0.00  0.00    +0.132 A 
ATOM     18  H   LIG    1       -5.631   7.709   0.326  0.00  0.00    +0.168 HD
ATOM     19  N   LIG    1       -2.513   7.983   0.189  0.00  0.00    -0.223 NA
ENDBRANCH  12  14
ENDBRANCH   3  12
TORSDOF 2
