REMARK  Name = ZINC29399992
REMARK                            x       y       z     vdW  Elec       q    Type
REMARK                         _______ _______ _______ _____ _____    ______ ____
ROOT
ATOM      1  C   LIG    1        1.187   3.159   0.008  0.00  0.00    +0.006 A 
ATOM      2  C   LIG    1       -0.005   3.856   0.023  0.00  0.00    +0.016 A 
ATOM      3  C   LIG    1       -1.198   3.165   0.030  0.00  0.00    +0.020 A 
ATOM      4  C   LIG    1       -1.246   1.758   0.018  0.00  0.00    +0.003 A 
ATOM      5  C   LIG    1       -2.607   1.214   0.021  0.00  0.00    +0.074 A 
ATOM      6  C   LIG    1       -3.650   2.087   0.030  0.00  0.00    +0.061 A 
ATOM      7  C   LIG    1       -0.013   1.076   0.008  0.00  0.00    +0.015 A 
ATOM      8  S   LIG    1       -2.904   3.649   0.049  0.00  0.00    -0.096 S 
ATOM      9  C   LIG    1        1.169   1.772   0.000  0.00  0.00    -0.027 A 
ENDROOT
BRANCH   5  10
ATOM     10  C   LIG    1       -2.837  -0.235   0.014  0.00  0.00    +0.338 C 
ATOM     11  O   LIG    1       -1.893  -1.001   0.006  0.00  0.00    -0.245 OA
BRANCH  10  12
ATOM     12  O   LIG    1       -4.097  -0.717   0.017  0.00  0.00    -0.477 OA
ATOM     13  H   LIG    1       -4.824  -0.126   0.023  0.00  0.00    +0.295 HD
ENDBRANCH  10  12
ENDBRANCH   5  10
BRANCH   9  14
ATOM     14  C   LIG    1        2.473   1.016  -0.017  0.00  0.00    +0.157 C 
BRANCH  14  15
ATOM     15  N   LIG    1        2.882   0.779  -1.403  0.00  0.00    -0.332 N 
ATOM     16  C   LIG    1        2.560  -0.308  -2.170  0.00  0.00    +0.107 A 
ATOM     17  C   LIG    1        3.136  -0.120  -3.373  0.00  0.00    +0.130 A 
ATOM     18  N   LIG    1        3.799   1.045  -3.338  0.00  0.00    -0.244 NA
ATOM     19  C   LIG    1        3.651   1.589  -2.162  0.00  0.00    +0.199 A 
ENDBRANCH  14  15
ENDBRANCH   9  14
TORSDOF 4
