REMARK  Name = ZINC13831250
REMARK                            x       y       z     vdW  Elec       q    Type
REMARK                         _______ _______ _______ _____ _____    ______ ____
ROOT
ATOM      1  C   LIG    1       -1.008   1.418   0.028  0.00  0.00    +0.044 C 
ATOM      2  C   LIG    1       -0.772  -0.071   0.015  0.00  0.00    -0.050 A 
ATOM      3  C   LIG    1       -0.699  -0.749  -1.188  0.00  0.00    +0.004 A 
ATOM      4  C   LIG    1       -0.483  -2.111  -1.209  0.00  0.00    +0.010 A 
ATOM      5  C   LIG    1       -0.337  -2.811  -0.008  0.00  0.00    +0.004 A 
ATOM      6  C   LIG    1       -0.412  -2.117   1.199  0.00  0.00    -0.034 A 
ATOM      7  C   LIG    1       -0.218  -3.130   2.302  0.00  0.00    +0.075 C 
ATOM      8  C   LIG    1       -0.028  -4.454   1.612  0.00  0.00    +0.015 A 
ATOM      9  C   LIG    1        0.196  -5.833   1.779  0.00  0.00    +0.151 A 
ATOM     10  N   LIG    1        0.246  -6.368   0.573  0.00  0.00    -0.161 NA
ATOM     11  N   LIG    1        0.076  -5.466  -0.326  0.00  0.00    -0.230 N 
ATOM     12  C   LIG    1       -0.101  -4.245   0.266  0.00  0.00    +0.079 A 
ATOM     13  C   LIG    1       -0.623  -0.756   1.209  0.00  0.00    +0.008 A 
ENDROOT
BRANCH  11  14
ATOM     14  C   LIG    1        0.072  -5.697  -1.707  0.00  0.00    +0.084 A 
ATOM     15  C   LIG    1        0.834  -4.897  -2.549  0.00  0.00    +0.031 A 
ATOM     16  C   LIG    1        0.828  -5.127  -3.910  0.00  0.00    +0.022 A 
ATOM     17  C   LIG    1        0.064  -6.155  -4.437  0.00  0.00    +0.042 A 
ATOM     18 CL   LIG    1        0.060  -6.441  -6.150  0.00  0.00    -0.083 Cl
ATOM     19  C   LIG    1       -0.696  -6.953  -3.602  0.00  0.00    +0.042 A 
ATOM     20  C   LIG    1       -0.690  -6.731  -2.237  0.00  0.00    +0.068 A 
ATOM     21 CL   LIG    1       -1.638  -7.739  -1.189  0.00  0.00    -0.081 Cl
ENDBRANCH  11  14
BRANCH   9  22
ATOM     22  C   LIG    1        0.346  -6.548   3.062  0.00  0.00    +0.265 C 
ATOM     23  N   LIG    1        0.558  -7.878   3.072  0.00  0.00    -0.307 N 
ATOM     24  H   LIG    1        0.612  -8.367   2.235  0.00  0.00    +0.149 HD
ATOM     25  O   LIG    1        0.280  -5.935   4.111  0.00  0.00    -0.268 OA
BRANCH  23  26
ATOM     26  C   LIG    1        0.708  -8.587   4.345  0.00  0.00    +0.073 C 
ATOM     27  C   LIG    1        2.163  -8.501   4.809  0.00  0.00    +0.022 C 
ATOM     28  C   LIG    1        2.319  -9.241   6.139  0.00  0.00    +0.002 C 
ATOM     29  C   LIG    1        1.929 -10.709   5.954  0.00  0.00    +0.000 C 
ATOM     30  C   LIG    1        0.474 -10.796   5.490  0.00  0.00    +0.002 C 
ATOM     31  C   LIG    1        0.318 -10.055   4.160  0.00  0.00    +0.022 C 
ENDBRANCH  23  26
ENDBRANCH   9  22
TORSDOF 3
