REMARK  Name = ZINC29055563
REMARK                            x       y       z     vdW  Elec       q    Type
REMARK                         _______ _______ _______ _____ _____    ______ ____
ROOT
ATOM      1  N   LIG    1       -1.413  -1.998   0.005  0.00  0.00    -0.259 N 
ATOM      2  C   LIG    1       -1.393  -2.669   1.175  0.00  0.00    +0.282 A 
ATOM      3  C   LIG    1       -1.374  -4.078   1.162  0.00  0.00    +0.149 A 
ATOM      4  C   LIG    1       -1.377  -4.745  -0.059  0.00  0.00    +0.169 A 
ATOM      5  N   LIG    1       -1.397  -3.999  -1.227  0.00  0.00    -0.277 N 
ATOM      6  N   LIG    1       -1.356  -6.053   0.197  0.00  0.00    -0.210 NA
ATOM      7  C   LIG    1       -1.341  -6.255   1.500  0.00  0.00    +0.144 A 
ATOM      8  N   LIG    1       -1.352  -5.055   2.142  0.00  0.00    -0.332 N 
ATOM      9  H   LIG    1       -1.345  -4.768   3.204  0.00  0.00    +0.168 HD
ATOM     10  O   LIG    1       -1.392  -2.063   2.232  0.00  0.00    -0.265 OA
ATOM     11  C   LIG    1       -1.421  -2.654  -1.169  0.00  0.00    +0.334 A 
ATOM     12  O   LIG    1       -1.444  -2.016  -2.204  0.00  0.00    -0.246 OA
ENDROOT
BRANCH   7  13
ATOM     13  C   LIG    1       -1.317  -7.577   2.159  0.00  0.00    +0.055 A 
ATOM     14  C   LIG    1       -1.295  -7.819   3.549  0.00  0.00    +0.146 A 
ATOM     15  N   LIG    1       -1.282  -9.111   3.735  0.00  0.00    -0.179 NA
ATOM     16  N   LIG    1       -1.285  -9.747   2.489  0.00  0.00    -0.266 N 
ATOM     17  C   LIG    1       -1.307  -8.804   1.530  0.00  0.00    +0.120 A 
BRANCH  16  18
ATOM     18  C   LIG    1       -1.268 -11.195   2.267  0.00  0.00    +0.178 C 
BRANCH  18  19
ATOM     19  C   LIG    1       -0.089 -11.800   2.985  0.00  0.00    -0.026 A 
ATOM     20  C   LIG    1       -0.224 -12.235   4.290  0.00  0.00    +0.005 A 
ATOM     21  C   LIG    1        0.857 -12.789   4.950  0.00  0.00    +0.001 A 
ATOM     22  C   LIG    1        2.073 -12.909   4.304  0.00  0.00    +0.012 A 
ATOM     23  C   LIG    1        2.208 -12.474   2.999  0.00  0.00    +0.055 A 
ATOM     24  C   LIG    1        1.126 -11.924   2.338  0.00  0.00    +0.017 A 
BRANCH  23  25
ATOM     25  C   LIG    1        3.534 -12.605   2.294  0.00  0.00    +0.417 C 
ATOM     26  F   LIG    1        3.986 -11.338   1.911  0.00  0.00    -0.166 F 
ATOM     27  F   LIG    1        3.382 -13.409   1.159  0.00  0.00    -0.166 F 
ATOM     28  F   LIG    1        4.466 -13.191   3.158  0.00  0.00    -0.166 F 
ENDBRANCH  23  25
ENDBRANCH  18  19
ENDBRANCH  16  18
ENDBRANCH   7  13
BRANCH   5  29
ATOM     29  C   LIG    1       -1.401  -4.675  -2.527  0.00  0.00    +0.125 C 
ATOM     30  C   LIG    1       -2.844  -4.929  -2.966  0.00  0.00    +0.027 C 
ENDBRANCH   5  29
BRANCH   1  31
ATOM     31  C   LIG    1       -1.433  -0.534   0.013  0.00  0.00    +0.130 C 
BRANCH  31  33
ATOM     32  C   LIG    1       -0.019   1.526   0.010  0.00  0.00    +0.005 C 
ATOM     33  C   LIG    1        0.002  -0.004   0.002  0.00  0.00    +0.018 C 
ENDBRANCH  31  33
ENDBRANCH   1  31
TORSDOF 7
