REMARK  Name = ZINC26829428
REMARK                            x       y       z     vdW  Elec       q    Type
REMARK                         _______ _______ _______ _____ _____    ______ ____
ROOT
ATOM      1  N   LIG    1        5.776   2.531   1.200  0.00  0.00    +0.380 N 
ATOM      2  H   LIG    1        5.545   3.605   1.133  0.00  0.00    -0.082 HD
ATOM      3  C   LIG    1        6.578   2.172   0.024  0.00  0.00    -0.079 C 
ATOM      4  C   LIG    1        5.820   2.555  -1.249  0.00  0.00    -0.018 C 
ATOM      5  C   LIG    1        4.478   1.818  -1.279  0.00  0.00    +0.004 C 
ATOM      6  C   LIG    1        3.682   2.172  -0.020  0.00  0.00    +0.006 C 
ATOM      7  C   LIG    1        4.502   1.800   1.217  0.00  0.00    -0.071 C 
ENDROOT
BRANCH   6   8
ATOM      8  C   LIG    1        2.385   1.405  -0.013  0.00  0.00    -0.005 A 
ATOM      9  C   LIG    1        2.398   0.024  -0.021  0.00  0.00    +0.007 A 
ATOM     10  C   LIG    1        1.208  -0.680  -0.013  0.00  0.00    +0.000 A 
ATOM     11  C   LIG    1        0.002  -0.004   0.002  0.00  0.00    +0.004 A 
ATOM     12  C   LIG    1       -0.017   1.377   0.010  0.00  0.00    +0.046 A 
ATOM     13  C   LIG    1        1.176   2.086   0.002  0.00  0.00    +0.120 A 
BRANCH  13  14
ATOM     14  O   LIG    1        1.160   3.445   0.009  0.00  0.00    -0.506 OA
ATOM     15  H   LIG    1        0.201   3.984   0.021  0.00  0.00    +0.292 HD
ENDBRANCH  13  14
ENDBRANCH   6   8
BRANCH   1  16
ATOM     16  C   LIG    1        6.529   2.306   2.441  0.00  0.00    -0.079 C 
BRANCH  16  18
ATOM     17  C   LIG    1        7.568   0.572   3.910  0.00  0.00    +0.002 C 
ATOM     18  C   LIG    1        6.783   0.807   2.618  0.00  0.00    -0.022 C 
ENDBRANCH  16  18
ENDBRANCH   1  16
TORSDOF 4
