REMARK  Name = ZINC34306416
REMARK                            x       y       z     vdW  Elec       q    Type
REMARK                         _______ _______ _______ _____ _____    ______ ____
ROOT
ATOM      1  C   LIG    1        5.960  -1.962   2.796  0.00  0.00    +0.216 C 
ATOM      2  N   LIG    1        7.119  -2.611   3.027  0.00  0.00    -0.290 N 
ATOM      3  C   LIG    1        8.039  -3.119   1.994  0.00  0.00    +0.108 C 
ATOM      4  C   LIG    1        9.420  -3.191   2.693  0.00  0.00    +0.021 C 
ATOM      5  C   LIG    1        9.021  -3.645   4.123  0.00  0.00    +0.033 C 
ATOM      6  C   LIG    1        7.677  -2.922   4.351  0.00  0.00    +0.162 C 
ATOM      7  O   LIG    1        5.282  -1.582   3.727  0.00  0.00    -0.276 OA
ENDROOT
BRANCH   6   8
ATOM      8  C   LIG    1        6.735  -3.823   5.106  0.00  0.00    +0.236 C 
ATOM      9  N   LIG    1        7.049  -4.237   6.349  0.00  0.00    -0.300 N 
ATOM     10  C   LIG    1        8.269  -3.881   7.088  0.00  0.00    +0.108 C 
ATOM     11  C   LIG    1        8.207  -4.603   8.451  0.00  0.00    +0.020 C 
ATOM     12  C   LIG    1        7.227  -5.775   8.178  0.00  0.00    +0.020 C 
ATOM     13  C   LIG    1        6.223  -5.116   7.197  0.00  0.00    +0.108 C 
ATOM     14  O   LIG    1        5.694  -4.177   4.594  0.00  0.00    -0.274 OA
ENDBRANCH   6   8
BRANCH   1  15
ATOM     15  C   LIG    1        5.507  -1.710   1.381  0.00  0.00    +0.096 C 
BRANCH  15  16
ATOM     16  C   LIG    1        4.171  -0.963   1.399  0.00  0.00    +0.014 C 
BRANCH  16  17
ATOM     17  C   LIG    1        3.711  -0.707  -0.038  0.00  0.00    +0.035 C 
BRANCH  17  21
ATOM     18  C   LIG    1       -0.017   1.378   0.010  0.00  0.00    +0.000 A 
ATOM     19  C   LIG    1        1.171   2.086   0.002  0.00  0.00    +0.000 A 
ATOM     20  C   LIG    1        2.377   1.411  -0.013  0.00  0.00    +0.003 A 
ATOM     21  C   LIG    1        2.396   0.029  -0.020  0.00  0.00    -0.047 A 
ATOM     22  C   LIG    1        1.208  -0.679  -0.012  0.00  0.00    +0.003 A 
ATOM     23  C   LIG    1        0.002  -0.004   0.002  0.00  0.00    +0.000 A 
ENDBRANCH  17  21
ENDBRANCH  16  17
ENDBRANCH  15  16
ENDBRANCH   1  15
TORSDOF 5
