REMARK  Name = ZINC40413177
REMARK                            x       y       z     vdW  Elec       q    Type
REMARK                         _______ _______ _______ _____ _____    ______ ____
ROOT
ATOM      1  N   LIG    1        0.226  -0.406   2.357  0.00  0.00    -0.234 N 
ATOM      2  H   LIG    1       -0.169   0.437   2.631  0.00  0.00    +0.175 HD
ENDROOT
BRANCH   1   9
ATOM      3  C   LIG    1        2.609   0.294   0.564  0.00  0.00    +0.065 C 
ATOM      4  C   LIG    1        1.352  -0.438   0.171  0.00  0.00    +0.036 A 
ATOM      5  C   LIG    1        1.067  -0.918  -1.056  0.00  0.00    +0.024 A 
ATOM      6  C   LIG    1       -0.202  -1.527  -0.986  0.00  0.00    +0.024 A 
ATOM      7  C   LIG    1       -0.644  -1.395   0.281  0.00  0.00    +0.036 A 
ATOM      8  C   LIG    1       -1.960  -1.900   0.814  0.00  0.00    +0.065 C 
ATOM      9  N   LIG    1        0.308  -0.733   0.998  0.00  0.00    -0.269 N 
ENDBRANCH   1   9
BRANCH   1  10
ATOM     10  C   LIG    1        0.702  -1.274   3.299  0.00  0.00    +0.141 C 
ATOM     11  N   LIG    1        0.732  -0.907   4.614  0.00  0.00    -0.381 N 
ATOM     12  H   LIG    1        1.070  -1.523   5.282  0.00  0.00    +0.158 HD
ATOM     13  H   LIG    1        0.416  -0.029   4.880  0.00  0.00    +0.158 HD
BRANCH  10  14
ATOM     14  S   LIG    1        1.243  -2.776   2.844  0.00  0.00    -0.109 S 
ATOM     15  H   LIG    1        1.116  -2.915   1.497  0.00  0.00    +0.110 HD
ENDBRANCH  10  14
ENDBRANCH   1  10
TORSDOF 3
