REMARK  Name = ZINC13863068
REMARK                            x       y       z     vdW  Elec       q    Type
REMARK                         _______ _______ _______ _____ _____    ______ ____
ROOT
ATOM      1  N   LIG    1       -2.927   0.722   1.401  0.00  0.00    -0.260 N 
ATOM      2  C   LIG    1       -3.737   1.573   2.149  0.00  0.00    +0.048 A 
ATOM      3  C   LIG    1       -4.328   2.790   1.834  0.00  0.00    +0.026 A 
ATOM      4  C   LIG    1       -5.102   3.450   2.771  0.00  0.00    +0.034 A 
ATOM      5  C   LIG    1       -5.299   2.911   4.031  0.00  0.00    +0.122 A 
ATOM      6  C   LIG    1       -4.720   1.704   4.366  0.00  0.00    +0.046 A 
ATOM      7  C   LIG    1       -3.938   1.029   3.428  0.00  0.00    +0.050 A 
ATOM      8  C   LIG    1       -3.198  -0.246   3.465  0.00  0.00    +0.250 C 
ATOM      9  O   LIG    1       -3.114  -1.027   4.390  0.00  0.00    -0.282 OA
ATOM     10  C   LIG    1       -2.576  -0.368   2.106  0.00  0.00    +0.292 C 
ATOM     11  O   LIG    1       -1.883  -1.283   1.714  0.00  0.00    -0.266 OA
ENDROOT
BRANCH   5  12
ATOM     12  N   LIG    1       -6.130   3.632   5.022  0.00  0.00    +0.006 N 
ATOM     13  O   LIG    1       -6.640   4.698   4.728  0.00  0.00    -0.130 OA
BRANCH  12  14
ATOM     14  O   LIG    1       -6.303   3.159   6.131  0.00  0.00    -0.396 OA
ATOM     15  H   LIG    1       -5.910   2.339   6.357  0.00  0.00    +0.329 HD
ENDBRANCH  12  14
ENDBRANCH   5  12
BRANCH   1  16
ATOM     16  C   LIG    1       -2.514   0.980   0.019  0.00  0.00    +0.149 C 
BRANCH  16  20
ATOM     17  C   LIG    1        1.156   3.165   0.008  0.00  0.00    +0.000 A 
ATOM     18  C   LIG    1        1.175   1.783   0.000  0.00  0.00    +0.000 A 
ATOM     19  C   LIG    1       -0.013   1.076   0.008  0.00  0.00    +0.005 A 
ATOM     20  C   LIG    1       -1.219   1.751   0.017  0.00  0.00    -0.030 A 
ATOM     21  C   LIG    1       -1.238   3.133   0.030  0.00  0.00    +0.005 A 
ATOM     22  C   LIG    1       -0.050   3.840   0.022  0.00  0.00    +0.000 A 
ENDBRANCH  16  20
ENDBRANCH   1  16
TORSDOF 4
