REMARK  Name = ZINC17028451
REMARK                            x       y       z     vdW  Elec       q    Type
REMARK                         _______ _______ _______ _____ _____    ______ ____
ROOT
ATOM      1  C   LIG    1        1.583   3.323   0.004  0.00  0.00    +0.031 C 
ATOM      2  C   LIG    1        1.252   2.091  -0.454  0.00  0.00    +0.080 C 
ATOM      3  C   LIG    1       -0.066   1.423  -0.492  0.00  0.00    +0.258 C 
ATOM      4  N   LIG    1       -0.097   0.203  -1.001  0.00  0.00    -0.243 N 
ATOM      5  H   LIG    1       -1.048  -0.346  -1.057  0.00  0.00    +0.159 HD
ATOM      6  C   LIG    1        1.020  -0.398  -1.461  0.00  0.00    +0.283 C 
ATOM      7  O   LIG    1        1.136  -1.506  -1.949  0.00  0.00    -0.262 OA
ATOM      8  O   LIG    1       -1.072   1.970  -0.081  0.00  0.00    -0.269 OA
ATOM      9  S   LIG    1        2.288   0.827  -1.179  0.00  0.00    -0.026 S 
ENDROOT
BRANCH   1  15
ATOM     10  C   LIG    1        5.324   3.128   0.150  0.00  0.00    +0.001 A 
ATOM     11  C   LIG    1        5.660   4.467   0.253  0.00  0.00    +0.003 A 
ATOM     12  C   LIG    1        4.673   5.436   0.276  0.00  0.00    +0.039 A 
ATOM     13  C   LIG    1        3.342   5.074   0.195  0.00  0.00    +0.131 A 
ATOM     14  F   LIG    1        2.379   6.021   0.218  0.00  0.00    -0.205 F 
ATOM     15  C   LIG    1        2.995   3.720   0.091  0.00  0.00    +0.011 A 
ATOM     16  C   LIG    1        4.002   2.747   0.075  0.00  0.00    +0.011 A 
ENDBRANCH   1  15
TORSDOF 1
