REMARK  Name = ZINC22442744
REMARK                            x       y       z     vdW  Elec       q    Type
REMARK                         _______ _______ _______ _____ _____    ______ ____
ROOT
ATOM      1  N   LIG    1        0.998  -4.551  -0.954  0.00  0.00    -0.296 N 
ATOM      2  H   LIG    1        1.245  -4.220  -0.076  0.00  0.00    +0.150 HD
ATOM      3  C   LIG    1        1.953  -4.823  -1.865  0.00  0.00    +0.321 C 
ATOM      4  N   LIG    1        3.252  -4.636  -1.556  0.00  0.00    -0.246 N 
ATOM      5  C   LIG    1        4.248  -4.909  -2.492  0.00  0.00    +0.065 A 
ATOM      6  C   LIG    1        4.382  -6.189  -3.010  0.00  0.00    +0.027 A 
ATOM      7  C   LIG    1        5.393  -6.470  -3.908  0.00  0.00    +0.002 A 
ATOM      8  C   LIG    1        6.279  -5.478  -4.295  0.00  0.00    +0.001 A 
ATOM      9  C   LIG    1        6.150  -4.198  -3.802  0.00  0.00    +0.015 A 
ATOM     10  C   LIG    1        5.120  -3.893  -2.906  0.00  0.00    +0.063 A 
ATOM     11  C   LIG    1        4.933  -2.510  -2.453  0.00  0.00    +0.258 A 
ATOM     12  N   LIG    1        4.560  -2.134  -1.238  0.00  0.00    -0.319 N 
ATOM     13  H   LIG    1        4.458  -1.181  -1.093  0.00  0.00    +0.169 HD
ATOM     14  C   LIG    1        4.298  -2.960  -0.149  0.00  0.00    +0.085 A 
ATOM     15  C   LIG    1        4.716  -2.568   1.119  0.00  0.00    +0.031 A 
ATOM     16  C   LIG    1        4.402  -3.362   2.196  0.00  0.00    +0.022 A 
ATOM     17  C   LIG    1        3.685  -4.523   1.989  0.00  0.00    +0.113 A 
ATOM     18  N   LIG    1        3.320  -4.886   0.775  0.00  0.00    -0.235 NA
ATOM     19  O   LIG    1        5.138  -1.629  -3.265  0.00  0.00    -0.267 OA
ATOM     20  C   LIG    1        3.619  -4.161  -0.294  0.00  0.00    +0.165 A 
ATOM     21  O   LIG    1        1.644  -5.237  -2.966  0.00  0.00    -0.249 OA
ENDROOT
BRANCH   1  22
ATOM     22  C   LIG    1       -0.414  -4.754  -1.290  0.00  0.00    +0.121 C 
BRANCH  22  23
ATOM     23  C   LIG    1       -1.283  -4.373  -0.090  0.00  0.00    +0.103 C 
BRANCH  23  29
ATOM     24  C   LIG    1       -3.571  -4.107   0.657  0.00  0.00    +0.040 C 
ATOM     25  C   LIG    1       -5.032  -4.200   0.214  0.00  0.00    +0.017 C 
ATOM     26  C   LIG    1       -5.363  -5.652  -0.140  0.00  0.00    +0.003 C 
ATOM     27  C   LIG    1       -4.409  -6.132  -1.237  0.00  0.00    +0.015 C 
ATOM     28  C   LIG    1       -2.965  -5.983  -0.752  0.00  0.00    +0.084 C 
ATOM     29  N   LIG    1       -2.699  -4.576  -0.427  0.00  0.00    -0.300 NA
BRANCH  24  30
ATOM     30  C   LIG    1       -3.230  -2.654   0.993  0.00  0.00    -0.060 C 
BRANCH  30  31
ATOM     31  N   LIG    1       -4.056  -2.206   2.122  0.00  0.00    +0.381 N 
ATOM     32  H   LIG    1       -5.030  -2.356   1.907  0.00  0.00    -0.082 HD
BRANCH  31  33
ATOM     33  C   LIG    1       -3.697  -2.969   3.325  0.00  0.00    -0.079 C 
BRANCH  33  35
ATOM     34  C   LIG    1       -4.265  -3.386   5.722  0.00  0.00    +0.002 C 
ATOM     35  C   LIG    1       -4.640  -2.591   4.469  0.00  0.00    -0.022 C 
ENDBRANCH  33  35
ENDBRANCH  31  33
BRANCH  31  36
ATOM     36  C   LIG    1       -3.823  -0.775   2.362  0.00  0.00    -0.079 C 
BRANCH  36  37
ATOM     37  C   LIG    1       -4.325   0.031   1.163  0.00  0.00    -0.022 C 
ATOM     38  C   LIG    1       -4.201   1.526   1.465  0.00  0.00    +0.002 C 
ENDBRANCH  36  37
ENDBRANCH  31  36
ENDBRANCH  30  31
ENDBRANCH  24  30
ENDBRANCH  23  29
ENDBRANCH  22  23
ENDBRANCH   1  22
TORSDOF 9
