REMARK  Name = ZINC26006800
REMARK                            x       y       z     vdW  Elec       q    Type
REMARK                         _______ _______ _______ _____ _____    ______ ____
ROOT
ATOM      1  C   LIG    1        6.027   3.390  -0.320  0.00  0.00    +0.132 A 
ATOM      2  C   LIG    1        6.107   2.002  -0.290  0.00  0.00    +0.047 A 
ATOM      3  C   LIG    1        4.960   1.246  -0.191  0.00  0.00    +0.015 A 
ATOM      4  C   LIG    1        3.714   1.876  -0.120  0.00  0.00    +0.022 A 
ATOM      5  C   LIG    1        3.638   3.272  -0.155  0.00  0.00    +0.015 A 
ATOM      6  C   LIG    1        4.790   4.020  -0.250  0.00  0.00    +0.047 A 
ENDROOT
BRANCH   4   7
ATOM      7  C   LIG    1        2.483   1.070  -0.015  0.00  0.00    +0.193 C 
ATOM      8  O   LIG    1        2.418  -0.015  -0.559  0.00  0.00    -0.287 OA
BRANCH   7   9
ATOM      9  C   LIG    1        1.328   1.582   0.752  0.00  0.00    +0.022 A 
ATOM     10  C   LIG    1        0.112   0.896   0.730  0.00  0.00    +0.012 A 
ATOM     11  C   LIG    1       -0.964   1.383   1.444  0.00  0.00    +0.001 A 
ATOM     12  C   LIG    1       -0.836   2.541   2.190  0.00  0.00    +0.000 A 
ATOM     13  C   LIG    1        0.367   3.226   2.216  0.00  0.00    +0.001 A 
ATOM     14  C   LIG    1        1.448   2.754   1.503  0.00  0.00    +0.012 A 
ENDBRANCH   7   9
ENDBRANCH   4   7
BRANCH   1  15
ATOM     15  O   LIG    1        7.159   4.131  -0.418  0.00  0.00    -0.425 OA
BRANCH  15  16
ATOM     16  C   LIG    1        7.733   4.211  -1.630  0.00  0.00    +0.318 C 
ATOM     17  O   LIG    1        7.290   3.567  -2.551  0.00  0.00    -0.250 OA
BRANCH  16  19
ATOM     18  C   LIG    1        9.383   5.013  -3.298  0.00  0.00    +0.022 C 
ATOM     19  C   LIG    1        8.928   5.105  -1.840  0.00  0.00    +0.060 C 
ATOM     20  C   LIG    1       10.067   4.658  -0.921  0.00  0.00    +0.022 C 
ATOM     21  C   LIG    1        8.548   6.551  -1.515  0.00  0.00    +0.022 C 
ENDBRANCH  16  19
ENDBRANCH  15  16
ENDBRANCH   1  15
TORSDOF 5
