REMARK  Name = ZINC16080001
REMARK                            x       y       z     vdW  Elec       q    Type
REMARK                         _______ _______ _______ _____ _____    ______ ____
ROOT
ATOM      1  N   LIG    1       -2.477   1.178   0.221  0.00  0.00    -0.265 N 
ATOM      2  C   LIG    1       -2.648  -0.154   0.339  0.00  0.00    +0.244 C 
ATOM      3  O   LIG    1       -3.766  -0.632   0.277  0.00  0.00    -0.270 OA
ENDROOT
BRANCH   1  12
ATOM      4  C   LIG    1        1.452   5.169   4.197  0.00  0.00    +0.109 C 
ATOM      5  C   LIG    1        0.625   4.365   3.227  0.00  0.00    +0.217 C 
ATOM      6  N   LIG    1        1.179   3.910   2.086  0.00  0.00    -0.271 N 
ATOM      7  C   LIG    1        2.537   4.219   1.629  0.00  0.00    +0.118 C 
ATOM      8  C   LIG    1        2.693   3.474   0.294  0.00  0.00    +0.056 C 
ATOM      9  C   LIG    1        1.367   2.776   0.090  0.00  0.00    -0.024 A 
ATOM     10  C   LIG    1        0.922   1.960  -0.933  0.00  0.00    +0.007 A 
ATOM     11  C   LIG    1       -0.353   1.430  -0.897  0.00  0.00    +0.024 A 
ATOM     12  C   LIG    1       -1.188   1.716   0.176  0.00  0.00    +0.039 A 
ATOM     13  C   LIG    1       -0.745   2.538   1.200  0.00  0.00    +0.047 A 
ATOM     14  C   LIG    1        0.542   3.073   1.164  0.00  0.00    +0.041 A 
ATOM     15  O   LIG    1       -0.538   4.128   3.473  0.00  0.00    -0.276 OA
ENDBRANCH   1  12
BRANCH   1  16
ATOM     16  C   LIG    1       -3.643   2.061   0.139  0.00  0.00    +0.078 C 
ATOM     17  C   LIG    1       -4.551   1.825   1.349  0.00  0.00    +0.004 C 
ATOM     18  C   LIG    1       -5.797   2.705   1.226  0.00  0.00    -0.077 C 
ATOM     19  N   LIG    1       -6.516   2.349  -0.015  0.00  0.00    +0.382 N 
ATOM     20  H   LIG    1       -6.729   1.345  -0.001  0.00  0.00    -0.081 HD
ATOM     21  C   LIG    1       -5.673   2.644  -1.193  0.00  0.00    -0.077 C 
ATOM     22  C   LIG    1       -4.424   1.760  -1.143  0.00  0.00    +0.004 C 
BRANCH  19  23
ATOM     23  C   LIG    1       -7.782   3.106  -0.099  0.00  0.00    -0.043 C 
BRANCH  23  24
ATOM     24  C   LIG    1       -8.503   3.010   1.221  0.00  0.00    -0.064 A 
ATOM     25  C   LIG    1       -9.385   1.971   1.453  0.00  0.00    +0.002 A 
ATOM     26  C   LIG    1      -10.042   1.880   2.666  0.00  0.00    +0.000 A 
ATOM     27  C   LIG    1       -9.826   2.835   3.642  0.00  0.00    +0.000 A 
ATOM     28  C   LIG    1       -8.949   3.877   3.408  0.00  0.00    +0.000 A 
ATOM     29  C   LIG    1       -8.287   3.965   2.198  0.00  0.00    +0.002 A 
ENDBRANCH  23  24
ENDBRANCH  19  23
ENDBRANCH   1  16
BRANCH   2  30
ATOM     30  C   LIG    1       -1.490  -1.025   0.542  0.00  0.00    +0.068 C 
ATOM     31  C   LIG    1       -1.648  -2.364   0.558  0.00  0.00    +0.013 C 
BRANCH  31  32
ATOM     32  C   LIG    1       -0.505  -3.236   0.874  0.00  0.00    -0.025 A 
ATOM     33  C   LIG    1        0.720  -2.680   1.256  0.00  0.00    +0.008 A 
ATOM     34  C   LIG    1        1.784  -3.504   1.556  0.00  0.00    +0.001 A 
ATOM     35  C   LIG    1        1.646  -4.878   1.467  0.00  0.00    +0.000 A 
ATOM     36  C   LIG    1        0.439  -5.436   1.084  0.00  0.00    +0.001 A 
ATOM     37  C   LIG    1       -0.636  -4.626   0.787  0.00  0.00    +0.008 A 
ENDBRANCH  31  32
ENDBRANCH   2  30
TORSDOF 6
