REMARK  Name = ZINC16957895
REMARK                            x       y       z     vdW  Elec       q    Type
REMARK                         _______ _______ _______ _____ _____    ______ ____
ROOT
ATOM      1  C   LIG    1       -6.228  -1.924   1.005  0.00  0.00    +0.106 C 
ATOM      2  C   LIG    1       -6.144  -0.754   0.059  0.00  0.00    +0.215 C 
ENDROOT
BRANCH   1   3
ATOM      3  C   LIG    1       -6.126  -3.428   1.022  0.00  0.00    +0.140 A 
ATOM      4  C   LIG    1       -4.937  -4.049   0.606  0.00  0.00    +0.240 A 
ATOM      5  N   LIG    1       -4.827  -5.362   0.620  0.00  0.00    -0.210 NA
ATOM      6  C   LIG    1       -5.862  -6.109   1.023  0.00  0.00    +0.093 A 
ATOM      7  C   LIG    1       -5.778  -7.512   1.042  0.00  0.00    +0.030 A 
ATOM      8  C   LIG    1       -6.846  -8.246   1.457  0.00  0.00    +0.002 A 
ATOM      9  C   LIG    1       -8.027  -7.627   1.865  0.00  0.00    +0.002 A 
ATOM     10  C   LIG    1       -8.144  -6.271   1.859  0.00  0.00    +0.030 A 
ATOM     11  C   LIG    1       -7.062  -5.480   1.437  0.00  0.00    +0.090 A 
ATOM     12  N   LIG    1       -7.150  -4.144   1.421  0.00  0.00    -0.240 NA
BRANCH   4  13
ATOM     13  O   LIG    1       -3.892  -3.291   0.192  0.00  0.00    -0.491 OA
ATOM     14  H   LIG    1       -3.283  -3.040   0.900  0.00  0.00    +0.294 HD
ENDBRANCH   4  13
ENDBRANCH   1   3
BRANCH   1  15
ATOM     15  C   LIG    1       -6.508  -1.424   2.399  0.00  0.00    +0.253 C 
ATOM     16  O   LIG    1       -6.613  -2.207   3.312  0.00  0.00    -0.282 OA
BRANCH  15  19
ATOM     17  N   LIG    1       -6.904   0.485   3.897  0.00  0.00    -0.278 N 
ATOM     18  H   LIG    1       -7.085  -0.146   4.611  0.00  0.00    +0.155 HD
ATOM     19  C   LIG    1       -6.654   0.037   2.650  0.00  0.00    +0.289 C 
ATOM     20  O   LIG    1       -6.548   0.825   1.732  0.00  0.00    -0.266 OA
BRANCH  17  26
ATOM     21  C   LIG    1       -5.734   2.593   4.012  0.00  0.00    -0.026 A 
ATOM     22  C   LIG    1       -5.737   3.949   4.273  0.00  0.00    +0.005 A 
ATOM     23  C   LIG    1       -6.902   4.574   4.679  0.00  0.00    +0.001 A 
ATOM     24  C   LIG    1       -8.067   3.844   4.827  0.00  0.00    +0.006 A 
ATOM     25  C   LIG    1       -8.073   2.489   4.563  0.00  0.00    -0.023 A 
ATOM     26  C   LIG    1       -6.903   1.857   4.159  0.00  0.00    +0.040 A 
BRANCH  25  27
ATOM     27  C   LIG    1       -9.345   1.696   4.718  0.00  0.00    +0.015 C 
ATOM     28  C   LIG    1      -10.413   2.255   3.775  0.00  0.00    +0.012 C 
ATOM     29  C   LIG    1       -9.836   1.797   6.163  0.00  0.00    +0.012 C 
ENDBRANCH  25  27
BRANCH  21  31
ATOM     30  C   LIG    1       -3.380   2.964   3.327  0.00  0.00    +0.009 C 
ATOM     31  C   LIG    1       -4.465   1.913   3.569  0.00  0.00    +0.033 C 
ENDBRANCH  21  31
ENDBRANCH  17  26
ENDBRANCH  15  19
ENDBRANCH   1  15
BRANCH   2  32
ATOM     32  O   LIG    1       -6.296   0.370   0.473  0.00  0.00    -0.501 OA
ATOM     33  H   LIG    1       -6.466   0.342   1.458  0.00  0.00    +0.292 HD
ENDBRANCH   2  32
BRANCH   2  34
ATOM     34  C   LIG    1       -5.874  -0.985  -1.389  0.00  0.00    +0.375 C 
ATOM     35  O   LIG    1       -5.722  -2.114  -1.806  0.00  0.00    -0.241 OA
BRANCH  34  36
ATOM     36  O   LIG    1       -5.804   0.060  -2.235  0.00  0.00    -0.462 OA
ATOM     37  C   LIG    1       -5.544  -0.240  -3.632  0.00  0.00    +0.280 C 
ENDBRANCH  34  36
ENDBRANCH   2  34
TORSDOF 10
