REMARK  Name = ZINC34001955
REMARK                            x       y       z     vdW  Elec       q    Type
REMARK                         _______ _______ _______ _____ _____    ______ ____
ROOT
ATOM      1  C   LIG    1       -1.440   1.413   1.404  0.00  0.00    +0.026 C 
ATOM      2  C   LIG    1       -1.662  -0.030   1.861  0.00  0.00    +0.057 C 
ATOM      3  C   LIG    1       -2.938  -0.112   2.706  0.00  0.00    -0.055 C 
ATOM      4  N   LIG    1       -3.074  -1.466   3.256  0.00  0.00    +0.386 N 
ATOM      5  H   LIG    1       -3.056  -2.137   2.502  0.00  0.00    -0.081 HD
ATOM      6  C   LIG    1       -1.969  -1.744   4.182  0.00  0.00    -0.054 C 
ATOM      7  C   LIG    1       -2.179  -3.112   4.832  0.00  0.00    -0.012 C 
ATOM      8  C   LIG    1       -0.645  -1.743   3.410  0.00  0.00    +0.093 C 
ATOM      9  N   LIG    1       -0.524  -0.469   2.684  0.00  0.00    -0.298 N 
ATOM     10  C   LIG    1        0.595   0.278   2.774  0.00  0.00    +0.248 C 
ATOM     11  O   LIG    1        0.648   1.362   2.226  0.00  0.00    -0.270 OA
ENDROOT
BRANCH  10  12
ATOM     12  C   LIG    1        1.755  -0.220   3.539  0.00  0.00    +0.056 A 
ATOM     13  C   LIG    1        1.991  -1.590   3.634  0.00  0.00    +0.025 A 
ATOM     14  C   LIG    1        3.085  -2.048   4.355  0.00  0.00    +0.012 A 
ATOM     15  C   LIG    1        3.951  -1.137   4.986  0.00  0.00    +0.051 A 
ATOM     16  N   LIG    1        4.935  -1.866   5.619  0.00  0.00    -0.349 N 
ATOM     17  C   LIG    1        6.035  -1.284   6.392  0.00  0.00    +0.149 C 
ATOM     18  C   LIG    1        4.749  -3.186   5.429  0.00  0.00    +0.098 A 
ATOM     19  C   LIG    1        3.705   0.230   4.883  0.00  0.00    +0.047 A 
ATOM     20  C   LIG    1        3.623  -3.390   4.656  0.00  0.00    +0.052 A 
ATOM     21  C   LIG    1        2.623   0.685   4.165  0.00  0.00    +0.055 A 
ATOM     22 CL   LIG    1        2.329   2.391   4.037  0.00  0.00    -0.083 Cl
BRANCH  20  23
ATOM     23  C   LIG    1        3.075  -4.674   4.223  0.00  0.00    +0.249 C 
ATOM     24  O   LIG    1        2.069  -4.707   3.540  0.00  0.00    -0.282 OA
BRANCH  23  25
ATOM     25  C   LIG    1        3.748  -5.944   4.619  0.00  0.00    +0.287 C 
ATOM     26  N   LIG    1        3.330  -7.118   4.106  0.00  0.00    -0.301 N 
ATOM     27  C   LIG    1        2.391  -7.132   2.981  0.00  0.00    +0.132 C 
ATOM     28  C   LIG    1        3.813  -8.380   4.672  0.00  0.00    +0.132 C 
ATOM     29  O   LIG    1        4.674  -5.921   5.404  0.00  0.00    -0.266 OA
ENDBRANCH  23  25
ENDBRANCH  20  23
ENDBRANCH  10  12
BRANCH   4  30
ATOM     30  C   LIG    1       -4.351  -1.575   3.974  0.00  0.00    -0.042 C 
BRANCH  30  31
ATOM     31  C   LIG    1       -5.490  -1.423   2.999  0.00  0.00    -0.064 A 
ATOM     32  C   LIG    1       -6.007  -0.169   2.731  0.00  0.00    +0.004 A 
ATOM     33  C   LIG    1       -7.051  -0.029   1.836  0.00  0.00    +0.038 A 
ATOM     34  C   LIG    1       -7.580  -1.144   1.209  0.00  0.00    +0.123 A 
ATOM     35  F   LIG    1       -8.601  -1.008   0.335  0.00  0.00    -0.205 F 
ATOM     36  C   LIG    1       -7.061  -2.400   1.479  0.00  0.00    +0.038 A 
ATOM     37  C   LIG    1       -6.014  -2.537   2.370  0.00  0.00    +0.004 A 
ENDBRANCH  30  31
ENDBRANCH   4  30
TORSDOF 5
