REMARK  Name = ZINC22064471
REMARK                            x       y       z     vdW  Elec       q    Type
REMARK                         _______ _______ _______ _____ _____    ______ ____
ROOT
ATOM      1  C   LIG    1       -6.650   0.753  -3.391  0.00  0.00    +0.267 C 
ENDROOT
BRANCH   1   2
ATOM      2  P   LIG    1       -6.504  -1.064  -3.390  0.00  0.00    +0.371 P 
ATOM      3  O   LIG    1       -5.754  -1.499  -4.589  0.00  0.00    -0.255 OA
BRANCH   2   4
ATOM      4  O   LIG    1       -7.974  -1.720  -3.410  0.00  0.00    -0.322 OA
ATOM      5  H   LIG    1       -8.088  -2.815  -3.412  0.00  0.00    +0.220 HD
ENDBRANCH   2   4
BRANCH   2   6
ATOM      6  O   LIG    1       -5.722  -1.539  -2.066  0.00  0.00    -0.322 OA
ATOM      7  H   LIG    1       -4.836  -1.144  -2.054  0.00  0.00    +0.220 HD
ENDBRANCH   2   6
ENDBRANCH   1   2
BRANCH   1   8
ATOM      8  P   LIG    1       -7.536   1.291  -4.891  0.00  0.00    +0.371 P 
ATOM      9  O   LIG    1       -8.904   0.726  -4.885  0.00  0.00    -0.255 OA
BRANCH   8  10
ATOM     10  O   LIG    1       -6.747   0.773  -6.195  0.00  0.00    -0.322 OA
ATOM     11  H   LIG    1       -6.697  -0.195  -6.179  0.00  0.00    +0.220 HD
ENDBRANCH   8  10
BRANCH   8  12
ATOM     12  O   LIG    1       -7.619   2.899  -4.917  0.00  0.00    -0.322 OA
ATOM     13  H   LIG    1       -8.121   3.410  -5.752  0.00  0.00    +0.220 HD
ENDBRANCH   8  12
ENDBRANCH   1   8
BRANCH   1  14
ATOM     14  O   LIG    1       -7.375   1.173  -2.233  0.00  0.00    -0.367 OA
ATOM     15  H   LIG    1       -8.406   0.824  -2.073  0.00  0.00    +0.212 HD
ENDBRANCH   1  14
BRANCH   1  16
ATOM     16  C   LIG    1       -5.253   1.377  -3.372  0.00  0.00    +0.060 C 
BRANCH  16  17
ATOM     17  C   LIG    1       -4.565   1.046  -2.046  0.00  0.00    +0.004 C 
BRANCH  17  18
ATOM     18  C   LIG    1       -3.217   1.767  -1.978  0.00  0.00    -0.002 C 
BRANCH  18  19
ATOM     19  C   LIG    1       -2.528   1.436  -0.652  0.00  0.00    -0.020 C 
BRANCH  19  20
ATOM     20  C   LIG    1       -1.180   2.157  -0.584  0.00  0.00    -0.086 C 
BRANCH  20  21
ATOM     21  N   LIG    1       -0.519   1.839   0.689  0.00  0.00    +0.378 N 
ATOM     22  H   LIG    1       -1.154   2.170   1.524  0.00  0.00    -0.090 HD
ATOM     23  H   LIG    1       -0.358   0.753   0.757  0.00  0.00    -0.090 HD
ATOM     24  H   LIG    1        0.450   2.357   0.738  0.00  0.00    -0.090 HD
ENDBRANCH  20  21
ENDBRANCH  19  20
ENDBRANCH  18  19
ENDBRANCH  17  18
ENDBRANCH  16  17
ENDBRANCH   1  16
TORSDOF 13
