REMARK  Name = ZINC13777635
REMARK                            x       y       z     vdW  Elec       q    Type
REMARK                         _______ _______ _______ _____ _____    ______ ____
ROOT
ATOM      1  C   LIG    1       -0.019   1.526   0.010  0.00  0.00    +0.011 C 
ATOM      2  C   LIG    1        0.002  -0.004   0.002  0.00  0.00    -0.033 C 
ATOM      3  C   LIG    1        0.718  -0.497  -1.257  0.00  0.00    +0.010 C 
ATOM      4  C   LIG    1        0.739  -2.027  -1.265  0.00  0.00    -0.011 C 
ATOM      5  C   LIG    1        1.479  -2.534  -0.026  0.00  0.00    +0.010 C 
ATOM      6  C   LIG    1        0.763  -2.041   1.233  0.00  0.00    -0.033 C 
ATOM      7  C   LIG    1        1.503  -2.548   2.473  0.00  0.00    +0.011 C 
ATOM      8  C   LIG    1       -0.673  -2.570   1.244  0.00  0.00    -0.006 C 
ATOM      9  C   LIG    1       -1.413  -2.063   0.004  0.00  0.00    -0.067 C 
ATOM     10  C   LIG    1       -0.696  -2.557  -1.254  0.00  0.00    -0.009 C 
ATOM     11  C   LIG    1       -1.433  -0.534   0.013  0.00  0.00    -0.006 C 
ATOM     12  C   LIG    1        0.742  -0.511   1.242  0.00  0.00    +0.013 C 
ENDROOT
BRANCH   9  13
ATOM     13  N   LIG    1       -2.791  -2.572   0.015  0.00  0.00    +0.381 N 
ATOM     14  H   LIG    1       -3.263  -2.247   0.845  0.00  0.00    -0.086 HD
ATOM     15  H   LIG    1       -2.777  -3.581   0.009  0.00  0.00    -0.086 HD
ATOM     16  C   LIG    1       -3.501  -2.085  -1.175  0.00  0.00    -0.100 C 
ENDBRANCH   9  13
TORSDOF 1
