REMARK  Name = ZINC45391908
REMARK                            x       y       z     vdW  Elec       q    Type
REMARK                         _______ _______ _______ _____ _____    ______ ____
ROOT
ATOM      1  C   LIG    1       -2.120  -4.343  -0.050  0.00  0.00    -0.052 C 
ATOM      2  C   LIG    1       -1.365  -4.602  -1.356  0.00  0.00    +0.008 C 
ATOM      3  C   LIG    1       -2.260  -4.226  -2.541  0.00  0.00    +0.105 C 
ATOM      4  N   LIG    1       -3.530  -4.954  -2.424  0.00  0.00    -0.315 N 
ATOM      5  C   LIG    1       -4.293  -4.847  -1.173  0.00  0.00    +0.105 C 
ATOM      6  C   LIG    1       -3.376  -5.216  -0.003  0.00  0.00    +0.008 C 
ENDROOT
BRANCH   4   7
ATOM      7  C   LIG    1       -4.000  -5.725  -3.472  0.00  0.00    +0.134 A 
ATOM      8  C   LIG    1       -4.831  -5.170  -4.458  0.00  0.00    +0.059 A 
ATOM      9  C   LIG    1       -5.400  -3.848  -4.708  0.00  0.00    +0.032 A 
ATOM     10  C   LIG    1       -6.126  -3.944  -5.834  0.00  0.00    +0.085 A 
ATOM     11  N   LIG    1       -6.063  -5.225  -6.319  0.00  0.00    -0.346 N 
ATOM     12  H   LIG    1       -6.507  -5.537  -7.123  0.00  0.00    +0.167 HD
ATOM     13  C   LIG    1       -5.282  -5.996  -5.504  0.00  0.00    +0.143 A 
ATOM     14  N   LIG    1       -4.902  -7.273  -5.516  0.00  0.00    -0.218 NA
ATOM     15  C   LIG    1       -4.122  -7.751  -4.570  0.00  0.00    +0.225 A 
ATOM     16  N   LIG    1       -3.671  -7.010  -3.574  0.00  0.00    -0.220 NA
ENDBRANCH   4   7
BRANCH   1  17
ATOM     17  N   LIG    1       -1.253  -4.671   1.089  0.00  0.00    +0.383 N 
ATOM     18  H   LIG    1       -0.425  -4.095   1.059  0.00  0.00    -0.089 HD
ATOM     19  H   LIG    1       -0.988  -5.644   1.041  0.00  0.00    -0.089 HD
ATOM     20  H   LIG    1       -1.750  -4.500   1.950  0.00  0.00    -0.089 HD
ENDBRANCH   1  17
BRANCH   1  21
ATOM     21  C   LIG    1       -2.521  -2.868   0.023  0.00  0.00    +0.092 C 
BRANCH  21  23
ATOM     22  C   LIG    1       -1.429  -0.690   0.029  0.00  0.00    +0.244 C 
ATOM     23  N   LIG    1       -1.319  -2.032  -0.022  0.00  0.00    -0.313 N 
ATOM     24  H   LIG    1       -0.444  -2.445  -0.088  0.00  0.00    +0.149 HD
ATOM     25  O   LIG    1       -2.526  -0.173   0.113  0.00  0.00    -0.270 OA
BRANCH  22  32
ATOM     26  C   LIG    1       -0.328   1.544   0.037  0.00  0.00    +0.014 A 
ATOM     27  C   LIG    1        0.807   2.326  -0.006  0.00  0.00    +0.021 A 
ATOM     28  C   LIG    1        2.056   1.734  -0.101  0.00  0.00    +0.041 A 
ATOM     29 CL   LIG    1        3.481   2.725  -0.154  0.00  0.00    -0.084 Cl
ATOM     30  C   LIG    1        2.173   0.355  -0.154  0.00  0.00    +0.021 A 
ATOM     31  C   LIG    1        1.045  -0.437  -0.112  0.00  0.00    +0.014 A 
ATOM     32  C   LIG    1       -0.217   0.153  -0.016  0.00  0.00    +0.037 A 
ENDBRANCH  22  32
ENDBRANCH  21  23
ENDBRANCH   1  21
TORSDOF 5
