REMARK  Name = ZINC20374281
REMARK                            x       y       z     vdW  Elec       q    Type
REMARK                         _______ _______ _______ _____ _____    ______ ____
ROOT
ATOM      1  C   LIG    1        1.143   0.957  -0.342  0.00  0.00    +0.157 C 
ATOM      2  N   LIG    1        0.055   0.027  -0.029  0.00  0.00    -0.206 N 
ENDROOT
BRANCH   2   3
ATOM      3  C   LIG    1       -0.053  -0.517   1.256  0.00  0.00    +0.051 A 
ATOM      4  C   LIG    1        0.186  -1.870   1.459  0.00  0.00    +0.026 A 
ATOM      5  C   LIG    1        0.079  -2.407   2.727  0.00  0.00    +0.024 A 
ATOM      6  C   LIG    1       -0.267  -1.595   3.798  0.00  0.00    +0.025 A 
ATOM      7  C   LIG    1       -0.505  -0.242   3.595  0.00  0.00    +0.024 A 
ATOM      8  C   LIG    1       -0.393   0.296   2.328  0.00  0.00    +0.026 A 
BRANCH   6   9
ATOM      9  N   LIG    1       -0.375  -2.139   5.083  0.00  0.00    -0.358 N 
ATOM     10  H   LIG    1       -0.617  -1.572   5.832  0.00  0.00    +0.142 HD
ATOM     11  H   LIG    1       -0.209  -3.084   5.225  0.00  0.00    +0.142 HD
ENDBRANCH   6   9
ENDBRANCH   2   3
BRANCH   2  12
ATOM     12  S   LIG    1       -1.047  -0.380  -1.196  0.00  0.00    +0.074 S 
ATOM     13  O   LIG    1       -1.153   0.741  -2.063  0.00  0.00    -0.150 OA
ATOM     14  O   LIG    1       -2.170  -0.929  -0.520  0.00  0.00    -0.150 OA
BRANCH  12  15
ATOM     15  C   LIG    1       -0.343  -1.686  -2.146  0.00  0.00    +0.109 A 
ATOM     16  C   LIG    1        0.540  -1.397  -3.170  0.00  0.00    +0.030 A 
ATOM     17  C   LIG    1        1.093  -2.421  -3.915  0.00  0.00    +0.022 A 
ATOM     18  C   LIG    1        0.763  -3.736  -3.637  0.00  0.00    +0.041 A 
ATOM     19 CL   LIG    1        1.457  -5.022  -4.573  0.00  0.00    -0.084 Cl
ATOM     20  C   LIG    1       -0.121  -4.024  -2.612  0.00  0.00    +0.022 A 
ATOM     21  C   LIG    1       -0.669  -2.999  -1.864  0.00  0.00    +0.030 A 
ENDBRANCH  12  15
ENDBRANCH   2  12
TORSDOF 4
