REMARK  Name = ZINC40414458
REMARK                            x       y       z     vdW  Elec       q    Type
REMARK                         _______ _______ _______ _____ _____    ______ ____
ROOT
ATOM      1  C   LIG    1       -1.961  -0.515  -3.634  0.00  0.00    +0.142 A 
ATOM      2  C   LIG    1       -3.044   0.333  -3.783  0.00  0.00    +0.056 A 
ATOM      3  C   LIG    1       -3.562   0.581  -5.053  0.00  0.00    -0.011 A 
ATOM      4  C   LIG    1       -2.987  -0.024  -6.168  0.00  0.00    +0.010 A 
ATOM      5  C   LIG    1       -1.907  -0.869  -6.016  0.00  0.00    +0.027 A 
ATOM      6  C   LIG    1       -1.386  -1.113  -4.753  0.00  0.00    +0.076 A 
ENDROOT
BRANCH   3   7
ATOM      7  C   LIG    1       -4.724   1.490  -5.216  0.00  0.00    +0.019 A 
ATOM      8  C   LIG    1       -5.333   1.816  -6.393  0.00  0.00    +0.113 A 
ATOM      9  N   LIG    1       -6.343   2.663  -6.109  0.00  0.00    -0.284 N 
ATOM     10  N   LIG    1       -6.364   2.869  -4.724  0.00  0.00    -0.182 NA
ATOM     11  H   LIG    1       -6.950   3.061  -6.752  0.00  0.00    +0.188 HD
ATOM     12  C   LIG    1       -5.403   2.167  -4.185  0.00  0.00    +0.142 A 
ENDBRANCH   3   7
BRANCH   6  13
ATOM     13  N   LIG    1       -0.285  -1.967  -4.603  0.00  0.00    -0.279 N 
ATOM     14  H   LIG    1       -0.138  -2.425  -3.760  0.00  0.00    +0.155 HD
ATOM     15  C   LIG    1        0.568  -2.153  -5.629  0.00  0.00    +0.261 C 
ATOM     16  O   LIG    1        0.443  -1.507  -6.647  0.00  0.00    -0.271 OA
BRANCH  15  17
ATOM     17  C   LIG    1        1.679  -3.164  -5.511  0.00  0.00    +0.296 C 
ATOM     18  C   LIG    1        2.671  -2.720  -4.426  0.00  0.00    +0.283 C 
ATOM     19  O   LIG    1        3.718  -3.693  -4.351  0.00  0.00    -0.484 OA
ATOM     20  C   LIG    1        4.255  -4.107  -5.531  0.00  0.00    +0.162 A 
ATOM     21  C   LIG    1        5.483  -4.751  -5.531  0.00  0.00    +0.049 A 
ATOM     22  C   LIG    1        6.039  -5.181  -6.721  0.00  0.00    +0.004 A 
ATOM     23  C   LIG    1        5.373  -4.970  -7.914  0.00  0.00    +0.004 A 
ATOM     24  C   LIG    1        4.150  -4.327  -7.921  0.00  0.00    +0.049 A 
ATOM     25  C   LIG    1        3.586  -3.893  -6.730  0.00  0.00    +0.163 A 
ATOM     26  O   LIG    1        2.384  -3.255  -6.754  0.00  0.00    -0.473 OA
ENDBRANCH  15  17
ENDBRANCH   6  13
BRANCH   1  27
ATOM     27  O   LIG    1       -1.454  -0.759  -2.396  0.00  0.00    -0.492 OA
BRANCH  27  28
ATOM     28  C   LIG    1       -2.093  -0.111  -1.294  0.00  0.00    +0.210 C 
BRANCH  28  29
ATOM     29  C   LIG    1       -1.389  -0.504   0.007  0.00  0.00    -0.038 C 
BRANCH  29  31
ATOM     30  C   LIG    1       -0.045   1.483  -0.002  0.00  0.00    -0.096 C 
ATOM     31  N   LIG    1       -0.015   0.014  -0.005  0.00  0.00    +0.378 N 
ATOM     32  H   LIG    1        0.461  -0.310  -0.834  0.00  0.00    -0.082 HD
ATOM     33  C   LIG    1        0.699  -0.463   1.187  0.00  0.00    -0.096 C 
ENDBRANCH  29  31
ENDBRANCH  28  29
ENDBRANCH  27  28
ENDBRANCH   1  27
TORSDOF 7
