REMARK  Name = ZINC40410832
REMARK                            x       y       z     vdW  Elec       q    Type
REMARK                         _______ _______ _______ _____ _____    ______ ____
ROOT
ATOM      1  C   LIG    1        3.403  -1.350  -7.449  0.00  0.00    +0.263 C 
ENDROOT
BRANCH   1   2
ATOM      2  S   LIG    1        2.443  -0.594  -6.109  0.00  0.00    -0.018 S 
ATOM      3  O   LIG    1        3.022   0.666  -5.797  0.00  0.00    -0.174 OA
ATOM      4  O   LIG    1        1.066  -0.656  -6.452  0.00  0.00    -0.174 OA
BRANCH   2   5
ATOM      5  C   LIG    1        2.740  -1.721  -4.718  0.00  0.00    +0.201 C 
BRANCH   5   9
ATOM      6  C   LIG    1        0.639  -0.319  -1.273  0.00  0.00    -0.042 A 
ATOM      7  C   LIG    1        0.023  -1.190  -2.151  0.00  0.00    +0.004 A 
ATOM      8  C   LIG    1        0.703  -1.644  -3.266  0.00  0.00    +0.005 A 
ATOM      9  C   LIG    1        1.998  -1.226  -3.503  0.00  0.00    -0.027 A 
ATOM     10  C   LIG    1        2.615  -0.353  -2.626  0.00  0.00    +0.005 A 
ATOM     11  C   LIG    1        1.933   0.104  -1.513  0.00  0.00    +0.004 A 
BRANCH   6  13
ATOM     12  C   LIG    1       -0.215   1.701  -0.115  0.00  0.00    +0.015 C 
ATOM     13  C   LIG    1       -0.101   0.176  -0.057  0.00  0.00    -0.013 C 
ATOM     14  C   LIG    1       -1.502  -0.439  -0.028  0.00  0.00    +0.015 C 
ATOM     15  C   LIG    1        0.661  -0.231   1.205  0.00  0.00    +0.015 C 
ENDBRANCH   6  13
ENDBRANCH   5   9
ENDBRANCH   2   5
ENDBRANCH   1   2
BRANCH   1  16
ATOM     16  C   LIG    1        3.260  -0.520  -8.699  0.00  0.00    +0.260 C 
ATOM     17  O   LIG    1        2.576   0.486  -8.687  0.00  0.00    -0.272 OA
BRANCH  16  18
ATOM     18  N   LIG    1        3.881  -0.887  -9.813  0.00  0.00    -0.152 NA
ATOM     19  C   LIG    1        4.669  -0.021 -10.454  0.00  0.00    +0.200 A 
ATOM     20  N   LIG    1        5.059   1.220 -10.057  0.00  0.00    -0.166 N 
ATOM     21  C   LIG    1        5.874   1.943 -10.871  0.00  0.00    +0.077 A 
ATOM     22  C   LIG    1        6.245   1.379 -12.026  0.00  0.00    +0.073 A 
ATOM     23  S   LIG    1        5.426  -0.203 -11.944  0.00  0.00    -0.057 S 
BRANCH  20  24
ATOM     24  O   LIG    1        4.623   1.750  -8.819  0.00  0.00    -0.425 OA
ATOM     25  H   LIG    1        4.061   1.245  -8.265  0.00  0.00    +0.326 HD
ENDBRANCH  20  24
BRANCH  21  26
ATOM     26  C   LIG    1        6.340   3.324 -10.488  0.00  0.00    +0.177 C 
BRANCH  26  27
ATOM     27  C   LIG    1        5.299   4.336 -10.892  0.00  0.00    +0.311 C 
ATOM     28  O   LIG    1        4.273   3.969 -11.441  0.00  0.00    -0.251 OA
BRANCH  27  29
ATOM     29  O   LIG    1        5.482   5.521 -10.671  0.00  0.00    -0.480 OA
ATOM     30  H   LIG    1        6.270   5.802 -10.249  0.00  0.00    +0.295 HD
ENDBRANCH  27  29
ENDBRANCH  26  27
ENDBRANCH  21  26
ENDBRANCH  16  18
ENDBRANCH   1  16
TORSDOF 10
