REMARK  Name = ZINC28091152
REMARK                            x       y       z     vdW  Elec       q    Type
REMARK                         _______ _______ _______ _____ _____    ______ ____
ROOT
ATOM      1  C   LIG    1       -0.049   3.836   0.025  0.00  0.00    -0.013 A 
ATOM      2  C   LIG    1        1.160   3.155   0.138  0.00  0.00    +0.009 A 
ATOM      3  C   LIG    1        1.172   1.776   0.130  0.00  0.00    +0.001 A 
ATOM      4  C   LIG    1       -0.013   1.076   0.008  0.00  0.00    +0.004 A 
ATOM      5  C   LIG    1       -1.221   1.748  -0.112  0.00  0.00    -0.041 A 
ATOM      6  C   LIG    1       -2.483   0.936  -0.248  0.00  0.00    +0.050 C 
ATOM      7  C   LIG    1       -3.702   1.808   0.056  0.00  0.00    +0.086 C 
ATOM      8  N   LIG    1       -3.601   3.044  -0.737  0.00  0.00    -0.312 NA
ATOM      9  H   LIG    1       -4.559   3.582  -0.688  0.00  0.00    +0.122 HD
ATOM     10  C   LIG    1       -2.532   3.898  -0.211  0.00  0.00    +0.117 C 
ATOM     11  C   LIG    1       -1.245   3.124  -0.097  0.00  0.00    -0.023 A 
ENDROOT
BRANCH   1  15
ATOM     12  C   LIG    1       -0.101   8.088   0.054  0.00  0.00    +0.000 A 
ATOM     13  C   LIG    1       -0.854   7.383   0.976  0.00  0.00    +0.001 A 
ATOM     14  C   LIG    1       -0.841   6.003   0.971  0.00  0.00    +0.008 A 
ATOM     15  C   LIG    1       -0.067   5.319   0.035  0.00  0.00    -0.018 A 
ATOM     16  C   LIG    1        0.693   6.034  -0.888  0.00  0.00    +0.008 A 
ATOM     17  C   LIG    1        0.668   7.414  -0.877  0.00  0.00    +0.001 A 
ENDBRANCH   1  15
TORSDOF 1
