REMARK  Name = ZINC44405226
REMARK                            x       y       z     vdW  Elec       q    Type
REMARK                         _______ _______ _______ _____ _____    ______ ____
ROOT
ATOM      1  C   LIG    1       -2.824  -2.571   0.265  0.00  0.00    -0.049 A 
ATOM      2  C   LIG    1       -3.392  -2.707   1.518  0.00  0.00    +0.004 A 
ATOM      3  C   LIG    1       -4.685  -3.177   1.645  0.00  0.00    +0.015 A 
ATOM      4  C   LIG    1       -5.415  -3.512   0.511  0.00  0.00    +0.008 A 
ATOM      5  C   LIG    1       -4.841  -3.373  -0.747  0.00  0.00    +0.015 A 
ATOM      6  C   LIG    1       -3.550  -2.898  -0.867  0.00  0.00    +0.004 A 
ENDROOT
BRANCH   1   7
ATOM      7  C   LIG    1       -1.413  -2.059   0.130  0.00  0.00    +0.019 C 
BRANCH   7   8
ATOM      8  C   LIG    1       -1.433  -0.534   0.013  0.00  0.00    -0.071 C 
BRANCH   8   9
ATOM      9  N   LIG    1       -2.107  -0.147  -1.234  0.00  0.00    +0.380 N 
ATOM     10  H   LIG    1       -1.610  -0.539  -2.020  0.00  0.00    -0.090 HD
ATOM     11  H   LIG    1       -2.120   0.859  -1.311  0.00  0.00    -0.090 HD
ATOM     12  H   LIG    1       -3.054  -0.496  -1.227  0.00  0.00    -0.090 HD
ENDBRANCH   8   9
BRANCH   8  14
ATOM     13  C   LIG    1       -0.019   1.526   0.010  0.00  0.00    +0.002 C 
ATOM     14  C   LIG    1        0.002  -0.004   0.002  0.00  0.00    -0.019 C 
ENDBRANCH   8  14
ENDBRANCH   7   8
ENDBRANCH   1   7
BRANCH   4  15
ATOM     15  S   LIG    1       -7.064  -4.112   0.668  0.00  0.00    -0.125 S 
BRANCH  15  16
ATOM     16  C   LIG    1       -7.590  -4.404  -1.043  0.00  0.00    +0.071 C 
ATOM     17  C   LIG    1       -9.025  -4.935  -1.053  0.00  0.00    +0.015 C 
ENDBRANCH  15  16
ENDBRANCH   4  15
TORSDOF 6
