REMARK  Name = ZINC18098320
REMARK                            x       y       z     vdW  Elec       q    Type
REMARK                         _______ _______ _______ _____ _____    ______ ____
ROOT
ATOM      1  C   LIG    1       -0.341  -8.545  -1.025  0.00  0.00    +0.003 C 
ENDROOT
BRANCH   1   2
ATOM      2  C   LIG    1       -0.350  -7.047  -1.339  0.00  0.00    +0.037 C 
BRANCH   2   3
ATOM      3  C   LIG    1       -1.783  -6.596  -1.628  0.00  0.00    +0.196 C 
BRANCH   3   4
ATOM      4  N   LIG    1       -1.792  -5.162  -1.928  0.00  0.00    -0.276 N 
ATOM      5  H   LIG    1       -0.962  -4.660  -1.920  0.00  0.00    +0.258 HD
BRANCH   4   7
ATOM      6  N   LIG    1       -2.966  -3.266  -2.591  0.00  0.00    -0.003 NA
ATOM      7  C   LIG    1       -2.970  -4.532  -2.220  0.00  0.00    +0.390 C 
BRANCH   7   8
ATOM      8  N   LIG    1       -4.151  -5.214  -2.128  0.00  0.00    -0.289 N 
ATOM      9  H   LIG    1       -4.153  -6.145  -1.856  0.00  0.00    +0.255 HD
ATOM     10  H   LIG    1       -4.986  -4.767  -2.336  0.00  0.00    +0.255 HD
ENDBRANCH   7   8
BRANCH   6  11
ATOM     11  C   LIG    1       -1.797  -2.626  -2.793  0.00  0.00    +0.429 C 
ATOM     12  N   LIG    1       -0.979  -3.035  -3.731  0.00  0.00    -0.126 NA
ATOM     13  H   LIG    1       -1.181  -3.841  -4.232  0.00  0.00    +0.306 HD
BRANCH  11  14
ATOM     14  N   LIG    1       -1.461  -1.537  -2.011  0.00  0.00    -0.241 N 
ATOM     15  H   LIG    1       -2.038  -1.269  -1.279  0.00  0.00    +0.265 HD
BRANCH  14  22
ATOM     16  C   LIG    1        0.167  -0.689  -3.580  0.00  0.00    +0.043 A 
ATOM     17  C   LIG    1        1.325   0.019  -3.838  0.00  0.00    +0.023 A 
ATOM     18  C   LIG    1        2.032   0.594  -2.797  0.00  0.00    +0.041 A 
ATOM     19 CL   LIG    1        3.487   1.482  -3.124  0.00  0.00    -0.084 Cl
ATOM     20  C   LIG    1        1.581   0.463  -1.495  0.00  0.00    +0.023 A 
ATOM     21  C   LIG    1        0.423  -0.243  -1.232  0.00  0.00    +0.043 A 
ATOM     22  C   LIG    1       -0.288  -0.822  -2.275  0.00  0.00    +0.100 A 
ENDBRANCH  14  22
ENDBRANCH  11  14
ENDBRANCH   6  11
ENDBRANCH   4   7
ENDBRANCH   3   4
ENDBRANCH   2   3
ENDBRANCH   1   2
BRANCH   1  23
ATOM     23  C   LIG    1        1.092  -8.996  -0.736  0.00  0.00    +0.003 C 
BRANCH  23  24
ATOM     24  C   LIG    1        1.101 -10.494  -0.422  0.00  0.00    +0.037 C 
BRANCH  24  25
ATOM     25  C   LIG    1        2.534 -10.945  -0.132  0.00  0.00    +0.196 C 
BRANCH  25  26
ATOM     26  N   LIG    1        2.543 -12.379   0.168  0.00  0.00    -0.276 N 
ATOM     27  H   LIG    1        1.714 -12.882   0.160  0.00  0.00    +0.258 HD
BRANCH  26  28
ATOM     28  C   LIG    1        3.728 -13.013   0.462  0.00  0.00    +0.388 C 
ATOM     29  N   LIG    1        4.823 -12.319   0.590  0.00  0.00    -0.129 NA
ATOM     30  H   LIG    1        5.670 -12.771   0.725  0.00  0.00    +0.306 HD
BRANCH  28  31
ATOM     31  N   LIG    1        3.756 -14.383   0.620  0.00  0.00    -0.186 N 
ATOM     32  H   LIG    1        4.569 -14.819   0.918  0.00  0.00    +0.271 HD
BRANCH  31  33
ATOM     33  C   LIG    1        2.630 -15.130   0.355  0.00  0.00    +0.394 C 
ATOM     34  N   LIG    1        1.567 -14.556  -0.155  0.00  0.00    -0.073 NA
BRANCH  34  35
ATOM     35  C   LIG    1        0.486 -15.315  -0.519  0.00  0.00    +0.142 A 
ATOM     36  C   LIG    1        0.654 -16.415  -1.362  0.00  0.00    +0.047 A 
ATOM     37  C   LIG    1       -0.438 -17.176  -1.725  0.00  0.00    +0.023 A 
ATOM     38  C   LIG    1       -1.699 -16.851  -1.254  0.00  0.00    +0.041 A 
ATOM     39 CL   LIG    1       -3.068 -17.812  -1.716  0.00  0.00    -0.084 Cl
ATOM     40  C   LIG    1       -1.872 -15.761  -0.418  0.00  0.00    +0.023 A 
ATOM     41  C   LIG    1       -0.787 -14.996  -0.043  0.00  0.00    +0.047 A 
ENDBRANCH  34  35
BRANCH  33  42
ATOM     42  N   LIG    1        2.621 -16.476   0.625  0.00  0.00    -0.288 N 
ATOM     43  H   LIG    1        3.457 -16.955   0.731  0.00  0.00    +0.255 HD
ATOM     44  H   LIG    1        1.777 -16.947   0.710  0.00  0.00    +0.255 HD
ENDBRANCH  33  42
ENDBRANCH  31  33
ENDBRANCH  28  31
ENDBRANCH  26  28
ENDBRANCH  25  26
ENDBRANCH  24  25
ENDBRANCH  23  24
ENDBRANCH   1  23
TORSDOF 17
