REMARK  Name = ZINC19859265
REMARK                            x       y       z     vdW  Elec       q    Type
REMARK                         _______ _______ _______ _____ _____    ______ ____
ROOT
ATOM      1  C   LIG    1        3.575  -0.840  -0.108  0.00  0.00    +0.044 C 
ATOM      2  C   LIG    1        2.329  -0.027   0.133  0.00  0.00    -0.050 A 
ATOM      3  C   LIG    1        1.231  -0.615   0.747  0.00  0.00    +0.005 A 
ATOM      4  C   LIG    1        0.083   0.109   0.977  0.00  0.00    +0.026 A 
ATOM      5  C   LIG    1        0.019   1.445   0.591  0.00  0.00    +0.047 A 
ATOM      6  C   LIG    1        1.134   2.040  -0.032  0.00  0.00    +0.001 A 
ATOM      7  C   LIG    1        0.784   3.384  -0.308  0.00  0.00    +0.040 A 
ATOM      8  C   LIG    1       -0.486   3.580   0.133  0.00  0.00    +0.103 A 
ATOM      9  N   LIG    1       -0.963   2.404   0.677  0.00  0.00    -0.351 N 
ATOM     10  H   LIG    1       -1.935   2.156   1.129  0.00  0.00    +0.166 HD
ATOM     11  C   LIG    1        2.290   1.281  -0.255  0.00  0.00    +0.013 A 
ENDROOT
BRANCH   8  12
ATOM     12  C   LIG    1       -1.235   4.842   0.040  0.00  0.00    +0.263 C 
ATOM     13  N   LIG    1       -2.580   4.822  -0.049  0.00  0.00    -0.294 N 
ATOM     14  C   LIG    1       -3.349   6.073  -0.141  0.00  0.00    +0.123 C 
ATOM     15  C   LIG    1       -4.301   5.966  -1.342  0.00  0.00    +0.103 C 
ATOM     16  N   LIG    1       -5.111   4.747  -1.211  0.00  0.00    -0.302 NA
ATOM     17  C   LIG    1       -6.155   4.696  -2.243  0.00  0.00    +0.105 C 
ATOM     18  C   LIG    1       -4.272   3.543  -1.250  0.00  0.00    +0.103 C 
ATOM     19  C   LIG    1       -3.317   3.550  -0.051  0.00  0.00    +0.123 C 
ATOM     20  O   LIG    1       -0.641   5.904   0.043  0.00  0.00    -0.268 OA
ENDBRANCH   8  12
TORSDOF 1
