REMARK  Name = ZINC18144244
REMARK                            x       y       z     vdW  Elec       q    Type
REMARK                         _______ _______ _______ _____ _____    ______ ____
ROOT
ATOM      1  C   LIG    1        1.253  -2.158  -0.023  0.00  0.00    +0.226 C 
ATOM      2  N   LIG    1        1.277  -2.821   1.110  0.00  0.00    -0.176 NA
ENDROOT
BRANCH   1   9
ATOM      3  C   LIG    1       -0.017   1.376   0.010  0.00  0.00    +0.022 A 
ATOM      4  C   LIG    1        1.170   2.088   0.002  0.00  0.00    +0.023 A 
ATOM      5  C   LIG    1        2.384   1.424  -0.013  0.00  0.00    +0.060 A 
ATOM      6 CL   LIG    1        3.866   2.328  -0.022  0.00  0.00    -0.082 Cl
ATOM      7  C   LIG    1        2.419   0.042  -0.021  0.00  0.00    +0.073 A 
ATOM      8 CL   LIG    1        3.943  -0.790  -0.042  0.00  0.00    -0.081 Cl
ATOM      9  C   LIG    1        1.224  -0.683  -0.014  0.00  0.00    +0.074 A 
ATOM     10  C   LIG    1        0.002  -0.004   0.002  0.00  0.00    +0.055 A 
ATOM     11 CL   LIG    1       -1.488  -0.894   0.012  0.00  0.00    -0.083 Cl
ENDBRANCH   1   9
BRANCH   2  12
ATOM     12  C   LIG    1        1.303  -4.180   1.102  0.00  0.00    +0.249 A 
ATOM     13  N   LIG    1        1.335  -4.990   2.195  0.00  0.00    -0.243 N 
ATOM     14  H   LIG    1        1.343  -4.715   3.124  0.00  0.00    +0.192 HD
ATOM     15  N   LIG    1        1.349  -6.307   1.705  0.00  0.00    -0.159 NA
ATOM     16  C   LIG    1        1.336  -6.232   0.400  0.00  0.00    +0.247 A 
ATOM     17  N   LIG    1        1.308  -4.954   0.030  0.00  0.00    -0.198 NA
ENDBRANCH   2  12
BRANCH   1  18
ATOM     18  O   LIG    1        1.254  -2.826  -1.197  0.00  0.00    -0.492 OA
ATOM     19  H   LIG    1        1.237  -2.353  -2.006  0.00  0.00    +0.294 HD
ENDBRANCH   1  18
TORSDOF 3
