REMARK  Name = ZINC22217692
REMARK                            x       y       z     vdW  Elec       q    Type
REMARK                         _______ _______ _______ _____ _____    ______ ____
ROOT
ATOM      1  C   LIG    1        1.177   2.072   0.002  0.00  0.00    +0.000 A 
ATOM      2  C   LIG    1       -0.017   1.374   0.010  0.00  0.00    +0.001 A 
ATOM      3  C   LIG    1        0.002  -0.004   0.002  0.00  0.00    +0.015 A 
ATOM      4  C   LIG    1        1.214  -0.696  -0.014  0.00  0.00    +0.014 A 
ATOM      5  C   LIG    1        2.408  -0.001  -0.041  0.00  0.00    -0.002 A 
ATOM      6  C   LIG    1        3.763  -0.642  -0.113  0.00  0.00    +0.139 C 
ATOM      7  C   LIG    1        4.773   0.221   0.619  0.00  0.00    +0.249 C 
ATOM      8  N   LIG    1        5.658   0.619  -0.317  0.00  0.00    -0.238 N 
ATOM      9  H   LIG    1        6.502   1.266  -0.035  0.00  0.00    +0.159 HD
ATOM     10  C   LIG    1        5.351   0.132  -1.525  0.00  0.00    +0.307 C 
ATOM     11  O   LIG    1        6.002   0.352  -2.527  0.00  0.00    -0.252 OA
ATOM     12  O   LIG    1        4.783   0.495   1.800  0.00  0.00    -0.273 OA
ATOM     13  C   LIG    1        3.802  -2.059   0.434  0.00  0.00    +0.051 C 
ATOM     14  C   LIG    1        2.860  -2.942  -0.398  0.00  0.00    +0.077 C 
ATOM     15  N   LIG    1        4.242  -0.629  -1.506  0.00  0.00    -0.281 N 
ATOM     16  H   LIG    1        3.694  -1.185  -2.281  0.00  0.00    +0.152 HD
ATOM     17  S   LIG    1        1.159  -2.460   0.021  0.00  0.00    -0.125 S 
ATOM     18  C   LIG    1        2.375   1.391  -0.023  0.00  0.00    +0.007 A 
ENDROOT
TORSDOF 0
