REMARK  Name = ZINC43019733
REMARK                            x       y       z     vdW  Elec       q    Type
REMARK                         _______ _______ _______ _____ _____    ______ ____
ROOT
ATOM      1  N   LIG    1       -4.891  -2.581   0.035  0.00  0.00    -0.269 N 
ATOM      2  H   LIG    1       -5.709  -2.067   0.120  0.00  0.00    +0.156 HD
ATOM      3  C   LIG    1       -4.946  -3.924  -0.068  0.00  0.00    +0.307 C 
ATOM      4  N   LIG    1       -6.138  -4.544  -0.161  0.00  0.00    -0.279 N 
ATOM      5  C   LIG    1       -7.490  -3.935  -0.175  0.00  0.00    +0.080 C 
ATOM      6  C   LIG    1       -8.337  -4.867   0.723  0.00  0.00    +0.024 C 
ATOM      7  C   LIG    1       -7.621  -6.233   0.657  0.00  0.00    +0.024 C 
ATOM      8  C   LIG    1       -8.022  -4.035  -1.613  0.00  0.00    +0.049 C 
ATOM      9  C   LIG    1       -8.193  -5.522  -1.963  0.00  0.00    +0.139 C 
ATOM     10  C   LIG    1       -6.871  -6.258  -1.724  0.00  0.00    +0.049 C 
ATOM     11  C   LIG    1       -6.410  -5.997  -0.281  0.00  0.00    +0.080 C 
ATOM     12  O   LIG    1       -3.919  -4.576  -0.078  0.00  0.00    -0.252 OA
ENDROOT
BRANCH   1  16
ATOM     13  C   LIG    1       -1.202  -0.635  -0.012  0.00  0.00    +0.120 A 
ATOM     14  C   LIG    1       -1.385  -1.792  -0.755  0.00  0.00    +0.047 A 
ATOM     15  C   LIG    1       -2.606  -2.437  -0.740  0.00  0.00    +0.027 A 
ATOM     16  C   LIG    1       -3.651  -1.928   0.019  0.00  0.00    +0.035 A 
ATOM     17  C   LIG    1       -3.467  -0.770   0.763  0.00  0.00    +0.027 A 
ATOM     18  C   LIG    1       -2.244  -0.129   0.751  0.00  0.00    +0.047 A 
BRANCH  13  20
ATOM     19  C   LIG    1        1.028  -0.578  -0.836  0.00  0.00    +0.277 C 
ATOM     20  O   LIG    1        0.000  -0.001  -0.028  0.00  0.00    -0.495 OA
ENDBRANCH  13  20
ENDBRANCH   1  16
BRANCH   9  21
ATOM     21  S   LIG    1       -8.660  -5.671  -3.709  0.00  0.00    -0.000 S 
ATOM     22  O   LIG    1       -9.102  -6.993  -3.987  0.00  0.00    -0.169 OA
ATOM     23  O   LIG    1       -7.685  -5.046  -4.532  0.00  0.00    -0.169 OA
BRANCH  21  24
ATOM     24  C   LIG    1      -10.101  -4.671  -3.879  0.00  0.00    +0.088 A 
ATOM     25  C   LIG    1      -11.352  -5.222  -3.676  0.00  0.00    +0.027 A 
ATOM     26  C   LIG    1      -12.482  -4.437  -3.810  0.00  0.00    +0.002 A 
ATOM     27  C   LIG    1      -12.361  -3.102  -4.146  0.00  0.00    +0.000 A 
ATOM     28  C   LIG    1      -11.109  -2.551  -4.348  0.00  0.00    +0.002 A 
ATOM     29  C   LIG    1       -9.979  -3.335  -4.210  0.00  0.00    +0.027 A 
ENDBRANCH  21  24
ENDBRANCH   9  21
TORSDOF 4
