REMARK  Name = ZINC29395604
REMARK                            x       y       z     vdW  Elec       q    Type
REMARK                         _______ _______ _______ _____ _____    ______ ____
ROOT
ATOM      1  C   LIG    1        1.204  -0.697  -0.013  0.00  0.00    +0.006 A 
ATOM      2  C   LIG    1        2.393  -0.023  -0.020  0.00  0.00    +0.012 A 
ATOM      3  C   LIG    1        2.396   1.374  -0.013  0.00  0.00    +0.021 A 
ATOM      4  C   LIG    1        3.446   2.391  -0.017  0.00  0.00    +0.065 A 
ATOM      5  C   LIG    1        2.809   3.591  -0.005  0.00  0.00    +0.212 A 
ATOM      6  O   LIG    1        1.473   3.397   0.006  0.00  0.00    -0.448 OA
ATOM      7  C   LIG    1        1.179   2.082   0.002  0.00  0.00    +0.136 A 
ATOM      8  C   LIG    1       -0.017   1.374   0.010  0.00  0.00    +0.052 A 
ATOM      9  C   LIG    1        0.002  -0.004   0.002  0.00  0.00    -0.024 A 
ENDROOT
BRANCH   5  10
ATOM     10  C   LIG    1        3.473   4.901  -0.004  0.00  0.00    +0.373 C 
ATOM     11  O   LIG    1        4.686   4.967  -0.015  0.00  0.00    -0.242 OA
BRANCH  10  12
ATOM     12  O   LIG    1        2.736   6.030   0.009  0.00  0.00    -0.475 OA
ATOM     13  H   LIG    1        1.800   5.979   0.017  0.00  0.00    +0.296 HD
ENDBRANCH  10  12
ENDBRANCH   5  10
BRANCH   9  14
ATOM     14  C   LIG    1       -1.298  -0.767   0.010  0.00  0.00    +0.158 C 
BRANCH  14  15
ATOM     15  N   LIG    1       -1.732  -1.006  -1.368  0.00  0.00    -0.332 N 
ATOM     16  C   LIG    1       -2.535  -0.192  -2.120  0.00  0.00    +0.107 A 
ATOM     17  C   LIG    1       -2.678  -0.786  -3.320  0.00  0.00    +0.130 A 
ATOM     18  N   LIG    1       -1.989  -1.937  -3.298  0.00  0.00    -0.244 NA
ATOM     19  C   LIG    1       -1.420  -2.075  -2.132  0.00  0.00    +0.199 A 
ENDBRANCH  14  15
ENDBRANCH   9  14
TORSDOF 4
