REMARK  Name = ZINC14961096
REMARK                            x       y       z     vdW  Elec       q    Type
REMARK                         _______ _______ _______ _____ _____    ______ ____
ROOT
ATOM      1  C   LIG    1        0.996  -2.079  -0.133  0.00  0.00    +0.157 C 
ATOM      2  N   LIG    1        1.104  -0.618  -0.093  0.00  0.00    -0.264 N 
ATOM      3  C   LIG    1        2.316  -0.036  -0.180  0.00  0.00    +0.258 A 
ATOM      4  C   LIG    1        2.417   1.364  -0.143  0.00  0.00    +0.112 A 
ATOM      5  C   LIG    1        1.277   2.108  -0.017  0.00  0.00    +0.111 A 
ATOM      6  N   LIG    1        0.062   1.473   0.068  0.00  0.00    -0.277 N 
ATOM      7  O   LIG    1        3.319  -0.720  -0.292  0.00  0.00    -0.267 OA
ATOM      8  C   LIG    1       -0.007   0.130   0.029  0.00  0.00    +0.333 A 
ATOM      9  O   LIG    1       -1.091  -0.416   0.106  0.00  0.00    -0.246 OA
ENDROOT
BRANCH   5  10
ATOM     10  N   LIG    1        1.346   3.478   0.022  0.00  0.00    -0.318 N 
ATOM     11  C   LIG    1        1.316   3.966   1.407  0.00  0.00    +0.106 C 
ATOM     12  C   LIG    1        1.248   5.495   1.408  0.00  0.00    +0.017 C 
ATOM     13  C   LIG    1        2.469   6.057   0.675  0.00  0.00    -0.013 C 
ATOM     14  C   LIG    1        2.503   5.494  -0.749  0.00  0.00    -0.057 C 
ATOM     15  C   LIG    1        2.535   3.965  -0.688  0.00  0.00    +0.090 C 
BRANCH  14  16
ATOM     16  N   LIG    1        3.700   5.972  -1.463  0.00  0.00    +0.381 N 
ATOM     17  H   LIG    1        3.688   5.608  -2.423  0.00  0.00    -0.090 HD
ATOM     18  H   LIG    1        4.542   5.643  -0.994  0.00  0.00    -0.090 HD
ATOM     19  H   LIG    1        3.706   6.990  -1.494  0.00  0.00    -0.090 HD
ENDBRANCH  14  16
ENDBRANCH   5  10
BRANCH   6  20
ATOM     20  C   LIG    1       -1.165   2.262   0.196  0.00  0.00    +0.164 C 
BRANCH  20  21
ATOM     21  C   LIG    1       -1.604   2.733  -1.167  0.00  0.00    -0.010 A 
ATOM     22  C   LIG    1       -1.216   3.974  -1.628  0.00  0.00    +0.006 A 
ATOM     23  C   LIG    1       -1.619   4.407  -2.878  0.00  0.00    +0.000 A 
ATOM     24  C   LIG    1       -2.412   3.601  -3.675  0.00  0.00    +0.001 A 
ATOM     25  C   LIG    1       -2.807   2.358  -3.227  0.00  0.00    +0.019 A 
ATOM     26  C   LIG    1       -2.400   1.911  -1.968  0.00  0.00    +0.057 A 
BRANCH  26  27
ATOM     27  C   LIG    1       -2.802   0.620  -1.498  0.00  0.00    +0.099 C 
ATOM     28  N   LIG    1       -3.120  -0.405  -1.125  0.00  0.00    -0.191 NA
ENDBRANCH  26  27
ENDBRANCH  20  21
ENDBRANCH   6  20
TORSDOF 5
