REMARK  Name = ZINC43197966
REMARK                            x       y       z     vdW  Elec       q    Type
REMARK                         _______ _______ _______ _____ _____    ______ ____
ROOT
ATOM      1  C   LIG    1       -9.027  -2.888  -1.062  0.00  0.00    +0.142 C 
ATOM      2  C   LIG    1       -9.909  -2.600  -2.129  0.00  0.00    +0.027 C 
ATOM      3  C   LIG    1       -9.551  -1.783  -3.207  0.00  0.00    +0.007 C 
ATOM      4  C   LIG    1      -10.456  -1.551  -4.200  0.00  0.00    +0.000 C 
ATOM      5  C   LIG    1      -11.729  -2.113  -4.157  0.00  0.00    +0.000 C 
ATOM      6  C   LIG    1      -12.111  -2.913  -3.121  0.00  0.00    +0.005 C 
ATOM      7  C   LIG    1      -11.206  -3.173  -2.084  0.00  0.00    +0.013 C 
ATOM      8  C   LIG    1      -11.525  -3.988  -0.982  0.00  0.00    +0.077 C 
ATOM      9  N   LIG    1      -10.621  -4.184  -0.050  0.00  0.00    -0.252 NA
ATOM     10  H   LIG    1      -10.486  -5.194  -0.001  0.00  0.00    +0.141 HD
ATOM     11  N   LIG    1       -9.446  -3.674  -0.086  0.00  0.00    -0.239 NA
ATOM     12  H   LIG    1       -8.836  -3.872   0.641  0.00  0.00    +0.142 HD
ENDROOT
BRANCH   1  16
ATOM     13  N   LIG    1       -5.226  -2.062  -0.027  0.00  0.00    -0.285 NA
ATOM     14  C   LIG    1       -6.322  -1.390   0.684  0.00  0.00    +0.101 C 
ATOM     15  C   LIG    1       -7.459  -1.120  -0.309  0.00  0.00    +0.101 C 
ATOM     16  N   LIG    1       -7.747  -2.361  -1.042  0.00  0.00    -0.284 NA
ATOM     17  C   LIG    1       -6.650  -3.033  -1.754  0.00  0.00    +0.101 C 
ATOM     18  C   LIG    1       -5.515  -3.300  -0.765  0.00  0.00    +0.101 C 
BRANCH  13  22
ATOM     19  C   LIG    1       -1.412  -0.524   0.015  0.00  0.00    +0.034 C 
ATOM     20  C   LIG    1       -2.430   0.220   0.597  0.00  0.00    +0.010 C 
ATOM     21  C   LIG    1       -3.714  -0.294   0.585  0.00  0.00    +0.035 C 
ATOM     22  C   LIG    1       -3.941  -1.533  -0.008  0.00  0.00    +0.124 C 
ATOM     23  N   LIG    1       -2.944  -2.212  -0.553  0.00  0.00    -0.301 NA
ATOM     24  H   LIG    1       -3.125  -3.073  -0.960  0.00  0.00    +0.123 HD
ATOM     25  C   LIG    1       -1.710  -1.743  -0.560  0.00  0.00    +0.088 C 
BRANCH  19  27
ATOM     26  C   LIG    1       -0.018   1.526  -0.020  0.00  0.00    +0.041 C 
ATOM     27  C   LIG    1        0.002  -0.003   0.005  0.00  0.00    +0.064 C 
ATOM     28  C   LIG    1        0.730  -0.483   1.262  0.00  0.00    +0.041 C 
BRANCH  27  29
ATOM     29  O   LIG    1        0.681  -0.490  -1.154  0.00  0.00    -0.389 OA
ATOM     30  H   LIG    1        0.732  -1.455  -1.204  0.00  0.00    +0.210 HD
ENDBRANCH  27  29
ENDBRANCH  19  27
ENDBRANCH  13  22
ENDBRANCH   1  16
BRANCH   8  31
ATOM     31  C   LIG    1      -12.885  -4.627  -0.873  0.00  0.00    +0.055 C 
BRANCH  31  32
ATOM     32  C   LIG    1      -12.860  -5.978  -1.540  0.00  0.00    -0.046 A 
ATOM     33  C   LIG    1      -13.164  -6.091  -2.884  0.00  0.00    +0.004 A 
ATOM     34  C   LIG    1      -13.141  -7.331  -3.496  0.00  0.00    +0.000 A 
ATOM     35  C   LIG    1      -12.814  -8.457  -2.764  0.00  0.00    +0.000 A 
ATOM     36  C   LIG    1      -12.509  -8.344  -1.421  0.00  0.00    +0.000 A 
ATOM     37  C   LIG    1      -12.528  -7.104  -0.810  0.00  0.00    +0.004 A 
ENDBRANCH  31  32
ENDBRANCH   8  31
TORSDOF 6
