REMARK  Name = ZINC20102293
REMARK                            x       y       z     vdW  Elec       q    Type
REMARK                         _______ _______ _______ _____ _____    ______ ____
ROOT
ATOM      1  N   LIG    1       -0.680  -4.733  -1.452  0.00  0.00    -0.275 N 
ATOM      2  H   LIG    1       -0.917  -5.161  -0.614  0.00  0.00    +0.258 HD
ENDROOT
BRANCH   1   3
ATOM      3  C   LIG    1       -1.197  -5.200  -2.630  0.00  0.00    +0.387 C 
ATOM      4  N   LIG    1       -1.933  -6.292  -2.639  0.00  0.00    -0.032 NA
BRANCH   4   5
ATOM      5  C   LIG    1       -2.266  -6.897  -1.467  0.00  0.00    +0.330 A 
ATOM      6  N   LIG    1       -3.434  -6.614  -0.897  0.00  0.00    -0.204 NA
ATOM      7  C   LIG    1       -3.786  -7.186   0.241  0.00  0.00    +0.117 A 
ATOM      8  C   LIG    1       -2.922  -8.090   0.841  0.00  0.00    +0.040 A 
ATOM      9  C   LIG    1       -1.712  -8.364   0.222  0.00  0.00    +0.117 A 
ATOM     10  N   LIG    1       -1.419  -7.764  -0.919  0.00  0.00    -0.204 NA
ENDBRANCH   4   5
BRANCH   3  11
ATOM     11  N   LIG    1       -0.949  -4.532  -3.799  0.00  0.00    -0.289 N 
ATOM     12  H   LIG    1       -1.315  -4.863  -4.634  0.00  0.00    +0.255 HD
ATOM     13  H   LIG    1       -0.407  -3.727  -3.792  0.00  0.00    +0.255 HD
ENDBRANCH   3  11
ENDBRANCH   1   3
BRANCH   1  14
ATOM     14  C   LIG    1        0.231  -3.585  -1.455  0.00  0.00    +0.200 C 
BRANCH  14  15
ATOM     15  C   LIG    1        0.659  -3.270  -0.021  0.00  0.00    +0.074 C 
BRANCH  15  21
ATOM     16  C   LIG    1       -0.024   1.368   0.003  0.00  0.00    +0.001 A 
ATOM     17  C   LIG    1        1.162   2.089  -0.004  0.00  0.00    +0.002 A 
ATOM     18  C   LIG    1        2.378   1.442  -0.017  0.00  0.00    +0.026 A 
ATOM     19  C   LIG    1        2.421   0.051  -0.023  0.00  0.00    +0.047 A 
ATOM     20  C   LIG    1        1.216  -0.675  -0.015  0.00  0.00    +0.003 A 
ATOM     21  C   LIG    1        1.596  -2.090  -0.024  0.00  0.00    -0.019 A 
ATOM     22  C   LIG    1        2.938  -2.135  -0.036  0.00  0.00    +0.087 A 
ATOM     23  N   LIG    1        3.448  -0.866  -0.035  0.00  0.00    -0.360 N 
ATOM     24  H   LIG    1        4.392  -0.644  -0.042  0.00  0.00    +0.165 HD
ATOM     25  C   LIG    1       -0.005   0.002  -0.003  0.00  0.00    +0.010 A 
ENDBRANCH  15  21
ENDBRANCH  14  15
ENDBRANCH   1  14
TORSDOF 6
