REMARK  Name = ZINC28563821
REMARK                            x       y       z     vdW  Elec       q    Type
REMARK                         _______ _______ _______ _____ _____    ______ ____
ROOT
ATOM      1  C   LIG    1       -0.610  -8.074   2.090  0.00  0.00    +0.117 A 
ATOM      2  N   LIG    1       -0.958  -8.910   1.070  0.00  0.00    -0.339 N 
ATOM      3  C   LIG    1       -0.640 -10.190   1.467  0.00  0.00    +0.072 A 
ATOM      4  C   LIG    1       -0.099 -10.081   2.738  0.00  0.00    +0.072 A 
ATOM      5  H   LIG    1       -1.355  -8.652   0.224  0.00  0.00    +0.167 HD
ATOM      6  N   LIG    1       -0.096  -8.780   3.072  0.00  0.00    -0.339 N 
ATOM      7  H   LIG    1        0.233  -8.418   3.909  0.00  0.00    +0.167 HD
ENDROOT
BRANCH   4   8
ATOM      8  C   LIG    1        0.393 -11.198   3.576  0.00  0.00    +0.001 A 
ATOM      9  C   LIG    1        1.239 -12.164   3.028  0.00  0.00    +0.010 A 
ATOM     10  C   LIG    1        1.694 -13.200   3.807  0.00  0.00    +0.011 A 
ATOM     11  C   LIG    1        1.312 -13.293   5.154  0.00  0.00    +0.003 A 
ATOM     12  C   LIG    1        0.467 -12.327   5.699  0.00  0.00    -0.037 A 
ATOM     13  C   LIG    1        0.205 -12.643   7.152  0.00  0.00    +0.042 C 
ATOM     14  C   LIG    1        0.986 -13.927   7.463  0.00  0.00    +0.064 C 
ATOM     15  C   LIG    1        1.671 -14.302   6.171  0.00  0.00    +0.088 C 
ATOM     16  N   LIG    1        2.437 -15.328   5.987  0.00  0.00    -0.092 NA
ATOM     17  C   LIG    1        0.016 -11.284   4.917  0.00  0.00    +0.014 A 
BRANCH  16  18
ATOM     18  O   LIG    1        2.697 -16.219   7.056  0.00  0.00    -0.409 OA
ATOM     19  H   LIG    1        3.280 -16.954   6.823  0.00  0.00    +0.328 HD
ENDBRANCH  16  18
ENDBRANCH   4   8
BRANCH   1  23
ATOM     20  C   LIG    1       -1.093  -3.853   2.087  0.00  0.00    +0.120 A 
ATOM     21  C   LIG    1       -1.494  -4.597   0.984  0.00  0.00    +0.046 A 
ATOM     22  C   LIG    1       -1.339  -5.966   0.982  0.00  0.00    +0.015 A 
ATOM     23  C   LIG    1       -0.777  -6.606   2.089  0.00  0.00    +0.016 A 
ATOM     24  C   LIG    1       -0.375  -5.854   3.195  0.00  0.00    +0.015 A 
ATOM     25  C   LIG    1       -0.529  -4.484   3.188  0.00  0.00    +0.046 A 
BRANCH  20  26
ATOM     26  O   LIG    1       -1.248  -2.503   2.085  0.00  0.00    -0.494 OA
BRANCH  26  27
ATOM     27  C   LIG    1       -1.834  -1.919   0.921  0.00  0.00    +0.210 C 
BRANCH  27  28
ATOM     28  C   LIG    1       -1.926  -0.402   1.103  0.00  0.00    -0.038 C 
BRANCH  28  30
ATOM     29  C   LIG    1        0.119  -0.011  -0.089  0.00  0.00    -0.096 C 
ATOM     30  N   LIG    1       -0.573   0.162   1.195  0.00  0.00    +0.378 N 
ATOM     31  H   LIG    1       -0.059  -0.314   1.921  0.00  0.00    -0.082 HD
ATOM     32  C   LIG    1       -0.660   1.594   1.515  0.00  0.00    -0.096 C 
ENDBRANCH  28  30
ENDBRANCH  27  28
ENDBRANCH  26  27
ENDBRANCH  20  26
ENDBRANCH   1  23
BRANCH   3  33
ATOM     33  C   LIG    1       -0.836 -11.430   0.693  0.00  0.00    +0.003 A 
ATOM     34  C   LIG    1       -1.414 -12.563   1.281  0.00  0.00    +0.030 A 
ATOM     35  C   LIG    1       -1.578 -13.700   0.520  0.00  0.00    +0.111 A 
ATOM     36  N   LIG    1       -1.199 -13.731  -0.744  0.00  0.00    -0.263 NA
ATOM     37  C   LIG    1       -0.650 -12.687  -1.337  0.00  0.00    +0.111 A 
ATOM     38  C   LIG    1       -0.454 -11.506  -0.654  0.00  0.00    +0.030 A 
ENDBRANCH   3  33
TORSDOF 8
