REMARK  Name = ZINC17782150
REMARK                            x       y       z     vdW  Elec       q    Type
REMARK                         _______ _______ _______ _____ _____    ______ ____
ROOT
ATOM      1  C   LIG    1       -2.319  -2.694   0.011  0.00  0.00    +0.164 A 
ATOM      2  C   LIG    1       -3.617  -2.154   0.020  0.00  0.00    +0.139 A 
ATOM      3  N   LIG    1       -4.473  -3.167   0.025  0.00  0.00    -0.284 N 
ATOM      4  N   LIG    1       -3.756  -4.368   0.018  0.00  0.00    -0.284 N 
ATOM      5  H   LIG    1       -4.144  -5.257   0.020  0.00  0.00    +0.188 HD
ATOM      6  H   LIG    1       -5.440  -3.088   0.031  0.00  0.00    +0.188 HD
ATOM      7  C   LIG    1       -2.458  -4.093   0.004  0.00  0.00    +0.139 A 
ENDROOT
BRANCH   2   8
ATOM      8  N   LIG    1       -3.943  -0.806   0.025  0.00  0.00    -0.342 N 
ATOM      9  H   LIG    1       -4.874  -0.532   0.031  0.00  0.00    +0.144 HD
ATOM     10  H   LIG    1       -3.241  -0.137   0.021  0.00  0.00    +0.144 HD
ENDBRANCH   2   8
BRANCH   7  11
ATOM     11  N   LIG    1       -1.425  -5.018  -0.010  0.00  0.00    -0.342 N 
ATOM     12  H   LIG    1       -1.624  -5.967  -0.013  0.00  0.00    +0.144 HD
ATOM     13  H   LIG    1       -0.503  -4.716  -0.017  0.00  0.00    +0.144 HD
ENDBRANCH   7  11
BRANCH   1  15
ATOM     14  N   LIG    1       -1.172  -0.706   0.010  0.00  0.00    -0.149 NA
ATOM     15  N   LIG    1       -1.152  -1.996   0.003  0.00  0.00    -0.142 NA
BRANCH  14  21
ATOM     16  C   LIG    1       -0.017   1.393   0.010  0.00  0.00    +0.033 A 
ATOM     17  C   LIG    1        1.168   2.096   0.002  0.00  0.00    +0.047 A 
ATOM     18  C   LIG    1        2.380   1.418  -0.013  0.00  0.00    +0.117 A 
ATOM     19  C   LIG    1        2.404   0.029  -0.021  0.00  0.00    +0.047 A 
ATOM     20  C   LIG    1        1.224  -0.682  -0.014  0.00  0.00    +0.033 A 
ATOM     21  C   LIG    1        0.002  -0.004   0.002  0.00  0.00    +0.086 A 
BRANCH  18  22
ATOM     22  O   LIG    1        3.546   2.115  -0.020  0.00  0.00    -0.507 OA
ATOM     23  H   LIG    1        3.892   2.312   0.861  0.00  0.00    +0.292 HD
ENDBRANCH  18  22
ENDBRANCH  14  21
ENDBRANCH   1  15
TORSDOF 5
