REMARK  Name = ZINC13800504
REMARK                            x       y       z     vdW  Elec       q    Type
REMARK                         _______ _______ _______ _____ _____    ______ ____
ROOT
ATOM      1  C   LIG    1        1.418  -4.039  -2.245  0.00  0.00    +0.048 A 
ATOM      2  C   LIG    1        0.841  -4.797  -1.234  0.00  0.00    +0.026 A 
ATOM      3  C   LIG    1        0.966  -6.172  -1.248  0.00  0.00    +0.030 A 
ATOM      4  C   LIG    1        1.663  -6.796  -2.266  0.00  0.00    +0.106 A 
ATOM      5  C   LIG    1        2.239  -6.045  -3.274  0.00  0.00    +0.045 A 
ATOM      6  C   LIG    1        2.113  -4.668  -3.270  0.00  0.00    +0.041 A 
ATOM      7 BR   LIG    1        2.894  -3.642  -4.654  0.00  0.00    -0.048 Br
ENDROOT
BRANCH   1   9
ATOM      8  C   LIG    1        1.284  -1.978  -1.064  0.00  0.00    +0.200 C 
ATOM      9  N   LIG    1        1.293  -2.645  -2.235  0.00  0.00    -0.286 N 
ATOM     10  H   LIG    1        1.214  -2.159  -3.071  0.00  0.00    +0.155 HD
ATOM     11  O   LIG    1        1.301  -2.591  -0.017  0.00  0.00    -0.278 OA
BRANCH   8  12
ATOM     12  C   LIG    1        1.252  -0.471  -1.055  0.00  0.00    +0.015 C 
BRANCH  12  14
ATOM     13  C   LIG    1        1.216   1.479   0.342  0.00  0.00    -0.100 C 
ATOM     14  N   LIG    1        1.247   0.010   0.333  0.00  0.00    +0.383 N 
ATOM     15  H   LIG    1        0.432  -0.346   0.810  0.00  0.00    -0.086 HD
ATOM     16  H   LIG    1        2.079  -0.312   0.803  0.00  0.00    -0.086 HD
ENDBRANCH  12  14
ENDBRANCH   8  12
ENDBRANCH   1   9
BRANCH   4  17
ATOM     17  S   LIG    1        1.820  -8.551  -2.279  0.00  0.00    +0.056 S 
ATOM     18  O   LIG    1        1.659  -8.982  -0.934  0.00  0.00    -0.153 OA
ATOM     19  O   LIG    1        2.981  -8.849  -3.041  0.00  0.00    -0.153 OA
BRANCH  17  20
ATOM     20  N   LIG    1        0.530  -9.151  -3.127  0.00  0.00    -0.204 NA
ATOM     21  H   LIG    1        0.433 -10.108  -3.248  0.00  0.00    +0.144 HD
ATOM     22  H   LIG    1       -0.128  -8.545  -3.502  0.00  0.00    +0.144 HD
ENDBRANCH  17  20
ENDBRANCH   4  17
TORSDOF 5
