REMARK  Name = ZINC26020837
REMARK                            x       y       z     vdW  Elec       q    Type
REMARK                         _______ _______ _______ _____ _____    ______ ____
ROOT
ATOM      1  N   LIG    1       -1.239   2.070   0.019  0.00  0.00    -0.202 N 
ATOM      2  C   LIG    1       -2.445   1.475   0.016  0.00  0.00    +0.258 C 
ATOM      3  C   LIG    1       -3.487   2.520   0.032  0.00  0.00    +0.050 A 
ATOM      4  C   LIG    1       -4.875   2.503   0.039  0.00  0.00    +0.017 A 
ATOM      5  C   LIG    1       -5.577   3.695   0.048  0.00  0.00    +0.046 A 
ATOM      6  C   LIG    1       -4.902   4.908   0.051  0.00  0.00    +0.118 A 
ATOM      7  C   LIG    1       -3.509   4.938   0.045  0.00  0.00    +0.059 A 
ATOM      8  C   LIG    1       -2.799   3.751   0.036  0.00  0.00    +0.053 A 
ATOM      9  O   LIG    1       -2.644   0.276   0.004  0.00  0.00    -0.269 OA
ATOM     10  C   LIG    1       -1.360   3.410   0.027  0.00  0.00    +0.258 C 
ATOM     11  O   LIG    1       -0.442   4.205   0.027  0.00  0.00    -0.269 OA
ENDROOT
BRANCH   1  15
ATOM     12  C   LIG    1        2.396   0.031  -0.021  0.00  0.00    +0.000 A 
ATOM     13  C   LIG    1        1.208  -0.677  -0.013  0.00  0.00    +0.002 A 
ATOM     14  C   LIG    1        0.002  -0.004   0.002  0.00  0.00    +0.024 A 
ATOM     15  C   LIG    1       -0.017   1.384   0.010  0.00  0.00    +0.045 A 
ATOM     16  C   LIG    1        1.178   2.092   0.002  0.00  0.00    +0.024 A 
ATOM     17  C   LIG    1        2.381   1.413  -0.013  0.00  0.00    +0.002 A 
ENDBRANCH   1  15
BRANCH   6  18
ATOM     18  O   LIG    1       -5.603   6.070   0.061  0.00  0.00    -0.507 OA
ATOM     19  H   LIG    1       -6.540   6.052   0.065  0.00  0.00    +0.292 HD
ENDBRANCH   6  18
TORSDOF 2
