REMARK  Name = ZINC13808139
REMARK                            x       y       z     vdW  Elec       q    Type
REMARK                         _______ _______ _______ _____ _____    ______ ____
ROOT
ATOM      1  N   LIG    1       -1.948  -1.147  -1.567  0.00  0.00    -0.108 N 
ATOM      2  H   LIG    1       -1.380  -0.801  -2.293  0.00  0.00    +0.211 HD
ENDROOT
BRANCH   1   3
ATOM      3  S   LIG    1       -1.512  -0.905   0.012  0.00  0.00    +0.095 S 
ATOM      4  O   LIG    1       -2.493  -0.046   0.577  0.00  0.00    -0.148 OA
ATOM      5  O   LIG    1       -1.218  -2.186   0.553  0.00  0.00    -0.148 OA
BRANCH   3  12
ATOM      6  C   LIG    1       -0.017   1.378   0.010  0.00  0.00    +0.030 A 
ATOM      7  C   LIG    1        1.171   2.086   0.002  0.00  0.00    +0.017 A 
ATOM      8  C   LIG    1        2.378   1.411  -0.013  0.00  0.00    +0.018 A 
ATOM      9 BR   LIG    1        4.003   2.378  -0.024  0.00  0.00    -0.050 Br
ATOM     10  C   LIG    1        2.396   0.027  -0.021  0.00  0.00    +0.017 A 
ATOM     11  C   LIG    1        1.208  -0.679  -0.013  0.00  0.00    +0.030 A 
ATOM     12  C   LIG    1        0.002  -0.004   0.002  0.00  0.00    +0.111 A 
ENDBRANCH   3  12
ENDBRANCH   1   3
BRANCH   1  13
ATOM     13  N   LIG    1       -3.124  -1.845  -1.871  0.00  0.00    -0.173 N 
ATOM     14  H   LIG    1       -3.684  -2.186  -1.155  0.00  0.00    +0.289 HD
ATOM     15  C   LIG    1       -3.466  -2.034  -3.109  0.00  0.00    +0.362 C 
BRANCH  15  16
ATOM     16  N   LIG    1       -4.632  -2.725  -3.409  0.00  0.00    -0.290 N 
ATOM     17  H   LIG    1       -4.888  -2.867  -4.334  0.00  0.00    +0.255 HD
ATOM     18  H   LIG    1       -5.192  -3.066  -2.694  0.00  0.00    +0.255 HD
ENDBRANCH  15  16
BRANCH  15  19
ATOM     19  N   LIG    1       -2.666  -1.546  -4.133  0.00  0.00    -0.290 N 
ATOM     20  H   LIG    1       -2.921  -1.688  -5.058  0.00  0.00    +0.255 HD
ATOM     21  H   LIG    1       -1.851  -1.064  -3.923  0.00  0.00    +0.255 HD
ENDBRANCH  15  19
ENDBRANCH   1  13
TORSDOF 5
