REMARK  Name = ZINC33422762
REMARK                            x       y       z     vdW  Elec       q    Type
REMARK                         _______ _______ _______ _____ _____    ______ ____
ROOT
ATOM      1  C   LIG    1        2.472   1.083  -0.016  0.00  0.00    +0.028 C 
ATOM      2  C   LIG    1        3.630   1.778  -0.125  0.00  0.00    +0.080 C 
ATOM      3  C   LIG    1        5.018   1.285  -0.256  0.00  0.00    +0.261 C 
ATOM      4  N   LIG    1        5.966   2.202  -0.349  0.00  0.00    -0.224 N 
ATOM      5  C   LIG    1        5.678   3.519  -0.316  0.00  0.00    +0.286 C 
ATOM      6  O   LIG    1        6.444   4.462  -0.385  0.00  0.00    -0.262 OA
ATOM      7  O   LIG    1        5.274   0.096  -0.280  0.00  0.00    -0.269 OA
ATOM      8  S   LIG    1        3.901   3.546  -0.144  0.00  0.00    -0.026 S 
ENDROOT
BRANCH   1  11
ATOM      9  C   LIG    1        0.065   3.757   1.054  0.00  0.00    +0.001 A 
ATOM     10  C   LIG    1        1.244   3.094   0.779  0.00  0.00    +0.008 A 
ATOM     11  C   LIG    1        1.216   1.788   0.278  0.00  0.00    -0.023 A 
ATOM     12  C   LIG    1       -0.011   1.156   0.056  0.00  0.00    +0.023 A 
ATOM     13  C   LIG    1       -1.195   1.835   0.331  0.00  0.00    +0.059 A 
ATOM     14  C   LIG    1       -1.150   3.138   0.837  0.00  0.00    +0.015 A 
BRANCH  13  15
ATOM     15  C   LIG    1       -2.497   1.177   0.095  0.00  0.00    +0.337 C 
ATOM     16  O   LIG    1       -2.535   0.044  -0.340  0.00  0.00    -0.245 OA
BRANCH  15  17
ATOM     17  O   LIG    1       -3.642   1.835   0.362  0.00  0.00    -0.477 OA
ATOM     18  H   LIG    1       -3.613   2.709   0.698  0.00  0.00    +0.295 HD
ENDBRANCH  15  17
ENDBRANCH  13  15
ENDBRANCH   1  11
BRANCH   4  19
ATOM     19  C   LIG    1        7.361   1.778  -0.486  0.00  0.00    +0.152 C 
BRANCH  19  20
ATOM     20  C   LIG    1        7.977   1.626   0.881  0.00  0.00    -0.029 A 
ATOM     21  C   LIG    1        8.609   2.701   1.477  0.00  0.00    +0.008 A 
ATOM     22  C   LIG    1        9.169   2.565   2.733  0.00  0.00    +0.038 A 
ATOM     23  C   LIG    1        9.106   1.348   3.390  0.00  0.00    +0.123 A 
ATOM     24  F   LIG    1        9.658   1.212   4.616  0.00  0.00    -0.205 F 
ATOM     25  C   LIG    1        8.477   0.270   2.790  0.00  0.00    +0.038 A 
ATOM     26  C   LIG    1        7.913   0.410   1.536  0.00  0.00    +0.008 A 
ENDBRANCH  19  20
ENDBRANCH   4  19
TORSDOF 5
