REMARK  Name = ZINC31719993
REMARK                            x       y       z     vdW  Elec       q    Type
REMARK                         _______ _______ _______ _____ _____    ______ ____
ROOT
ATOM      1  C   LIG    1        3.720  -2.152  -0.046  0.00  0.00    +0.065 C 
ATOM      2  C   LIG    1        4.903  -2.812  -0.164  0.00  0.00    +0.050 C 
ATOM      3  C   LIG    1        6.261  -2.230  -0.185  0.00  0.00    +0.008 A 
ATOM      4  C   LIG    1        6.739  -0.924  -0.100  0.00  0.00    +0.010 A 
ATOM      5  C   LIG    1        8.098  -0.689  -0.151  0.00  0.00    +0.001 A 
ATOM      6  C   LIG    1        8.981  -1.747  -0.288  0.00  0.00    +0.002 A 
ATOM      7  C   LIG    1        8.517  -3.045  -0.374  0.00  0.00    +0.024 A 
ATOM      8  C   LIG    1        7.152  -3.304  -0.323  0.00  0.00    +0.042 A 
ATOM      9  N   LIG    1        6.436  -4.495  -0.387  0.00  0.00    -0.281 N 
ATOM     10  H   LIG    1        6.841  -5.372  -0.482  0.00  0.00    +0.155 HD
ATOM     11  C   LIG    1        5.113  -4.279  -0.293  0.00  0.00    +0.249 C 
ATOM     12  O   LIG    1        4.245  -5.128  -0.313  0.00  0.00    -0.270 OA
ENDROOT
BRANCH   1  13
ATOM     13  C   LIG    1        3.626  -0.738  -0.431  0.00  0.00    +0.187 C 
ATOM     14  O   LIG    1        4.567  -0.192  -0.975  0.00  0.00    -0.287 OA
BRANCH  13  18
ATOM     15  C   LIG    1        0.069   1.447   0.354  0.00  0.00    +0.000 A 
ATOM     16  C   LIG    1        1.138   2.071  -0.265  0.00  0.00    +0.001 A 
ATOM     17  C   LIG    1        2.296   1.368  -0.523  0.00  0.00    +0.012 A 
ATOM     18  C   LIG    1        2.389   0.022  -0.158  0.00  0.00    +0.022 A 
ATOM     19  C   LIG    1        1.305  -0.601   0.467  0.00  0.00    +0.012 A 
ATOM     20  C   LIG    1        0.153   0.114   0.718  0.00  0.00    +0.001 A 
ENDBRANCH  13  18
ENDBRANCH   1  13
TORSDOF 2
