REMARK  Name = ZINC18189751
REMARK                            x       y       z     vdW  Elec       q    Type
REMARK                         _______ _______ _______ _____ _____    ______ ____
ROOT
ATOM      1  N   LIG    1        2.018  -6.353   0.246  0.00  0.00    -0.170 NA
ATOM      2  C   LIG    1        3.224  -6.729  -0.052  0.00  0.00    +0.075 C 
ATOM      3  C   LIG    1        4.273  -5.700  -0.386  0.00  0.00    +0.068 C 
ENDROOT
BRANCH   2   4
ATOM      4  C   LIG    1        3.567  -8.162  -0.064  0.00  0.00    +0.125 A 
ATOM      5  C   LIG    1        3.945  -8.823   1.138  0.00  0.00    +0.205 A 
ATOM      6  C   LIG    1        4.274 -10.258   1.046  0.00  0.00    +0.065 A 
ATOM      7  C   LIG    1        4.653 -10.984   2.175  0.00  0.00    +0.015 A 
ATOM      8  C   LIG    1        4.953 -12.323   2.054  0.00  0.00    +0.001 A 
ATOM      9  C   LIG    1        4.879 -12.947   0.817  0.00  0.00    +0.004 A 
ATOM     10  C   LIG    1        4.505 -12.240  -0.306  0.00  0.00    +0.047 A 
ATOM     11  C   LIG    1        4.198 -10.889  -0.205  0.00  0.00    +0.143 A 
ATOM     12  O   LIG    1        3.830 -10.185  -1.296  0.00  0.00    -0.424 OA
ATOM     13  O   LIG    1        3.994  -8.227   2.201  0.00  0.00    -0.286 OA
ATOM     14  C   LIG    1        3.521  -8.885  -1.245  0.00  0.00    +0.297 A 
BRANCH  14  15
ATOM     15  O   LIG    1        3.157  -8.255  -2.381  0.00  0.00    -0.479 OA
ATOM     16  H   LIG    1        2.938  -7.345  -2.362  0.00  0.00    +0.295 HD
ENDBRANCH  14  15
ENDBRANCH   2   4
BRANCH   1  17
ATOM     17  N   LIG    1        1.691  -4.991   0.257  0.00  0.00    -0.136 N 
ATOM     18  H   LIG    1        2.376  -4.319   0.039  0.00  0.00    +0.197 HD
BRANCH  17  19
ATOM     19  S   LIG    1        0.152  -4.511   0.637  0.00  0.00    +0.086 S 
ATOM     20  O   LIG    1       -0.690  -4.986  -0.404  0.00  0.00    -0.149 OA
ATOM     21  O   LIG    1       -0.055  -4.854   2.001  0.00  0.00    -0.149 OA
BRANCH  19  26
ATOM     22  C   LIG    1        0.032   1.514   0.338  0.00  0.00    +0.044 C 
ATOM     23  C   LIG    1        0.062   0.009   0.413  0.00  0.00    -0.050 A 
ATOM     24  C   LIG    1       -0.228  -0.745  -0.709  0.00  0.00    +0.005 A 
ATOM     25  C   LIG    1       -0.201  -2.125  -0.640  0.00  0.00    +0.029 A 
ATOM     26  C   LIG    1        0.118  -2.752   0.550  0.00  0.00    +0.110 A 
ATOM     27  C   LIG    1        0.410  -1.998   1.671  0.00  0.00    +0.029 A 
ATOM     28  C   LIG    1        0.386  -0.618   1.601  0.00  0.00    +0.005 A 
ENDBRANCH  19  26
ENDBRANCH  17  19
ENDBRANCH   1  17
TORSDOF 5
