REMARK  Name = ZINC13808139
REMARK                            x       y       z     vdW  Elec       q    Type
REMARK                         _______ _______ _______ _____ _____    ______ ____
ROOT
ATOM      1  N   LIG    1       -1.948  -1.147  -1.567  0.00  0.00    -0.108 N 
ATOM      2  H   LIG    1       -2.791  -0.799  -1.897  0.00  0.00    +0.211 HD
ENDROOT
BRANCH   1   3
ATOM      3  S   LIG    1       -1.512  -0.905   0.012  0.00  0.00    +0.095 S 
ATOM      4  O   LIG    1       -2.493  -0.046   0.577  0.00  0.00    -0.148 OA
ATOM      5  O   LIG    1       -1.218  -2.186   0.553  0.00  0.00    -0.148 OA
BRANCH   3  12
ATOM      6  C   LIG    1       -0.017   1.378   0.010  0.00  0.00    +0.030 A 
ATOM      7  C   LIG    1        1.171   2.086   0.002  0.00  0.00    +0.017 A 
ATOM      8  C   LIG    1        2.378   1.411  -0.013  0.00  0.00    +0.018 A 
ATOM      9 BR   LIG    1        4.003   2.378  -0.024  0.00  0.00    -0.050 Br
ATOM     10  C   LIG    1        2.396   0.027  -0.021  0.00  0.00    +0.017 A 
ATOM     11  C   LIG    1        1.208  -0.679  -0.013  0.00  0.00    +0.030 A 
ATOM     12  C   LIG    1        0.002  -0.004   0.002  0.00  0.00    +0.111 A 
ENDBRANCH   3  12
ENDBRANCH   1   3
BRANCH   1  13
ATOM     13  N   LIG    1       -1.098  -1.855  -2.428  0.00  0.00    -0.173 N 
ATOM     14  H   LIG    1       -0.255  -2.204  -2.099  0.00  0.00    +0.289 HD
ATOM     15  C   LIG    1       -1.440  -2.045  -3.667  0.00  0.00    +0.362 C 
BRANCH  15  16
ATOM     16  N   LIG    1       -0.599  -2.746  -4.519  0.00  0.00    -0.290 N 
ATOM     17  H   LIG    1       -0.854  -2.888  -5.444  0.00  0.00    +0.255 HD
ATOM     18  H   LIG    1        0.245  -3.095  -4.190  0.00  0.00    +0.255 HD
ENDBRANCH  15  16
BRANCH  15  19
ATOM     19  N   LIG    1       -2.647  -1.547  -4.138  0.00  0.00    -0.290 N 
ATOM     20  H   LIG    1       -2.902  -1.688  -5.063  0.00  0.00    +0.255 HD
ATOM     21  H   LIG    1       -3.235  -1.057  -3.542  0.00  0.00    +0.255 HD
ENDBRANCH  15  19
ENDBRANCH   1  13
TORSDOF 5
