REMARK  Name = ZINC27529770
REMARK                            x       y       z     vdW  Elec       q    Type
REMARK                         _______ _______ _______ _____ _____    ______ ____
ROOT
ATOM      1  C   LIG    1       -3.691   5.826  -0.038  0.00  0.00    +0.417 C 
ATOM      2  N   LIG    1       -3.775   7.167  -0.139  0.00  0.00    -0.204 N 
ATOM      3  C   LIG    1       -2.597   7.926  -0.141  0.00  0.00    +0.058 A 
ATOM      4  C   LIG    1       -1.525   7.562   0.653  0.00  0.00    +0.025 A 
ATOM      5  C   LIG    1       -0.366   8.316   0.641  0.00  0.00    +0.002 A 
ATOM      6  C   LIG    1       -0.266   9.435  -0.164  0.00  0.00    +0.001 A 
ATOM      7  C   LIG    1       -1.331   9.808  -0.968  0.00  0.00    +0.017 A 
ATOM      8  C   LIG    1       -2.491   9.057  -0.960  0.00  0.00    +0.035 A 
ATOM      9  S   LIG    1       -3.865   9.507  -1.974  0.00  0.00    -0.086 S 
ATOM     10  C   LIG    1       -5.235   8.876  -1.055  0.00  0.00    +0.035 A 
ATOM     11  C   LIG    1       -6.481   9.469  -1.147  0.00  0.00    +0.017 A 
ATOM     12  C   LIG    1       -7.540   8.956  -0.417  0.00  0.00    +0.001 A 
ATOM     13  C   LIG    1       -7.351   7.857   0.399  0.00  0.00    +0.002 A 
ATOM     14  C   LIG    1       -6.106   7.261   0.495  0.00  0.00    +0.025 A 
ATOM     15  C   LIG    1       -5.039   7.765  -0.231  0.00  0.00    +0.058 A 
ATOM     16  O   LIG    1       -4.702   5.152  -0.030  0.00  0.00    -0.225 OA
ENDROOT
BRANCH   1  17
ATOM     17  O   LIG    1       -2.485   5.232   0.052  0.00  0.00    -0.410 OA
BRANCH  17  26
ATOM     18  C   LIG    1       -2.611   1.776  -3.586  0.00  0.00    +0.001 A 
ATOM     19  C   LIG    1       -2.634   3.169  -3.585  0.00  0.00    +0.001 A 
ATOM     20  C   LIG    1       -2.587   3.871  -2.419  0.00  0.00    +0.012 A 
ATOM     21  C   LIG    1       -2.514   3.183  -1.197  0.00  0.00    +0.025 A 
ATOM     22  C   LIG    1       -2.495   1.766  -1.197  0.00  0.00    -0.014 A 
ATOM     23  C   LIG    1       -2.416   1.078   0.026  0.00  0.00    +0.009 A 
ATOM     24  C   LIG    1       -2.368   1.777   1.193  0.00  0.00    +0.004 A 
ATOM     25  C   LIG    1       -2.391   3.168   1.198  0.00  0.00    +0.047 A 
ATOM     26  C   LIG    1       -2.463   3.874   0.030  0.00  0.00    +0.141 A 
ATOM     27  C   LIG    1       -2.540   1.076  -2.421  0.00  0.00    +0.008 A 
ENDBRANCH  17  26
ENDBRANCH   1  17
TORSDOF 2
