REMARK  Name = ZINC00056509
REMARK                            x       y       z     vdW  Elec       q    Type
REMARK                         _______ _______ _______ _____ _____    ______ ____
ROOT
ATOM      1  N   LIG    1       -1.289  -2.070  -0.618  0.00  0.00    -0.109 NA
ATOM      2  C   LIG    1       -2.447  -2.664  -0.355  0.00  0.00    +0.201 A 
ATOM      3  N   LIG    1       -3.668  -2.067  -0.407  0.00  0.00    -0.326 N 
ATOM      4  H   LIG    1       -3.840  -1.142  -0.640  0.00  0.00    +0.169 HD
ATOM      5  C   LIG    1       -4.630  -3.015  -0.067  0.00  0.00    +0.066 A 
ATOM      6  C   LIG    1       -3.954  -4.212   0.194  0.00  0.00    +0.065 A 
ATOM      7  C   LIG    1       -4.665  -5.348   0.562  0.00  0.00    +0.028 A 
ATOM      8  C   LIG    1       -6.037  -5.298   0.671  0.00  0.00    +0.014 A 
ATOM      9  C   LIG    1       -6.718  -4.105   0.411  0.00  0.00    +0.025 A 
ATOM     10  C   LIG    1       -6.008  -2.962   0.042  0.00  0.00    +0.039 A 
ATOM     11  N   LIG    1       -2.601  -3.968   0.002  0.00  0.00    -0.326 N 
ATOM     12  H   LIG    1       -1.887  -4.616   0.107  0.00  0.00    +0.169 HD
ENDROOT
BRANCH   1  13
ATOM     13  C   LIG    1       -1.260  -0.769  -0.923  0.00  0.00    +0.427 C 
ATOM     14  O   LIG    1       -2.300  -0.147  -1.037  0.00  0.00    -0.224 OA
BRANCH  13  16
ATOM     15  C   LIG    1       -0.119   1.246  -1.429  0.00  0.00    +0.282 C 
ATOM     16  O   LIG    1       -0.076  -0.145  -1.105  0.00  0.00    -0.452 OA
ENDBRANCH  13  16
ENDBRANCH   1  13
BRANCH   9  17
ATOM     17  C   LIG    1       -8.190  -4.054   0.529  0.00  0.00    +0.200 C 
ATOM     18  O   LIG    1       -8.773  -2.990   0.426  0.00  0.00    -0.286 OA
BRANCH  17  19
ATOM     19  C   LIG    1       -8.948  -5.284   0.771  0.00  0.00    +0.059 A 
ATOM     20  C   LIG    1      -10.314  -5.446   0.964  0.00  0.00    +0.019 A 
ATOM     21  C   LIG    1      -10.737  -6.737   1.170  0.00  0.00    +0.008 A 
ATOM     22  C   LIG    1       -9.822  -7.739   1.171  0.00  0.00    +0.046 A 
ATOM     23  S   LIG    1       -8.360  -6.963   0.885  0.00  0.00    -0.093 S 
ENDBRANCH  17  19
ENDBRANCH   9  17
TORSDOF 4
