REMARK  Name = ZINC28564081
REMARK                            x       y       z     vdW  Elec       q    Type
REMARK                         _______ _______ _______ _____ _____    ______ ____
ROOT
ATOM      1  C   LIG    1       -0.018   1.461   0.010  0.00  0.00    +0.138 C 
ATOM      2  N   LIG    1        0.002  -0.004   0.002  0.00  0.00    -0.273 N 
ATOM      3  C   LIG    1       -1.147  -0.799   0.003  0.00  0.00    +0.041 A 
ATOM      4  C   LIG    1       -2.490  -0.445   0.011  0.00  0.00    +0.035 A 
ATOM      5  C   LIG    1       -3.467  -1.437   0.010  0.00  0.00    +0.022 A 
ATOM      6  C   LIG    1       -4.936  -1.427   0.016  0.00  0.00    +0.049 A 
ATOM      7  C   LIG    1       -5.318  -2.711   0.010  0.00  0.00    +0.196 A 
ATOM      8  O   LIG    1       -4.241  -3.516   0.001  0.00  0.00    -0.463 OA
ATOM      9  C   LIG    1       -3.102  -2.794   0.001  0.00  0.00    +0.135 A 
ATOM     10  C   LIG    1       -1.755  -3.134  -0.008  0.00  0.00    +0.053 A 
ATOM     11  C   LIG    1       -0.798  -2.148  -0.006  0.00  0.00    -0.002 A 
ATOM     12  C   LIG    1        0.714  -2.194  -0.014  0.00  0.00    +0.193 C 
ATOM     13  C   LIG    1        1.127  -0.738  -0.013  0.00  0.00    +0.236 C 
ATOM     14  O   LIG    1        2.263  -0.313  -0.022  0.00  0.00    -0.274 OA
ENDROOT
BRANCH  12  15
ATOM     15  C   LIG    1        1.214  -2.882  -1.258  0.00  0.00    +0.235 C 
ATOM     16  N   LIG    1        2.539  -3.028  -1.460  0.00  0.00    -0.262 N 
ATOM     17  H   LIG    1        3.170  -2.690  -0.805  0.00  0.00    +0.157 HD
ATOM     18  O   LIG    1        0.426  -3.305  -2.076  0.00  0.00    -0.274 OA
BRANCH  16  19
ATOM     19  C   LIG    1        3.001  -3.663  -2.608  0.00  0.00    +0.188 A 
ATOM     20  N   LIG    1        2.313  -4.180  -3.607  0.00  0.00    -0.126 NA
ATOM     21  N   LIG    1        2.879  -4.731  -4.593  0.00  0.00    -0.148 NA
ATOM     22  C   LIG    1        4.195  -4.793  -4.625  0.00  0.00    +0.183 A 
ATOM     23  S   LIG    1        4.588  -3.967  -3.089  0.00  0.00    -0.039 S 
ENDBRANCH  16  19
ENDBRANCH  12  15
TORSDOF 2
