REMARK  Name = ZINC14957904
REMARK                            x       y       z     vdW  Elec       q    Type
REMARK                         _______ _______ _______ _____ _____    ______ ____
ROOT
ATOM      1  C   LIG    1        2.624   1.250   0.217  0.00  0.00    +0.098 A 
ATOM      2  C   LIG    1        3.544   1.554  -0.818  0.00  0.00    +0.098 A 
ATOM      3  N   LIG    1        4.571   0.759  -1.052  0.00  0.00    -0.243 NA
ATOM      4  C   LIG    1        4.737  -0.346  -0.316  0.00  0.00    +0.090 A 
ATOM      5  C   LIG    1        5.820  -1.212  -0.551  0.00  0.00    +0.030 A 
ATOM      6  C   LIG    1        5.967  -2.330   0.211  0.00  0.00    +0.002 A 
ATOM      7  C   LIG    1        5.060  -2.632   1.225  0.00  0.00    +0.002 A 
ATOM      8  C   LIG    1        4.000  -1.817   1.481  0.00  0.00    +0.030 A 
ATOM      9  C   LIG    1        3.814  -0.653   0.716  0.00  0.00    +0.090 A 
ATOM     10  N   LIG    1        2.780   0.163   0.949  0.00  0.00    -0.243 NA
ENDROOT
BRANCH   1  14
ATOM     11  C   LIG    1       -0.661   3.844   0.954  0.00  0.00    -0.059 A 
ATOM     12  C   LIG    1        0.603   4.371   0.763  0.00  0.00    +0.003 A 
ATOM     13  C   LIG    1        1.673   3.535   0.518  0.00  0.00    +0.010 A 
ATOM     14  C   LIG    1        1.479   2.154   0.474  0.00  0.00    +0.002 A 
ATOM     15  C   LIG    1        0.203   1.628   0.673  0.00  0.00    +0.010 A 
ATOM     16  C   LIG    1       -0.860   2.475   0.912  0.00  0.00    +0.003 A 
BRANCH  11  18
ATOM     17  C   LIG    1       -1.332   6.021   1.932  0.00  0.00    -0.006 C 
ATOM     18  C   LIG    1       -1.826   4.763   1.215  0.00  0.00    -0.051 C 
ATOM     19  C   LIG    1       -2.475   5.155  -0.114  0.00  0.00    -0.006 C 
BRANCH  18  20
ATOM     20  N   LIG    1       -2.832   4.093   2.059  0.00  0.00    +0.384 N 
ATOM     21  H   LIG    1       -3.630   4.723   2.197  0.00  0.00    -0.089 HD
ATOM     22  H   LIG    1       -2.429   3.863   2.966  0.00  0.00    -0.089 HD
ATOM     23  H   LIG    1       -3.155   3.240   1.606  0.00  0.00    -0.089 HD
ENDBRANCH  18  20
ENDBRANCH  11  18
ENDBRANCH   1  14
BRANCH   2  24
ATOM     24  C   LIG    1        3.355   2.775  -1.636  0.00  0.00    +0.002 A 
ATOM     25  C   LIG    1        2.093   3.093  -2.137  0.00  0.00    +0.010 A 
ATOM     26  C   LIG    1        1.923   4.234  -2.894  0.00  0.00    +0.001 A 
ATOM     27  C   LIG    1        3.002   5.055  -3.166  0.00  0.00    +0.000 A 
ATOM     28  C   LIG    1        4.258   4.741  -2.677  0.00  0.00    +0.001 A 
ATOM     29  C   LIG    1        4.440   3.606  -1.914  0.00  0.00    +0.010 A 
ENDBRANCH   2  24
TORSDOF 4
