REMARK  Name = ZINC43203068
REMARK                            x       y       z     vdW  Elec       q    Type
REMARK                         _______ _______ _______ _____ _____    ______ ____
ROOT
ATOM      1  C   LIG    1        1.030   7.178   1.325  0.00  0.00    +0.403 C 
ATOM      2  N   LIG    1        0.079   8.019   0.912  0.00  0.00    +0.011 NA
ENDROOT
BRANCH   1   3
ATOM      3  N   LIG    1        1.781   7.489   2.375  0.00  0.00    -0.242 N 
ATOM      4  H   LIG    1        2.419   6.846   2.722  0.00  0.00    +0.265 HD
ATOM      5  C   LIG    1        1.657   8.700   2.959  0.00  0.00    +0.109 A 
ATOM      6  C   LIG    1        0.487   9.448   2.808  0.00  0.00    +0.043 A 
ATOM      7  C   LIG    1        0.371  10.686   3.410  0.00  0.00    +0.005 A 
ATOM      8  C   LIG    1        1.389  11.221   4.172  0.00  0.00    +0.026 A 
ATOM      9  C   LIG    1        2.578  10.528   4.362  0.00  0.00    +0.050 A 
ATOM     10  N   LIG    1        3.592  11.057   5.118  0.00  0.00    -0.361 N 
ATOM     11  H   LIG    1        3.484  11.947   5.525  0.00  0.00    +0.165 HD
ATOM     12  C   LIG    1        4.732  10.373   5.309  0.00  0.00    +0.083 A 
ATOM     13  C   LIG    1        4.929   9.135   4.745  0.00  0.00    +0.018 A 
ATOM     14  C   LIG    1        3.938   8.555   3.966  0.00  0.00    +0.015 A 
ATOM     15  C   LIG    1        2.742   9.254   3.769  0.00  0.00    +0.037 A 
ENDBRANCH   1   3
BRANCH   1  16
ATOM     16  N   LIG    1        1.231   5.985   0.662  0.00  0.00    -0.268 N 
ATOM     17  H   LIG    1        0.734   5.791  -0.148  0.00  0.00    +0.259 HD
BRANCH  16  18
ATOM     18  C   LIG    1        2.196   5.013   1.181  0.00  0.00    +0.172 C 
ATOM     19  C   LIG    1        1.514   4.123   2.223  0.00  0.00    +0.053 C 
BRANCH  18  23
ATOM     20  C   LIG    1        3.643   2.591  -2.027  0.00  0.00    +0.000 A 
ATOM     21  C   LIG    1        4.511   3.023  -1.041  0.00  0.00    +0.000 A 
ATOM     22  C   LIG    1        4.043   3.807  -0.004  0.00  0.00    +0.007 A 
ATOM     23  C   LIG    1        2.707   4.159   0.049  0.00  0.00    -0.011 A 
ATOM     24  C   LIG    1        1.839   3.728  -0.937  0.00  0.00    +0.007 A 
ATOM     25  C   LIG    1        2.308   2.947  -1.978  0.00  0.00    +0.000 A 
ENDBRANCH  18  23
ENDBRANCH  16  18
ENDBRANCH   1  16
BRANCH   2  26
ATOM     26  C   LIG    1       -0.769   7.650  -0.079  0.00  0.00    +0.295 C 
ATOM     27  N   LIG    1       -1.479   7.340  -0.909  0.00  0.00    -0.151 NA
ENDBRANCH   2  26
TORSDOF 5
