REMARK  Name = ZINC33961504
REMARK                            x       y       z     vdW  Elec       q    Type
REMARK                         _______ _______ _______ _____ _____    ______ ____
ROOT
ATOM      1  C   LIG    1       -0.225   1.246  -0.266  0.00  0.00    +0.007 C 
ATOM      2  C   LIG    1       -0.107  -0.273  -0.126  0.00  0.00    -0.014 C 
ATOM      3  C   LIG    1        0.706  -0.865  -1.303  0.00  0.00    +0.004 C 
ATOM      4  C   LIG    1        1.233  -2.199  -0.718  0.00  0.00    +0.006 C 
ATOM      5  C   LIG    1        1.570  -1.862   0.749  0.00  0.00    -0.035 C 
ATOM      6  C   LIG    1        0.715  -0.637   1.127  0.00  0.00    +0.009 C 
ENDROOT
BRANCH   5   7
ATOM      7  C   LIG    1        1.217  -3.045   1.653  0.00  0.00    -0.079 C 
BRANCH   7   8
ATOM      8  N   LIG    1        2.031  -4.209   1.278  0.00  0.00    +0.378 N 
ATOM      9  H   LIG    1        3.009  -3.962   1.315  0.00  0.00    -0.090 HD
ATOM     10  H   LIG    1        1.793  -4.497   0.341  0.00  0.00    -0.090 HD
ATOM     11  H   LIG    1        1.851  -4.966   1.919  0.00  0.00    -0.090 HD
ENDBRANCH   7   8
ENDBRANCH   5   7
BRANCH   5  12
ATOM     12  C   LIG    1        3.057  -1.527   0.880  0.00  0.00    +0.125 C 
BRANCH  12  13
ATOM     13  C   LIG    1        3.346  -1.069   2.287  0.00  0.00    +0.305 C 
ATOM     14  O   LIG    1        2.464  -1.091   3.128  0.00  0.00    -0.251 OA
BRANCH  13  15
ATOM     15  O   LIG    1        4.462  -0.676   2.583  0.00  0.00    -0.481 OA
ATOM     16  H   LIG    1        5.140  -0.660   1.936  0.00  0.00    +0.295 HD
ENDBRANCH  13  15
ENDBRANCH  12  13
ENDBRANCH   5  12
TORSDOF 5
