REMARK  Name = ZINC19361055
REMARK                            x       y       z     vdW  Elec       q    Type
REMARK                         _______ _______ _______ _____ _____    ______ ____
ROOT
ATOM      1  C   LIG    1        2.312  -3.959   1.561  0.00  0.00    -0.050 C 
ATOM      2  C   LIG    1        2.700  -3.586   2.994  0.00  0.00    +0.055 C 
ATOM      3  N   LIG    1        3.799  -2.611   2.963  0.00  0.00    -0.300 NA
ATOM      4  C   LIG    1        3.386  -1.371   2.290  0.00  0.00    +0.085 C 
ATOM      5  C   LIG    1        3.016  -1.682   0.837  0.00  0.00    +0.017 C 
ATOM      6  C   LIG    1        4.994  -3.181   2.326  0.00  0.00    +0.085 C 
ATOM      7  C   LIG    1        4.671  -3.546   0.872  0.00  0.00    +0.017 C 
ATOM      8  C   LIG    1        3.208  -3.186   0.585  0.00  0.00    -0.021 C 
ENDROOT
BRANCH   1   9
ATOM      9  N   LIG    1        0.906  -3.607   1.323  0.00  0.00    +0.385 N 
ATOM     10  H   LIG    1        0.318  -4.121   1.963  0.00  0.00    -0.085 HD
ATOM     11  H   LIG    1        0.778  -2.617   1.470  0.00  0.00    -0.085 HD
BRANCH   9  12
ATOM     12  C   LIG    1        0.542  -3.949  -0.058  0.00  0.00    -0.043 C 
BRANCH  12  18
ATOM     13  C   LIG    1       -1.251  -2.272  -0.571  0.00  0.00    +0.121 A 
ATOM     14  C   LIG    1       -2.579  -1.944  -0.799  0.00  0.00    +0.046 A 
ATOM     15  C   LIG    1       -3.550  -2.925  -0.753  0.00  0.00    +0.004 A 
ATOM     16  C   LIG    1       -3.199  -4.234  -0.479  0.00  0.00    +0.000 A 
ATOM     17  C   LIG    1       -1.876  -4.564  -0.250  0.00  0.00    +0.005 A 
ATOM     18  C   LIG    1       -0.901  -3.587  -0.301  0.00  0.00    -0.023 A 
BRANCH  13  20
ATOM     19  C   LIG    1       -0.727   0.024  -0.899  0.00  0.00    +0.277 C 
ATOM     20  O   LIG    1       -0.294  -1.308  -0.616  0.00  0.00    -0.495 OA
ENDBRANCH  13  20
ENDBRANCH  12  18
ENDBRANCH   9  12
ENDBRANCH   1   9
BRANCH   2  21
ATOM     21  C   LIG    1        1.493  -2.973   3.706  0.00  0.00    +0.064 C 
BRANCH  21  22
ATOM     22  C   LIG    1        1.919  -2.444   5.052  0.00  0.00    -0.039 A 
ATOM     23  C   LIG    1        1.649  -1.133   5.396  0.00  0.00    +0.004 A 
ATOM     24  C   LIG    1        2.040  -0.648   6.630  0.00  0.00    +0.000 A 
ATOM     25  C   LIG    1        2.699  -1.475   7.521  0.00  0.00    +0.000 A 
ATOM     26  C   LIG    1        2.967  -2.787   7.177  0.00  0.00    +0.000 A 
ATOM     27  C   LIG    1        2.573  -3.273   5.944  0.00  0.00    +0.004 A 
ENDBRANCH  21  22
BRANCH  21  28
ATOM     28  C   LIG    1        0.432  -4.026   3.893  0.00  0.00    -0.039 A 
ATOM     29  C   LIG    1        0.784  -5.294   4.318  0.00  0.00    +0.004 A 
ATOM     30  C   LIG    1       -0.190  -6.260   4.489  0.00  0.00    +0.000 A 
ATOM     31  C   LIG    1       -1.515  -5.959   4.236  0.00  0.00    +0.000 A 
ATOM     32  C   LIG    1       -1.867  -4.691   3.812  0.00  0.00    +0.000 A 
ATOM     33  C   LIG    1       -0.894  -3.724   3.645  0.00  0.00    +0.004 A 
ENDBRANCH  21  28
ENDBRANCH   2  21
TORSDOF 7
