REMARK  Name = ZINC26571939
REMARK                            x       y       z     vdW  Elec       q    Type
REMARK                         _______ _______ _______ _____ _____    ______ ____
ROOT
ATOM      1  C   LIG    1        4.881   1.336  -0.036  0.00  0.00    +0.064 A 
ATOM      2  C   LIG    1        4.768  -0.018  -0.043  0.00  0.00    +0.208 A 
ATOM      3  O   LIG    1        3.587  -0.640  -0.035  0.00  0.00    -0.458 OA
ATOM      4  C   LIG    1        2.407   0.012  -0.021  0.00  0.00    +0.183 A 
ATOM      5  C   LIG    1        2.373   1.417  -0.013  0.00  0.00    +0.068 A 
ATOM      6  C   LIG    1        1.153   2.094   0.002  0.00  0.00    +0.019 A 
ATOM      7  C   LIG    1       -0.017   1.387   0.010  0.00  0.00    +0.050 A 
ATOM      8  C   LIG    1        0.002  -0.004   0.002  0.00  0.00    +0.162 A 
ATOM      9  C   LIG    1        1.207  -0.694  -0.013  0.00  0.00    +0.202 A 
ATOM     10  C   LIG    1        3.653   2.148  -0.021  0.00  0.00    +0.200 A 
ATOM     11  O   LIG    1        3.693   3.367  -0.015  0.00  0.00    -0.286 OA
ENDROOT
BRANCH   1  18
ATOM     12  C   LIG    1        6.500   2.986  -0.970  0.00  0.00    +0.010 A 
ATOM     13  C   LIG    1        7.742   3.588  -0.972  0.00  0.00    +0.020 A 
ATOM     14  C   LIG    1        8.708   3.190  -0.064  0.00  0.00    +0.041 A 
ATOM     15 CL   LIG    1       10.270   3.946  -0.076  0.00  0.00    -0.084 Cl
ATOM     16  C   LIG    1        8.432   2.190   0.854  0.00  0.00    +0.020 A 
ATOM     17  C   LIG    1        7.192   1.585   0.867  0.00  0.00    +0.010 A 
ATOM     18  C   LIG    1        6.216   1.983  -0.045  0.00  0.00    -0.011 A 
ENDBRANCH   1  18
BRANCH   8  19
ATOM     19  O   LIG    1       -1.169  -0.693   0.009  0.00  0.00    -0.503 OA
ATOM     20  H   LIG    1       -1.159  -1.793   0.003  0.00  0.00    +0.292 HD
ENDBRANCH   8  19
BRANCH   9  21
ATOM     21  O   LIG    1        1.215  -2.054  -0.020  0.00  0.00    -0.501 OA
ATOM     22  H   LIG    1        0.265  -2.610  -0.014  0.00  0.00    +0.292 HD
ENDBRANCH   9  21
TORSDOF 3
