REMARK  Name = ZINC29046741
REMARK                            x       y       z     vdW  Elec       q    Type
REMARK                         _______ _______ _______ _____ _____    ______ ____
ROOT
ATOM      1  C   LIG    1        1.175   2.177   0.067  0.00  0.00    +0.136 A 
ATOM      2  C   LIG    1        1.157   3.543  -0.226  0.00  0.00    +0.113 A 
ATOM      3  C   LIG    1        2.359   4.186  -0.449  0.00  0.00    +0.130 A 
ATOM      4  N   LIG    1        3.486   3.493  -0.379  0.00  0.00    -0.222 NA
ATOM      5  C   LIG    1        3.474   2.198  -0.099  0.00  0.00    +0.221 A 
ATOM      6  N   LIG    1        2.343   1.546   0.126  0.00  0.00    -0.199 NA
ENDROOT
BRANCH   2   7
ATOM      7  C   LIG    1       -0.146   4.298  -0.297  0.00  0.00    +0.422 C 
ATOM      8  F   LIG    1       -0.799   4.218   0.937  0.00  0.00    -0.166 F 
ATOM      9  F   LIG    1       -0.956   3.739  -1.291  0.00  0.00    -0.166 F 
ATOM     10  F   LIG    1        0.109   5.639  -0.604  0.00  0.00    -0.166 F 
ENDBRANCH   2   7
BRANCH   1  11
ATOM     11  N   LIG    1       -0.006   1.492   0.297  0.00  0.00    -0.324 N 
ATOM     12  H   LIG    1       -0.969   2.023   0.249  0.00  0.00    +0.148 HD
BRANCH  11  13
ATOM     13  C   LIG    1        0.025   0.059   0.603  0.00  0.00    +0.140 C 
BRANCH  13  19
ATOM     14  C   LIG    1       -2.184  -0.729  -0.287  0.00  0.00    +0.055 A 
ATOM     15  C   LIG    1       -3.480  -1.191  -0.092  0.00  0.00    +0.025 A 
ATOM     16  C   LIG    1       -3.965  -1.363   1.189  0.00  0.00    +0.002 A 
ATOM     17  C   LIG    1       -3.162  -1.075   2.278  0.00  0.00    +0.000 A 
ATOM     18  C   LIG    1       -1.871  -0.620   2.088  0.00  0.00    +0.007 A 
ATOM     19  C   LIG    1       -1.381  -0.442   0.809  0.00  0.00    -0.008 A 
BRANCH  14  21
ATOM     20  C   LIG    1       -1.952   0.693  -2.304  0.00  0.00    +0.157 C 
ATOM     21  N   LIG    1       -1.690  -0.555  -1.582  0.00  0.00    -0.210 N 
BRANCH  21  22
ATOM     22  S   LIG    1       -0.808  -1.758  -2.301  0.00  0.00    +0.042 S 
ATOM     23  C   LIG    1       -2.034  -2.785  -3.158  0.00  0.00    +0.218 C 
ATOM     24  O   LIG    1       -0.233  -2.481  -1.221  0.00  0.00    -0.155 OA
ATOM     25  O   LIG    1        0.016  -1.089  -3.245  0.00  0.00    -0.155 OA
ENDBRANCH  21  22
ENDBRANCH  14  21
ENDBRANCH  13  19
ENDBRANCH  11  13
ENDBRANCH   1  11
BRANCH   5  26
ATOM     26  N   LIG    1        4.675   1.510  -0.035  0.00  0.00    -0.284 N 
ATOM     27  H   LIG    1        4.676   0.419   0.106  0.00  0.00    +0.155 HD
BRANCH  26  28
ATOM     28  C   LIG    1        5.886   2.203  -0.148  0.00  0.00    +0.034 A 
ATOM     29  C   LIG    1        6.945   1.646  -0.853  0.00  0.00    +0.025 A 
ATOM     30  C   LIG    1        8.138   2.328  -0.970  0.00  0.00    +0.025 A 
ATOM     31  C   LIG    1        8.292   3.578  -0.374  0.00  0.00    +0.037 A 
ATOM     32  C   LIG    1        7.229   4.125   0.333  0.00  0.00    -0.016 A 
ATOM     33  C   LIG    1        7.705   5.464   0.849  0.00  0.00    +0.133 C 
ATOM     34  C   LIG    1        9.128   5.570   0.343  0.00  0.00    +0.222 C 
ATOM     35  O   LIG    1        9.891   6.495   0.528  0.00  0.00    -0.275 OA
ATOM     36  N   LIG    1        9.386   4.448  -0.348  0.00  0.00    -0.285 N 
ATOM     37  H   LIG    1       10.320   4.172  -0.861  0.00  0.00    +0.155 HD
ATOM     38  C   LIG    1        6.035   3.450   0.448  0.00  0.00    +0.029 A 
ENDBRANCH  26  28
ENDBRANCH   5  26
TORSDOF 8
