REMARK  Name = ZINC45260367
REMARK                            x       y       z     vdW  Elec       q    Type
REMARK                         _______ _______ _______ _____ _____    ______ ____
ROOT
ATOM      1  C   LIG    1        2.070  -3.565   3.569  0.00  0.00    +0.096 C 
ENDROOT
BRANCH   1   4
ATOM      2  N   LIG    1        2.968  -2.064   1.819  0.00  0.00    -0.285 N 
ATOM      3  H   LIG    1        2.146  -1.553   1.877  0.00  0.00    +0.155 HD
ATOM      4  C   LIG    1        3.166  -3.118   2.636  0.00  0.00    +0.217 C 
ATOM      5  O   LIG    1        4.226  -3.707   2.621  0.00  0.00    -0.275 OA
BRANCH   2  11
ATOM      6  C   LIG    1        3.577  -1.201  -0.362  0.00  0.00    +0.003 A 
ATOM      7  C   LIG    1        4.562  -0.844  -1.280  0.00  0.00    +0.010 A 
ATOM      8  C   LIG    1        5.894  -0.997  -0.956  0.00  0.00    +0.001 A 
ATOM      9  C   LIG    1        6.258  -1.505   0.279  0.00  0.00    +0.002 A 
ATOM     10  C   LIG    1        5.291  -1.863   1.198  0.00  0.00    +0.024 A 
ATOM     11  C   LIG    1        3.948  -1.708   0.889  0.00  0.00    +0.041 A 
BRANCH   6  15
ATOM     12  C   LIG    1       -0.532  -0.735  -1.346  0.00  0.00    +0.000 A 
ATOM     13  C   LIG    1        0.345   0.317  -1.538  0.00  0.00    +0.001 A 
ATOM     14  C   LIG    1        1.681   0.171  -1.220  0.00  0.00    +0.008 A 
ATOM     15  C   LIG    1        2.144  -1.038  -0.705  0.00  0.00    -0.016 A 
ATOM     16  C   LIG    1        1.255  -2.095  -0.514  0.00  0.00    +0.008 A 
ATOM     17  C   LIG    1       -0.078  -1.938  -0.836  0.00  0.00    +0.001 A 
ENDBRANCH   6  15
ENDBRANCH   2  11
ENDBRANCH   1   4
BRANCH   1  18
ATOM     18  C   LIG    1        2.549  -4.771   4.379  0.00  0.00    +0.009 C 
BRANCH  18  19
ATOM     19  C   LIG    1        1.436  -5.225   5.325  0.00  0.00    +0.000 C 
BRANCH  19  20
ATOM     20  C   LIG    1        1.915  -6.431   6.135  0.00  0.00    +0.000 C 
BRANCH  20  21
ATOM     21  C   LIG    1        0.802  -6.885   7.082  0.00  0.00    +0.002 C 
BRANCH  21  22
ATOM     22  C   LIG    1        1.282  -8.091   7.892  0.00  0.00    +0.023 C 
BRANCH  22  23
ATOM     23  C   LIG    1        0.169  -8.544   8.839  0.00  0.00    +0.145 C 
BRANCH  23  24
ATOM     24  N   LIG    1        0.628  -9.700   9.614  0.00  0.00    -0.251 N 
ATOM     25  C   LIG    1        0.631  -9.795  10.963  0.00  0.00    +0.138 A 
ATOM     26  C   LIG    1        1.136 -11.029  11.252  0.00  0.00    +0.114 A 
ATOM     27  N   LIG    1        1.409 -11.610  10.070  0.00  0.00    -0.129 NA
ATOM     28  N   LIG    1        1.091 -10.796   9.126  0.00  0.00    -0.065 NA
BRANCH  26  29
ATOM     29  C   LIG    1        1.342 -11.614  12.601  0.00  0.00    +0.022 A 
ATOM     30  C   LIG    1        1.973 -12.852  12.750  0.00  0.00    +0.013 A 
ATOM     31  C   LIG    1        2.141 -13.354  14.028  0.00  0.00    +0.020 A 
ATOM     32  C   LIG    1        1.684 -12.621  15.109  0.00  0.00    +0.111 A 
ATOM     33  N   LIG    1        1.092 -11.455  14.937  0.00  0.00    -0.263 NA
ATOM     34  C   LIG    1        0.915 -10.935  13.740  0.00  0.00    +0.120 A 
ENDBRANCH  26  29
ENDBRANCH  23  24
ENDBRANCH  22  23
ENDBRANCH  21  22
ENDBRANCH  20  21
ENDBRANCH  19  20
ENDBRANCH  18  19
ENDBRANCH   1  18
TORSDOF 11
