REMARK  Name = ZINC26467647
REMARK                            x       y       z     vdW  Elec       q    Type
REMARK                         _______ _______ _______ _____ _____    ______ ____
ROOT
ATOM      1  C   LIG    1       -0.017   1.372   0.010  0.00  0.00    +0.146 A 
ATOM      2  C   LIG    1        0.002  -0.004   0.002  0.00  0.00    +0.048 A 
ATOM      3  C   LIG    1        1.207  -0.701  -0.013  0.00  0.00    +0.004 A 
ATOM      4  C   LIG    1        2.398  -0.040  -0.021  0.00  0.00    +0.010 A 
ATOM      5  C   LIG    1        2.419   1.364  -0.014  0.00  0.00    +0.004 A 
ATOM      6  C   LIG    1        3.636   2.076  -0.022  0.00  0.00    +0.013 A 
ATOM      7  C   LIG    1        3.588   3.437  -0.015  0.00  0.00    +0.044 A 
ATOM      8  C   LIG    1        2.348   4.092   0.001  0.00  0.00    +0.122 A 
ATOM      9  N   LIG    1        1.215   3.421   0.008  0.00  0.00    -0.228 NA
ATOM     10  C   LIG    1        1.200   2.084   0.002  0.00  0.00    +0.115 A 
ENDROOT
BRANCH   8  11
ATOM     11  N   LIG    1        2.314   5.480   0.008  0.00  0.00    -0.319 N 
ATOM     12  C   LIG    1        3.053   6.031  -1.136  0.00  0.00    +0.087 C 
ATOM     13  C   LIG    1        3.060   7.559  -1.047  0.00  0.00    -0.063 C 
ATOM     14  N   LIG    1        1.676   8.052  -1.032  0.00  0.00    +0.381 N 
ATOM     15  H   LIG    1        1.168   7.750  -1.960  0.00  0.00    -0.086 HD
ATOM     16  H   LIG    1        1.678   9.149  -0.956  0.00  0.00    -0.086 HD
ATOM     17  C   LIG    1        0.936   7.501   0.113  0.00  0.00    -0.063 C 
ATOM     18  C   LIG    1        0.930   5.973   0.024  0.00  0.00    +0.087 C 
ENDBRANCH   8  11
BRANCH   1  20
ATOM     19  C   LIG    1       -2.391   1.250   0.020  0.00  0.00    +0.277 C 
ATOM     20  O   LIG    1       -1.200   2.040   0.019  0.00  0.00    -0.493 OA
ENDBRANCH   1  20
TORSDOF 2
