REMARK  Name = ZINC53151246
REMARK                            x       y       z     vdW  Elec       q    Type
REMARK                         _______ _______ _______ _____ _____    ______ ____
ROOT
ATOM      1  N   LIG    1        0.097  -2.777  -0.113  0.00  0.00    -0.325 N 
ATOM      2  C   LIG    1       -1.306  -3.214  -0.188  0.00  0.00    +0.120 C 
ATOM      3  C   LIG    1       -2.001  -2.847   1.127  0.00  0.00    +0.103 C 
ATOM      4  N   LIG    1       -1.237  -3.402   2.252  0.00  0.00    -0.295 NA
ATOM      5  C   LIG    1        0.108  -2.815   2.324  0.00  0.00    +0.103 C 
ATOM      6  C   LIG    1        0.891  -3.186   1.055  0.00  0.00    +0.120 C 
ENDROOT
BRANCH   1  12
ATOM      7  C   LIG    1        0.606  -0.608  -1.057  0.00  0.00    +0.141 A 
ATOM      8  C   LIG    1        1.173   0.158  -2.062  0.00  0.00    +0.047 A 
ATOM      9  C   LIG    1        1.786  -0.457  -3.138  0.00  0.00    +0.004 A 
ATOM     10  C   LIG    1        1.837  -1.836  -3.214  0.00  0.00    +0.002 A 
ATOM     11  C   LIG    1        1.274  -2.608  -2.214  0.00  0.00    +0.027 A 
ATOM     12  C   LIG    1        0.662  -1.998  -1.129  0.00  0.00    +0.072 A 
BRANCH   7  14
ATOM     13  C   LIG    1       -0.017   1.425   0.010  0.00  0.00    +0.277 C 
ATOM     14  O   LIG    1        0.002  -0.004   0.002  0.00  0.00    -0.493 OA
ENDBRANCH   7  14
ENDBRANCH   1  12
BRANCH   4  15
ATOM     15  C   LIG    1       -1.959  -3.220   3.519  0.00  0.00    +0.122 C 
BRANCH  15  16
ATOM     16  C   LIG    1       -1.273  -4.009   4.605  0.00  0.00    +0.004 A 
ATOM     17  C   LIG    1       -1.543  -5.337   4.953  0.00  0.00    +0.139 A 
ATOM     18  N   LIG    1       -0.748  -5.672   5.938  0.00  0.00    -0.174 NA
ATOM     19  N   LIG    1        0.053  -4.566   6.249  0.00  0.00    -0.240 N 
ATOM     20  C   LIG    1       -0.285  -3.559   5.412  0.00  0.00    +0.119 A 
BRANCH  19  21
ATOM     21  C   LIG    1        1.036  -4.514   7.247  0.00  0.00    +0.065 A 
ATOM     22  C   LIG    1        1.756  -3.346   7.454  0.00  0.00    +0.028 A 
ATOM     23  C   LIG    1        2.723  -3.297   8.439  0.00  0.00    +0.002 A 
ATOM     24  C   LIG    1        2.974  -4.411   9.219  0.00  0.00    +0.000 A 
ATOM     25  C   LIG    1        2.258  -5.577   9.016  0.00  0.00    +0.002 A 
ATOM     26  C   LIG    1        1.286  -5.629   8.036  0.00  0.00    +0.028 A 
ENDBRANCH  19  21
ENDBRANCH  15  16
ENDBRANCH   4  15
TORSDOF 5
