REMARK  Name = ZINC14806781
REMARK                            x       y       z     vdW  Elec       q    Type
REMARK                         _______ _______ _______ _____ _____    ______ ____
ROOT
ATOM      1  N   LIG    1        2.125  -0.091  -1.209  0.00  0.00    -0.276 N 
ATOM      2  C   LIG    1        2.511   1.129  -1.742  0.00  0.00    +0.168 A 
ATOM      3  C   LIG    1        3.851   1.491  -1.684  0.00  0.00    +0.149 A 
ATOM      4  N   LIG    1        3.940   2.733  -2.280  0.00  0.00    -0.334 N 
ATOM      5  C   LIG    1        2.696   3.075  -2.667  0.00  0.00    +0.136 A 
ATOM      6  H   LIG    1        4.746   3.260  -2.398  0.00  0.00    +0.167 HD
ATOM      7  C   LIG    1        4.777   0.609  -1.087  0.00  0.00    +0.282 A 
ATOM      8  N   LIG    1        4.340  -0.565  -0.587  0.00  0.00    -0.262 N 
ATOM      9  C   LIG    1        5.296  -1.485   0.034  0.00  0.00    +0.157 C 
ATOM     10  O   LIG    1        5.957   0.905  -1.025  0.00  0.00    -0.265 OA
ATOM     11  N   LIG    1        1.857   2.124  -2.346  0.00  0.00    -0.212 NA
ATOM     12  C   LIG    1        3.040  -0.901  -0.644  0.00  0.00    +0.333 A 
ATOM     13  O   LIG    1        2.682  -1.965  -0.177  0.00  0.00    -0.246 OA
ENDROOT
BRANCH   1  14
ATOM     14  C   LIG    1        0.718  -0.497  -1.257  0.00  0.00    +0.131 C 
BRANCH  14  16
ATOM     15  C   LIG    1       -0.019   1.526   0.010  0.00  0.00    +0.009 C 
ATOM     16  C   LIG    1        0.002  -0.004   0.002  0.00  0.00    +0.003 C 
ATOM     17  C   LIG    1       -1.433  -0.534   0.013  0.00  0.00    +0.009 C 
ENDBRANCH  14  16
ENDBRANCH   1  14
BRANCH   5  18
ATOM     18  C   LIG    1        2.326   4.360  -3.363  0.00  0.00    +0.233 C 
BRANCH  18  19
ATOM     19  O   LIG    1        3.498   5.156  -3.548  0.00  0.00    -0.375 OA
ATOM     20  C   LIG    1        3.256   6.403  -4.203  0.00  0.00    +0.194 C 
ENDBRANCH  18  19
ENDBRANCH   5  18
TORSDOF 4
