REMARK  Name = ZINC45358629
REMARK                            x       y       z     vdW  Elec       q    Type
REMARK                         _______ _______ _______ _____ _____    ______ ____
ROOT
ATOM      1  C   LIG    1        4.030   2.447   1.443  0.00  0.00    -0.064 C 
ATOM      2  C   LIG    1        2.921   3.287   2.080  0.00  0.00    +0.006 C 
ATOM      3  C   LIG    1        2.786   4.609   1.318  0.00  0.00    +0.105 C 
ATOM      4  N   LIG    1        4.098   5.270   1.280  0.00  0.00    -0.315 N 
ATOM      5  C   LIG    1        5.253   4.519   0.769  0.00  0.00    +0.105 C 
ATOM      6  C   LIG    1        5.361   3.198   1.538  0.00  0.00    +0.006 C 
ENDROOT
BRANCH   4   7
ATOM      7  C   LIG    1        4.242   6.574   1.716  0.00  0.00    +0.134 A 
ATOM      8  C   LIG    1        4.083   7.651   0.830  0.00  0.00    +0.059 A 
ATOM      9  C   LIG    1        3.770   7.785  -0.592  0.00  0.00    +0.032 A 
ATOM     10  C   LIG    1        3.756   9.100  -0.864  0.00  0.00    +0.085 A 
ATOM     11  N   LIG    1        4.036   9.813   0.273  0.00  0.00    -0.346 N 
ATOM     12  H   LIG    1        4.082  10.780   0.326  0.00  0.00    +0.167 HD
ATOM     13  C   LIG    1        4.240   8.960   1.322  0.00  0.00    +0.143 A 
ATOM     14  N   LIG    1        4.535   9.124   2.611  0.00  0.00    -0.218 NA
ATOM     15  C   LIG    1        4.675   8.085   3.406  0.00  0.00    +0.225 A 
ATOM     16  N   LIG    1        4.530   6.840   2.986  0.00  0.00    -0.220 NA
ENDBRANCH   4   7
BRANCH   1  17
ATOM     17  N   LIG    1        4.141   1.165   2.151  0.00  0.00    +0.382 N 
ATOM     18  H   LIG    1        3.264   0.669   2.088  0.00  0.00    -0.089 HD
ATOM     19  H   LIG    1        4.363   1.334   3.121  0.00  0.00    -0.089 HD
ATOM     20  H   LIG    1        4.872   0.610   1.731  0.00  0.00    -0.089 HD
ENDBRANCH   1  17
BRANCH   1  21
ATOM     21  C   LIG    1        3.694   2.190  -0.027  0.00  0.00    +0.022 C 
BRANCH  21  24
ATOM     22  C   LIG    1       -0.005   1.479  -0.299  0.00  0.00    +0.004 A 
ATOM     23  C   LIG    1        1.198   2.155  -0.213  0.00  0.00    +0.004 A 
ATOM     24  C   LIG    1        2.385   1.450  -0.121  0.00  0.00    -0.045 A 
ATOM     25  C   LIG    1        2.370   0.069  -0.116  0.00  0.00    +0.049 A 
ATOM     26  C   LIG    1        1.164  -0.612  -0.202  0.00  0.00    +0.130 A 
ATOM     27  C   LIG    1       -0.025   0.098  -0.294  0.00  0.00    +0.046 A 
BRANCH  26  28
ATOM     28  O   LIG    1        1.147  -1.971  -0.197  0.00  0.00    -0.406 OA
BRANCH  28  29
ATOM     29  C   LIG    1       -0.130  -2.604  -0.289  0.00  0.00    +0.575 C 
ATOM     30  F   LIG    1       -0.923  -2.214   0.796  0.00  0.00    -0.133 F 
ATOM     31  F   LIG    1        0.035  -3.993  -0.271  0.00  0.00    -0.133 F 
ATOM     32  F   LIG    1       -0.754  -2.224  -1.483  0.00  0.00    -0.133 F 
ENDBRANCH  28  29
ENDBRANCH  26  28
ENDBRANCH  21  24
ENDBRANCH   1  21
TORSDOF 6
