REMARK  Name = ZINC19908248
REMARK                            x       y       z     vdW  Elec       q    Type
REMARK                         _______ _______ _______ _____ _____    ______ ____
ROOT
ATOM      1  N   LIG    1       -1.136   5.818   0.932  0.00  0.00    +0.386 N 
ATOM      2  H   LIG    1       -1.216   5.134   1.790  0.00  0.00    -0.085 HD
ATOM      3  H   LIG    1       -2.094   5.842   0.391  0.00  0.00    -0.085 HD
ENDROOT
BRANCH   1   5
ATOM      4  C   LIG    1       -0.348   5.863  -1.386  0.00  0.00    -0.009 C 
ATOM      5  C   LIG    1       -0.076   5.351   0.029  0.00  0.00    -0.044 C 
BRANCH   5   6
ATOM      6  C   LIG    1       -0.051   3.844   0.022  0.00  0.00    -0.058 A 
ATOM      7  C   LIG    1       -1.237   3.133   0.030  0.00  0.00    +0.002 A 
ATOM      8  C   LIG    1       -1.218   1.751   0.017  0.00  0.00    +0.004 A 
ATOM      9  C   LIG    1       -0.013   1.076   0.008  0.00  0.00    +0.045 A 
ATOM     10  C   LIG    1        1.179   1.786   0.000  0.00  0.00    +0.120 A 
ATOM     11  C   LIG    1        1.157   3.174   0.008  0.00  0.00    +0.047 A 
BRANCH  10  12
ATOM     12  O   LIG    1        2.366   1.125  -0.015  0.00  0.00    -0.495 OA
ATOM     13  C   LIG    1        2.312  -0.303  -0.022  0.00  0.00    +0.277 C 
ENDBRANCH  10  12
ENDBRANCH   5   6
ENDBRANCH   1   5
BRANCH   1  14
ATOM     14  C   LIG    1       -0.844   7.168   1.432  0.00  0.00    -0.044 C 
BRANCH  14  15
ATOM     15  C   LIG    1       -1.951   7.614   2.353  0.00  0.00    -0.046 A 
ATOM     16  C   LIG    1       -2.934   8.468   1.889  0.00  0.00    +0.003 A 
ATOM     17  C   LIG    1       -3.952   8.873   2.732  0.00  0.00    +0.000 A 
ATOM     18  C   LIG    1       -3.982   8.431   4.042  0.00  0.00    +0.001 A 
ATOM     19  C   LIG    1       -2.998   7.581   4.508  0.00  0.00    +0.020 A 
ATOM     20  C   LIG    1       -1.981   7.172   3.663  0.00  0.00    +0.042 A 
ATOM     21 CL   LIG    1       -0.743   6.104   4.248  0.00  0.00    -0.083 Cl
ENDBRANCH  14  15
ENDBRANCH   1  14
TORSDOF 5
