REMARK  Name = ZINC00056439
REMARK                            x       y       z     vdW  Elec       q    Type
REMARK                         _______ _______ _______ _____ _____    ______ ____
ROOT
ATOM      1  C   LIG    1        4.894   4.067  -0.136  0.00  0.00    +0.001 A 
ATOM      2  C   LIG    1        4.990   5.446  -0.075  0.00  0.00    +0.001 A 
ATOM      3  C   LIG    1        3.850   6.224   0.003  0.00  0.00    +0.016 A 
ATOM      4  C   LIG    1        2.595   5.621   0.020  0.00  0.00    +0.070 A 
ATOM      5  C   LIG    1        2.497   4.218  -0.042  0.00  0.00    +0.036 A 
ATOM      6  C   LIG    1        3.657   3.450  -0.115  0.00  0.00    +0.012 A 
ENDROOT
BRANCH   4   7
ATOM      7  C   LIG    1        1.373   6.449   0.103  0.00  0.00    +0.337 C 
ATOM      8  O   LIG    1        0.287   5.919   0.223  0.00  0.00    -0.245 OA
BRANCH   7   9
ATOM      9  O   LIG    1        1.464   7.792   0.045  0.00  0.00    -0.477 OA
ATOM     10  H   LIG    1        2.302   8.201  -0.047  0.00  0.00    +0.295 HD
ENDBRANCH   7   9
ENDBRANCH   4   7
BRANCH   5  11
ATOM     11  C   LIG    1        1.171   3.563  -0.024  0.00  0.00    +0.194 C 
ATOM     12  O   LIG    1        0.771   3.030   0.992  0.00  0.00    -0.287 OA
BRANCH  11  13
ATOM     13  C   LIG    1        0.335   3.558  -1.240  0.00  0.00    +0.022 A 
ATOM     14  C   LIG    1       -0.875   2.857  -1.256  0.00  0.00    +0.014 A 
ATOM     15  C   LIG    1       -1.652   2.856  -2.394  0.00  0.00    +0.039 A 
ATOM     16  C   LIG    1       -1.237   3.549  -3.521  0.00  0.00    +0.123 A 
ATOM     17  F   LIG    1       -2.002   3.543  -4.634  0.00  0.00    -0.205 F 
ATOM     18  C   LIG    1       -0.038   4.246  -3.511  0.00  0.00    +0.039 A 
ATOM     19  C   LIG    1        0.748   4.255  -2.379  0.00  0.00    +0.014 A 
ENDBRANCH  11  13
ENDBRANCH   5  11
TORSDOF 4
