REMARK  Name = ZINC23282651
REMARK                            x       y       z     vdW  Elec       q    Type
REMARK                         _______ _______ _______ _____ _____    ______ ____
ROOT
ATOM      1  N   LIG    1       -0.700   1.559   1.216  0.00  0.00    +0.383 N 
ATOM      2  H   LIG    1       -0.760   2.656   1.159  0.00  0.00    -0.081 HD
ATOM      3  C   LIG    1       -0.013   1.086   0.008  0.00  0.00    -0.075 C 
ATOM      4  C   LIG    1       -0.752   1.593  -1.232  0.00  0.00    +0.021 C 
ATOM      5  C   LIG    1       -2.194   1.077  -1.207  0.00  0.00    +0.088 C 
ATOM      6  C   LIG    1       -2.872   1.544   0.085  0.00  0.00    +0.021 C 
ATOM      7  C   LIG    1       -2.071   1.038   1.287  0.00  0.00    -0.075 C 
ENDROOT
BRANCH   5   8
ATOM      8  C   LIG    1       -2.944   1.621  -2.395  0.00  0.00    -0.016 A 
ATOM      9  C   LIG    1       -2.604   2.852  -2.923  0.00  0.00    +0.007 A 
ATOM     10  C   LIG    1       -3.289   3.349  -4.016  0.00  0.00    +0.015 A 
ATOM     11  C   LIG    1       -4.321   2.618  -4.575  0.00  0.00    +0.018 A 
ATOM     12 BR   LIG    1       -5.263   3.300  -6.067  0.00  0.00    -0.050 Br
ATOM     13  C   LIG    1       -4.665   1.388  -4.044  0.00  0.00    +0.015 A 
ATOM     14  C   LIG    1       -3.976   0.890  -2.954  0.00  0.00    +0.007 A 
ENDBRANCH   5   8
BRANCH   5  15
ATOM     15  O   LIG    1       -2.192  -0.351  -1.256  0.00  0.00    -0.384 OA
ATOM     16  H   LIG    1       -3.143  -0.903  -1.246  0.00  0.00    +0.211 HD
ENDBRANCH   5  15
BRANCH   1  17
ATOM     17  C   LIG    1        0.059   1.209   2.425  0.00  0.00    -0.041 C 
BRANCH  17  23
ATOM     18  C   LIG    1       -3.668   0.338   5.131  0.00  0.00    +0.001 A 
ATOM     19  C   LIG    1       -3.839   1.281   6.136  0.00  0.00    +0.002 A 
ATOM     20  C   LIG    1       -2.964   2.337   6.264  0.00  0.00    +0.026 A 
ATOM     21  C   LIG    1       -1.898   2.463   5.379  0.00  0.00    +0.047 A 
ATOM     22  C   LIG    1       -1.729   1.505   4.363  0.00  0.00    +0.001 A 
ATOM     23  C   LIG    1       -0.538   1.914   3.615  0.00  0.00    -0.039 A 
ATOM     24  C   LIG    1       -0.076   3.033   4.195  0.00  0.00    +0.085 A 
ATOM     25  N   LIG    1       -0.879   3.379   5.247  0.00  0.00    -0.360 N 
ATOM     26  H   LIG    1       -0.811   4.230   5.941  0.00  0.00    +0.165 HD
ATOM     27  C   LIG    1       -2.628   0.443   4.251  0.00  0.00    +0.010 A 
ENDBRANCH  17  23
ENDBRANCH   1  17
TORSDOF 4
