REMARK  Name = ZINC17782150
REMARK                            x       y       z     vdW  Elec       q    Type
REMARK                         _______ _______ _______ _____ _____    ______ ____
ROOT
ATOM      1  C   LIG    1        0.030  -2.658  -0.110  0.00  0.00    +0.164 A 
ATOM      2  C   LIG    1        0.672  -3.249   0.992  0.00  0.00    +0.139 A 
ATOM      3  N   LIG    1        1.800  -3.795   0.554  0.00  0.00    -0.284 N 
ATOM      4  N   LIG    1        1.908  -3.569  -0.822  0.00  0.00    -0.284 N 
ATOM      5  H   LIG    1        2.640  -3.865  -1.386  0.00  0.00    +0.188 HD
ATOM      6  H   LIG    1        2.444  -4.272   1.100  0.00  0.00    +0.188 HD
ATOM      7  C   LIG    1        0.845  -2.890  -1.232  0.00  0.00    +0.139 A 
ENDROOT
BRANCH   2   8
ATOM      8  N   LIG    1        0.211  -3.260   2.300  0.00  0.00    -0.342 N 
ATOM      9  H   LIG    1        0.691  -3.759   2.979  0.00  0.00    +0.144 HD
ATOM     10  H   LIG    1       -0.593  -2.770   2.535  0.00  0.00    +0.144 HD
ENDBRANCH   2   8
BRANCH   7  11
ATOM     11  N   LIG    1        0.585  -2.481  -2.532  0.00  0.00    -0.342 N 
ATOM     12  H   LIG    1        1.212  -2.691  -3.241  0.00  0.00    +0.144 HD
ATOM     13  H   LIG    1       -0.224  -1.984  -2.731  0.00  0.00    +0.144 HD
ENDBRANCH   7  11
BRANCH   1  15
ATOM     14  N   LIG    1       -1.236  -0.806  -0.595  0.00  0.00    -0.149 NA
ATOM     15  N   LIG    1       -1.156  -1.993  -0.095  0.00  0.00    -0.142 NA
BRANCH  14  21
ATOM     16  C   LIG    1       -0.067   0.151  -2.454  0.00  0.00    +0.033 A 
ATOM     17  C   LIG    1        1.060   0.761  -2.962  0.00  0.00    +0.047 A 
ATOM     18  C   LIG    1        2.141   1.026  -2.132  0.00  0.00    +0.117 A 
ATOM     19  C   LIG    1        2.094   0.678  -0.788  0.00  0.00    +0.047 A 
ATOM     20  C   LIG    1        0.971   0.068  -0.272  0.00  0.00    +0.033 A 
ATOM     21  C   LIG    1       -0.120  -0.201  -1.103  0.00  0.00    +0.086 A 
BRANCH  18  22
ATOM     22  O   LIG    1        3.250   1.628  -2.637  0.00  0.00    -0.507 OA
ATOM     23  H   LIG    1        3.229   2.594  -2.591  0.00  0.00    +0.292 HD
ENDBRANCH  18  22
ENDBRANCH  14  21
ENDBRANCH   1  15
TORSDOF 5
