REMARK  Name = ZINC28863446
REMARK                            x       y       z     vdW  Elec       q    Type
REMARK                         _______ _______ _______ _____ _____    ______ ____
ROOT
ATOM      1  C   LIG    1        0.002  -0.004   0.009  0.00  0.00    +0.105 C 
ENDROOT
BRANCH   1   4
ATOM      2  N   LIG    1       -1.195   2.161   0.021  0.00  0.00    -0.285 N 
ATOM      3  H   LIG    1       -2.139   1.601  -0.058  0.00  0.00    +0.155 HD
ATOM      4  C   LIG    1       -0.019   1.503   0.008  0.00  0.00    +0.218 C 
ATOM      5  O   LIG    1        1.023   2.123  -0.008  0.00  0.00    -0.275 OA
BRANCH   2   9
ATOM      6  C   LIG    1       -1.254   6.317   0.357  0.00  0.00    +0.001 A 
ATOM      7  C   LIG    1       -0.178   5.591   0.842  0.00  0.00    +0.002 A 
ATOM      8  C   LIG    1       -0.158   4.215   0.737  0.00  0.00    +0.024 A 
ATOM      9  C   LIG    1       -1.216   3.549   0.133  0.00  0.00    +0.047 A 
ATOM     10  C   LIG    1       -2.308   4.280  -0.359  0.00  0.00    +0.080 A 
ATOM     11  C   LIG    1       -2.315   5.672  -0.240  0.00  0.00    +0.017 A 
BRANCH  10  12
ATOM     12  C   LIG    1       -3.439   3.584  -0.996  0.00  0.00    +0.339 C 
ATOM     13  O   LIG    1       -3.472   2.369  -1.017  0.00  0.00    -0.245 OA
BRANCH  12  14
ATOM     14  O   LIG    1       -4.438   4.294  -1.556  0.00  0.00    -0.477 OA
ATOM     15  H   LIG    1       -4.413   5.231  -1.540  0.00  0.00    +0.295 HD
ENDBRANCH  12  14
ENDBRANCH  10  12
ENDBRANCH   2   9
ENDBRANCH   1   4
BRANCH   1  16
ATOM     16  C   LIG    1        1.451  -0.494  -0.013  0.00  0.00    +0.108 C 
BRANCH  16  17
ATOM     17  C   LIG    1        1.471  -2.001  -0.012  0.00  0.00    +0.228 A 
ATOM     18  N   LIG    1        1.466  -2.780  -1.066  0.00  0.00    -0.191 NA
ATOM     19  C   LIG    1        1.490  -4.043  -0.584  0.00  0.00    +0.202 A 
ATOM     20  N   LIG    1        1.509  -3.958   0.721  0.00  0.00    -0.056 NA
ATOM     21  O   LIG    1        1.505  -2.794   1.063  0.00  0.00    -0.338 OA
BRANCH  19  22
ATOM     22  C   LIG    1        1.494  -5.292  -1.385  0.00  0.00    +0.023 A 
ATOM     23  C   LIG    1        1.466  -5.228  -2.777  0.00  0.00    +0.015 A 
ATOM     24  C   LIG    1        1.473  -6.390  -3.519  0.00  0.00    +0.046 A 
ATOM     25  C   LIG    1        1.501  -7.623  -2.881  0.00  0.00    +0.117 A 
ATOM     26  C   LIG    1        1.524  -7.689  -1.494  0.00  0.00    +0.046 A 
ATOM     27  C   LIG    1        1.521  -6.531  -0.747  0.00  0.00    +0.015 A 
BRANCH  25  28
ATOM     28  O   LIG    1        1.504  -8.766  -3.615  0.00  0.00    -0.507 OA
ATOM     29  H   LIG    1        1.525  -9.743  -3.111  0.00  0.00    +0.292 HD
ENDBRANCH  25  28
ENDBRANCH  19  22
ENDBRANCH  16  17
ENDBRANCH   1  16
TORSDOF 8
