REMARK  Name = ZINC45288748
REMARK                            x       y       z     vdW  Elec       q    Type
REMARK                         _______ _______ _______ _____ _____    ______ ____
ROOT
ATOM      1  C   LIG    1        1.250  -2.161  -0.023  0.00  0.00    +0.247 C 
ATOM      2  N   LIG    1        0.101  -2.857   0.086  0.00  0.00    -0.295 N 
ATOM      3  C   LIG    1       -1.195  -2.164   0.099  0.00  0.00    +0.127 C 
ATOM      4  C   LIG    1       -2.075  -2.750  -1.013  0.00  0.00    +0.126 C 
ATOM      5  N   LIG    1       -2.054  -4.215  -0.905  0.00  0.00    -0.307 N 
ATOM      6  C   LIG    1       -0.758  -4.908  -0.918  0.00  0.00    +0.126 C 
ATOM      7  C   LIG    1        0.121  -4.323   0.188  0.00  0.00    +0.127 C 
ATOM      8  O   LIG    1        2.308  -2.748  -0.137  0.00  0.00    -0.270 OA
ENDROOT
BRANCH   1  13
ATOM      9  C   LIG    1        0.595   1.373   1.067  0.00  0.00    +0.001 A 
ATOM     10  C   LIG    1        1.172   2.086   0.031  0.00  0.00    +0.001 A 
ATOM     11  C   LIG    1        1.774   1.422  -1.023  0.00  0.00    +0.013 A 
ATOM     12  C   LIG    1        1.803   0.042  -1.046  0.00  0.00    +0.067 A 
ATOM     13  C   LIG    1        1.223  -0.682  -0.004  0.00  0.00    +0.049 A 
ATOM     14  C   LIG    1        0.618  -0.006   1.056  0.00  0.00    +0.013 A 
BRANCH  12  15
ATOM     15  C   LIG    1        2.458  -0.680  -2.195  0.00  0.00    +0.418 C 
ATOM     16  F   LIG    1        1.516  -1.493  -2.833  0.00  0.00    -0.166 F 
ATOM     17  F   LIG    1        3.506  -1.471  -1.712  0.00  0.00    -0.166 F 
ATOM     18  F   LIG    1        2.962   0.254  -3.107  0.00  0.00    -0.166 F 
ENDBRANCH  12  15
ENDBRANCH   1  13
BRANCH   5  19
ATOM     19  C   LIG    1       -3.229  -4.927  -0.794  0.00  0.00    +0.161 A 
ATOM     20  N   LIG    1       -4.467  -4.464  -0.772  0.00  0.00    -0.232 NA
ATOM     21  C   LIG    1       -5.495  -5.267  -0.661  0.00  0.00    +0.133 A 
ATOM     22  C   LIG    1       -5.212  -6.622  -0.568  0.00  0.00    +0.095 A 
ATOM     23  S   LIG    1       -3.429  -6.593  -0.660  0.00  0.00    -0.048 S 
BRANCH  22  24
ATOM     24  C   LIG    1       -6.122  -7.759  -0.436  0.00  0.00    +0.250 C 
ATOM     25  N   LIG    1       -7.453  -7.556  -0.390  0.00  0.00    -0.325 N 
ATOM     26  H   LIG    1       -8.056  -8.310  -0.302  0.00  0.00    +0.145 HD
ATOM     27  H   LIG    1       -7.808  -6.654  -0.444  0.00  0.00    +0.145 HD
ATOM     28  O   LIG    1       -5.676  -8.890  -0.367  0.00  0.00    -0.270 OA
ENDBRANCH  22  24
ENDBRANCH   5  19
TORSDOF 4
