REMARK  Name = ZINC35975467
REMARK                            x       y       z     vdW  Elec       q    Type
REMARK                         _______ _______ _______ _____ _____    ______ ____
ROOT
ATOM      1  N   LIG    1        0.869  -2.252  -1.536  0.00  0.00    -0.199 N 
ATOM      2  C   LIG    1        1.849  -3.055  -0.943  0.00  0.00    +0.055 A 
ATOM      3  C   LIG    1        3.097  -2.693  -0.432  0.00  0.00    +0.028 A 
ATOM      4  C   LIG    1        3.927  -3.646   0.118  0.00  0.00    +0.047 A 
ATOM      5  C   LIG    1        3.528  -4.974   0.168  0.00  0.00    +0.121 A 
ATOM      6  C   LIG    1        2.290  -5.338  -0.338  0.00  0.00    +0.051 A 
ATOM      7  C   LIG    1        1.457  -4.383  -0.890  0.00  0.00    -0.019 A 
ATOM      8  C   LIG    1        0.080  -4.504  -1.503  0.00  0.00    +0.066 C 
ATOM      9  C   LIG    1       -0.286  -3.070  -1.917  0.00  0.00    +0.132 C 
ENDROOT
BRANCH   9  10
ATOM     10  C   LIG    1       -0.507  -2.999  -3.406  0.00  0.00    -0.024 A 
ATOM     11  C   LIG    1        0.590  -3.020  -4.266  0.00  0.00    +0.006 A 
ATOM     12  C   LIG    1        0.425  -2.958  -5.615  0.00  0.00    +0.009 A 
ATOM     13  C   LIG    1       -0.869  -2.873  -6.156  0.00  0.00    -0.018 A 
ATOM     14  C   LIG    1       -1.072  -2.808  -7.546  0.00  0.00    +0.009 A 
ATOM     15  C   LIG    1       -2.332  -2.725  -8.046  0.00  0.00    +0.016 A 
ATOM     16  C   LIG    1       -3.447  -2.703  -7.189  0.00  0.00    +0.061 A 
ATOM     17  C   LIG    1       -3.280  -2.766  -5.816  0.00  0.00    +0.024 A 
ATOM     18  C   LIG    1       -1.986  -2.852  -5.282  0.00  0.00    -0.017 A 
ATOM     19  C   LIG    1       -1.776  -2.922  -3.893  0.00  0.00    +0.014 A 
BRANCH  16  20
ATOM     20  C   LIG    1       -4.809  -2.612  -7.760  0.00  0.00    +0.266 C 
ATOM     21  N   LIG    1       -5.006  -1.978  -8.914  0.00  0.00    -0.288 N 
ATOM     22  H   LIG    1       -5.899  -1.918  -9.288  0.00  0.00    +0.301 HD
ATOM     23  H   LIG    1       -4.257  -1.576  -9.381  0.00  0.00    +0.301 HD
BRANCH  20  24
ATOM     24  N   LIG    1       -5.837  -3.164  -7.119  0.00  0.00    -0.250 N 
ATOM     25  H   LIG    1       -6.730  -3.104  -7.493  0.00  0.00    +0.288 HD
ATOM     26  H   LIG    1       -5.694  -3.626  -6.278  0.00  0.00    +0.288 HD
ENDBRANCH  20  24
ENDBRANCH  16  20
ENDBRANCH   9  10
BRANCH   1  27
ATOM     27  S   LIG    1        0.993  -0.617  -1.767  0.00  0.00    +0.046 S 
ATOM     28  O   LIG    1        2.390  -0.367  -1.847  0.00  0.00    -0.155 OA
ATOM     29  O   LIG    1        0.143  -0.342  -2.873  0.00  0.00    -0.155 OA
BRANCH  27  31
ATOM     30  C   LIG    1        0.376   1.645  -0.359  0.00  0.00    +0.030 C 
ATOM     31  C   LIG    1        0.312   0.120  -0.257  0.00  0.00    +0.185 C 
ENDBRANCH  27  31
ENDBRANCH   1  27
BRANCH   5  32
ATOM     32  O   LIG    1        4.348  -5.914   0.710  0.00  0.00    -0.489 OA
BRANCH  32  33
ATOM     33  C   LIG    1        5.550  -5.448   1.326  0.00  0.00    +0.181 C 
ATOM     34  C   LIG    1        6.632  -5.264   0.259  0.00  0.00    +0.088 C 
ATOM     35  C   LIG    1        7.908  -4.732   0.917  0.00  0.00    +0.229 C 
ATOM     36  N   LIG    1        8.288  -5.636   2.011  0.00  0.00    -0.228 N 
ATOM     37  C   LIG    1        7.292  -5.953   3.044  0.00  0.00    +0.229 C 
ATOM     38  C   LIG    1        6.022  -6.472   2.361  0.00  0.00    +0.088 C 
BRANCH  36  39
ATOM     39  C   LIG    1        9.547  -6.174   2.068  0.00  0.00    +0.235 C 
ATOM     40  C   LIG    1        9.919  -7.105   3.193  0.00  0.00    +0.140 C 
ATOM     41  N   LIG    1       10.416  -5.883   1.155  0.00  0.00    -0.293 N 
ATOM     42  H   LIG    1       11.321  -6.224   1.221  0.00  0.00    +0.301 HD
ATOM     43  H   LIG    1       10.162  -5.322   0.405  0.00  0.00    +0.301 HD
ENDBRANCH  36  39
ENDBRANCH  32  33
ENDBRANCH   5  32
TORSDOF 8
