REMARK  Name = ZINC26381389
REMARK                            x       y       z     vdW  Elec       q    Type
REMARK                         _______ _______ _______ _____ _____    ______ ____
ROOT
ATOM      1  C   LIG    1        1.534   0.028   3.637  0.00  0.00    +0.004 A 
ATOM      2  C   LIG    1        0.935   0.440   4.814  0.00  0.00    +0.012 A 
ATOM      3  C   LIG    1       -0.203   1.222   4.776  0.00  0.00    +0.058 A 
ATOM      4  C   LIG    1       -0.744   1.599   3.561  0.00  0.00    +0.058 A 
ATOM      5  C   LIG    1       -0.149   1.182   2.380  0.00  0.00    +0.121 A 
ATOM      6  C   LIG    1        0.994   0.397   2.421  0.00  0.00    +0.045 A 
ENDROOT
BRANCH   3   7
ATOM      7  C   LIG    1       -0.853   1.670   6.060  0.00  0.00    +0.418 C 
ATOM      8  F   LIG    1       -2.164   1.185   6.113  0.00  0.00    -0.166 F 
ATOM      9  F   LIG    1       -0.870   3.068   6.111  0.00  0.00    -0.166 F 
ATOM     10  F   LIG    1       -0.127   1.172   7.148  0.00  0.00    -0.166 F 
ENDBRANCH   3   7
BRANCH   5  11
ATOM     11  O   LIG    1       -0.682   1.547   1.184  0.00  0.00    -0.494 OA
BRANCH  11  12
ATOM     12  C   LIG    1       -0.013   1.086   0.008  0.00  0.00    +0.213 C 
BRANCH  12  13
ATOM     13  C   LIG    1       -0.753   1.593  -1.232  0.00  0.00    -0.034 C 
ATOM     14  C   LIG    1       -0.122   1.005  -2.513  0.00  0.00    -0.014 C 
ATOM     15  C   LIG    1       -0.187   2.145  -3.550  0.00  0.00    -0.021 C 
ATOM     16  C   LIG    1       -0.851   3.325  -2.809  0.00  0.00    -0.082 C 
ATOM     17  N   LIG    1       -0.584   3.062  -1.371  0.00  0.00    +0.383 N 
ATOM     18  H   LIG    1        0.440   3.342  -1.084  0.00  0.00    -0.085 HD
ATOM     19  H   LIG    1       -1.302   3.578  -0.717  0.00  0.00    -0.085 HD
ENDBRANCH  12  13
ENDBRANCH  11  12
ENDBRANCH   5  11
TORSDOF 4
