REMARK  Name = ZINC14951244
REMARK                            x       y       z     vdW  Elec       q    Type
REMARK                         _______ _______ _______ _____ _____    ______ ____
ROOT
ATOM      1  C   LIG    1        3.645  -2.029   0.024  0.00  0.00    +0.393 C 
ATOM      2  N   LIG    1        2.531  -2.663   0.255  0.00  0.00    -0.129 NA
ATOM      3  H   LIG    1        2.551  -3.574   0.587  0.00  0.00    +0.306 HD
ENDROOT
BRANCH   1   4
ATOM      4  N   LIG    1        3.619  -0.704  -0.348  0.00  0.00    -0.243 N 
ATOM      5  H   LIG    1        4.436  -0.262  -0.624  0.00  0.00    +0.265 HD
BRANCH   4   9
ATOM      6  C   LIG    1        0.028   1.406  -0.285  0.00  0.00    +0.000 A 
ATOM      7  C   LIG    1        0.277   0.440   0.672  0.00  0.00    +0.003 A 
ATOM      8  C   LIG    1        1.466  -0.262   0.654  0.00  0.00    +0.042 A 
ATOM      9  C   LIG    1        2.413   0.004  -0.327  0.00  0.00    +0.100 A 
ATOM     10  C   LIG    1        2.159   0.975  -1.287  0.00  0.00    +0.042 A 
ATOM     11  C   LIG    1        0.968   1.673  -1.264  0.00  0.00    +0.003 A 
ENDBRANCH   4   9
ENDBRANCH   1   4
BRANCH   1  12
ATOM     12  N   LIG    1        4.851  -2.687   0.150  0.00  0.00    -0.186 N 
ATOM     13  H   LIG    1        4.868  -3.641   0.321  0.00  0.00    +0.271 HD
BRANCH  12  14
ATOM     14  C   LIG    1        6.034  -1.986   0.035  0.00  0.00    +0.385 C 
ATOM     15  N   LIG    1        6.014  -0.687  -0.058  0.00  0.00    -0.129 NA
ATOM     16  H   LIG    1        6.846  -0.194  -0.139  0.00  0.00    +0.306 HD
BRANCH  14  17
ATOM     17  N   LIG    1        7.232  -2.658   0.019  0.00  0.00    -0.289 N 
ATOM     18  H   LIG    1        8.066  -2.163   0.014  0.00  0.00    +0.255 HD
ATOM     19  H   LIG    1        7.244  -3.628   0.013  0.00  0.00    +0.255 HD
ENDBRANCH  14  17
ENDBRANCH  12  14
ENDBRANCH   1  12
TORSDOF 5
