REMARK  Name = ZINC37858297
REMARK                            x       y       z     vdW  Elec       q    Type
REMARK                         _______ _______ _______ _____ _____    ______ ____
ROOT
ATOM      1  C   LIG    1       -0.018   1.503   0.010  0.00  0.00    +0.046 C 
ATOM      2  C   LIG    1        0.002  -0.004   0.002  0.00  0.00    -0.022 A 
ATOM      3  C   LIG    1        0.006  -0.678  -1.178  0.00  0.00    +0.014 A 
ATOM      4  C   LIG    1        0.025  -2.082  -1.206  0.00  0.00    -0.013 A 
ATOM      5  C   LIG    1        0.040  -2.810  -0.030  0.00  0.00    +0.040 A 
ATOM      6  C   LIG    1        0.036  -2.134   1.198  0.00  0.00    +0.112 A 
ATOM      7  N   LIG    1        0.051  -2.794   2.362  0.00  0.00    -0.144 NA
ATOM      8  N   LIG    1        0.063  -2.137   3.471  0.00  0.00    -0.113 NA
ATOM      9  C   LIG    1        0.045  -0.803   3.504  0.00  0.00    +0.233 A 
ATOM     10  N   LIG    1        0.025  -0.085   2.395  0.00  0.00    -0.212 NA
ATOM     11  C   LIG    1        0.023  -0.714   1.214  0.00  0.00    +0.097 A 
ENDROOT
BRANCH   4  12
ATOM     12  C   LIG    1        0.028  -2.791  -2.509  0.00  0.00    +0.019 A 
ATOM     13  C   LIG    1       -1.069  -2.688  -3.365  0.00  0.00    +0.050 A 
ATOM     14 CL   LIG    1       -2.442  -1.730  -2.907  0.00  0.00    -0.083 Cl
ATOM     15  C   LIG    1       -1.060  -3.351  -4.577  0.00  0.00    +0.021 A 
ATOM     16  C   LIG    1        0.033  -4.115  -4.942  0.00  0.00    +0.003 A 
ATOM     17  C   LIG    1        1.124  -4.221  -4.098  0.00  0.00    +0.021 A 
ATOM     18  C   LIG    1        1.129  -3.558  -2.886  0.00  0.00    +0.050 A 
ATOM     19 CL   LIG    1        2.502  -3.686  -1.831  0.00  0.00    -0.083 Cl
ENDBRANCH   4  12
BRANCH   9  20
ATOM     20  N   LIG    1        0.048  -0.157   4.727  0.00  0.00    -0.326 N 
ATOM     21  H   LIG    1        0.063  -0.673   5.548  0.00  0.00    +0.145 HD
ATOM     22  H   LIG    1        0.036   0.812   4.764  0.00  0.00    +0.145 HD
ENDBRANCH   9  20
TORSDOF 2
