REMARK  Name = ZINC28967975
REMARK                            x       y       z     vdW  Elec       q    Type
REMARK                         _______ _______ _______ _____ _____    ______ ____
ROOT
ATOM      1  C   LIG    1       -0.626   2.071  -3.486  0.00  0.00    +0.114 A 
ATOM      2  C   LIG    1       -1.971   2.457  -3.514  0.00  0.00    +0.037 A 
ATOM      3  C   LIG    1       -2.703   2.398  -2.359  0.00  0.00    +0.016 A 
ATOM      4  C   LIG    1       -2.070   1.951  -1.188  0.00  0.00    +0.039 A 
ATOM      5  C   LIG    1       -0.724   1.576  -1.225  0.00  0.00    +0.053 A 
ATOM      6  C   LIG    1       -0.013   1.086   0.008  0.00  0.00    +0.056 C 
ATOM      7  C   LIG    1       -0.710   1.569   1.276  0.00  0.00    +0.014 C 
ATOM      8  C   LIG    1       -2.186   1.156   1.238  0.00  0.00    +0.080 C 
ATOM      9  C   LIG    1       -2.827   1.881   0.073  0.00  0.00    +0.165 C 
ATOM     10  O   LIG    1       -3.925   2.387   0.175  0.00  0.00    -0.292 OA
ATOM     11  N   LIG    1       -0.056   1.650  -2.360  0.00  0.00    -0.243 NA
ENDROOT
BRANCH   1  13
ATOM     12  C   LIG    1        0.785   2.179  -5.674  0.00  0.00    -0.060 C 
ATOM     13  C   LIG    1        0.149   2.130  -4.688  0.00  0.00    -0.041 C 
BRANCH  12  17
ATOM     14  C   LIG    1        3.059   2.353  -9.203  0.00  0.00    +0.000 A 
ATOM     15  C   LIG    1        3.644   1.917  -8.028  0.00  0.00    +0.001 A 
ATOM     16  C   LIG    1        2.905   1.857  -6.865  0.00  0.00    +0.017 A 
ATOM     17  C   LIG    1        1.560   2.239  -6.877  0.00  0.00    +0.025 A 
ATOM     18  C   LIG    1        0.974   2.674  -8.069  0.00  0.00    +0.017 A 
ATOM     19  C   LIG    1        1.728   2.733  -9.222  0.00  0.00    +0.001 A 
ENDBRANCH  12  17
ENDBRANCH   1  13
TORSDOF 2
