REMARK  Name = ZINC45350151
REMARK                            x       y       z     vdW  Elec       q    Type
REMARK                         _______ _______ _______ _____ _____    ______ ____
ROOT
ATOM      1  C   LIG    1       -0.017   1.399   0.010  0.00  0.00    +0.021 A 
ATOM      2  C   LIG    1        1.148   2.108   0.002  0.00  0.00    +0.029 A 
ATOM      3  C   LIG    1        2.371   1.444  -0.013  0.00  0.00    +0.067 A 
ATOM      4  C   LIG    1        2.410   0.033  -0.021  0.00  0.00    +0.091 A 
ATOM      5  N   LIG    1        3.704  -0.330  -0.036  0.00  0.00    -0.222 NA
ATOM      6  C   LIG    1        4.463   0.737  -0.039  0.00  0.00    +0.218 A 
ATOM      7  C   LIG    1        1.211  -0.688  -0.012  0.00  0.00    +0.048 A 
ATOM      8  N   LIG    1        3.679   1.863  -0.025  0.00  0.00    -0.333 N 
ATOM      9  H   LIG    1        3.989   2.781  -0.023  0.00  0.00    +0.168 HD
ATOM     10  C   LIG    1        0.002  -0.004   0.002  0.00  0.00    +0.054 A 
ENDROOT
BRANCH   6  11
ATOM     11  C   LIG    1        5.940   0.731  -0.053  0.00  0.00    +0.373 C 
ATOM     12  O   LIG    1        6.546  -0.331  -0.065  0.00  0.00    -0.242 OA
BRANCH  11  13
ATOM     13  O   LIG    1        6.556   1.787  -0.054  0.00  0.00    -0.475 OA
ATOM     14  H   LIG    1        6.091   2.600  -0.044  0.00  0.00    +0.296 HD
ENDBRANCH  11  13
ENDBRANCH   6  11
BRANCH  10  15
ATOM     15  C   LIG    1       -1.230  -0.734   0.010  0.00  0.00    +0.099 C 
ATOM     16  N   LIG    1       -2.207  -1.313   0.016  0.00  0.00    -0.191 NA
ENDBRANCH  10  15
TORSDOF 3
