REMARK  Name = ZINC14959302
REMARK                            x       y       z     vdW  Elec       q    Type
REMARK                         _______ _______ _______ _____ _____    ______ ____
ROOT
ATOM      1  N   LIG    1       -5.434  -2.780   0.976  0.00  0.00    -0.285 N 
ATOM      2  H   LIG    1       -5.950  -2.054   0.593  0.00  0.00    +0.155 HD
ATOM      3  C   LIG    1       -4.153  -2.574   1.344  0.00  0.00    +0.222 C 
ATOM      4  O   LIG    1       -3.537  -3.452   1.911  0.00  0.00    -0.275 OA
ENDROOT
BRANCH   1   9
ATOM      5  C   LIG    1       -5.825  -6.429   1.191  0.00  0.00    +0.002 A 
ATOM      6  C   LIG    1       -7.172  -6.531   1.488  0.00  0.00    +0.012 A 
ATOM      7  C   LIG    1       -7.943  -5.390   1.615  0.00  0.00    +0.057 A 
ATOM      8  C   LIG    1       -7.369  -4.145   1.446  0.00  0.00    +0.035 A 
ATOM      9  C   LIG    1       -6.017  -4.040   1.148  0.00  0.00    +0.034 A 
ATOM     10  C   LIG    1       -5.247  -5.188   1.015  0.00  0.00    +0.023 A 
BRANCH   7  11
ATOM     11  C   LIG    1       -9.410  -5.506   1.940  0.00  0.00    +0.417 C 
ATOM     12  F   LIG    1       -9.817  -4.380   2.664  0.00  0.00    -0.166 F 
ATOM     13  F   LIG    1       -9.630  -6.657   2.704  0.00  0.00    -0.166 F 
ATOM     14  F   LIG    1      -10.145  -5.587   0.752  0.00  0.00    -0.166 F 
ENDBRANCH   7  11
ENDBRANCH   1   9
BRANCH   3  15
ATOM     15  C   LIG    1       -3.487  -1.254   1.051  0.00  0.00    +0.101 C 
ATOM     16  C   LIG    1       -3.431  -0.989  -0.471  0.00  0.00    +0.110 C 
ATOM     17  C   LIG    1       -2.095  -0.309  -0.680  0.00  0.00    +0.217 C 
ATOM     18  N   LIG    1       -1.310  -0.493   0.395  0.00  0.00    -0.298 N 
ATOM     19  O   LIG    1       -1.779   0.311  -1.673  0.00  0.00    -0.276 OA
ATOM     20  C   LIG    1       -1.986  -1.302   1.417  0.00  0.00    +0.121 C 
BRANCH  18  21
ATOM     21  C   LIG    1        0.048   0.040   0.528  0.00  0.00    +0.076 C 
ATOM     22  C   LIG    1        0.007   1.567   0.434  0.00  0.00    +0.022 C 
ATOM     23  C   LIG    1        1.425   2.124   0.573  0.00  0.00    +0.002 C 
ATOM     24  C   LIG    1        2.304   1.567  -0.549  0.00  0.00    +0.000 C 
ATOM     25  C   LIG    1        2.345   0.041  -0.455  0.00  0.00    +0.002 C 
ATOM     26  C   LIG    1        0.927  -0.516  -0.594  0.00  0.00    +0.022 C 
ENDBRANCH  18  21
ENDBRANCH   3  15
TORSDOF 4
