REMARK  Name = ZINC19685795
REMARK                            x       y       z     vdW  Elec       q    Type
REMARK                         _______ _______ _______ _____ _____    ______ ____
ROOT
ATOM      1  C   LIG    1       -0.606  -3.773  -0.325  0.00  0.00    +0.338 C 
ATOM      2  O   LIG    1        0.498  -4.246  -0.519  0.00  0.00    -0.245 OA
ENDROOT
BRANCH   1   7
ATOM      3  C   LIG    1       -1.937   1.579   0.959  0.00  0.00    +0.061 C 
ATOM      4  C   LIG    1       -1.387   0.208   0.664  0.00  0.00    +0.016 C 
ATOM      5  C   LIG    1       -1.051  -0.605   1.681  0.00  0.00    +0.065 C 
ATOM      6  C   LIG    1       -0.490  -1.977   1.434  0.00  0.00    +0.096 C 
ATOM      7  C   LIG    1       -0.741  -2.407   0.017  0.00  0.00    +0.065 C 
ATOM      8  C   LIG    1       -1.089  -1.522  -0.933  0.00  0.00    +0.016 C 
ATOM      9  C   LIG    1       -1.321  -1.998  -2.344  0.00  0.00    +0.061 C 
ATOM     10  N   LIG    1       -1.240  -0.197  -0.634  0.00  0.00    -0.321 N 
ATOM     11  H   LIG    1       -1.240   0.460  -1.348  0.00  0.00    +0.152 HD
BRANCH   6  12
ATOM     12  C   LIG    1        0.995  -1.959   1.692  0.00  0.00    -0.033 A 
ATOM     13  C   LIG    1        1.813  -1.119   0.961  0.00  0.00    +0.005 A 
ATOM     14  C   LIG    1        3.175  -1.103   1.197  0.00  0.00    +0.003 A 
ATOM     15  C   LIG    1        3.719  -1.927   2.164  0.00  0.00    +0.032 A 
ATOM     16  C   LIG    1        2.900  -2.767   2.896  0.00  0.00    +0.122 A 
ATOM     17  C   LIG    1        1.537  -2.780   2.663  0.00  0.00    +0.037 A 
BRANCH  16  18
ATOM     18  N   LIG    1        3.482  -3.651   3.931  0.00  0.00    +0.006 N 
ATOM     19  O   LIG    1        4.673  -3.637   4.137  0.00  0.00    -0.130 OA
BRANCH  18  20
ATOM     20  O   LIG    1        2.766  -4.385   4.571  0.00  0.00    -0.396 OA
ATOM     21  H   LIG    1        1.843  -4.395   4.412  0.00  0.00    +0.329 HD
ENDBRANCH  18  20
ENDBRANCH  16  18
ENDBRANCH   6  12
BRANCH   5  22
ATOM     22  C   LIG    1       -1.229  -0.159   3.011  0.00  0.00    +0.337 C 
ATOM     23  O   LIG    1       -1.681   0.950   3.225  0.00  0.00    -0.245 OA
BRANCH  22  24
ATOM     24  O   LIG    1       -0.896  -0.963   4.042  0.00  0.00    -0.465 OA
ATOM     25  C   LIG    1       -1.102  -0.448   5.359  0.00  0.00    +0.280 C 
ENDBRANCH  22  24
ENDBRANCH   5  22
ENDBRANCH   1   7
BRANCH   1  26
ATOM     26  O   LIG    1       -1.703  -4.551  -0.438  0.00  0.00    -0.460 OA
BRANCH  26  27
ATOM     27  C   LIG    1       -1.493  -5.921  -0.786  0.00  0.00    +0.248 C 
BRANCH  27  28
ATOM     28  C   LIG    1       -2.842  -6.639  -0.866  0.00  0.00    +0.125 C 
BRANCH  28  29
ATOM     29  N   LIG    1       -3.643  -6.058  -1.951  0.00  0.00    -0.303 NA
ATOM     30  C   LIG    1       -5.069  -6.371  -1.780  0.00  0.00    +0.066 C 
ATOM     31  C   LIG    1       -5.873  -5.699  -2.895  0.00  0.00    -0.062 C 
ATOM     32  N   LIG    1       -5.402  -6.183  -4.199  0.00  0.00    +0.389 N 
ATOM     33  H   LIG    1       -5.514  -7.185  -4.246  0.00  0.00    -0.080 HD
ATOM     34  C   LIG    1       -3.983  -5.841  -4.366  0.00  0.00    -0.062 C 
ATOM     35  C   LIG    1       -3.163  -6.514  -3.263  0.00  0.00    +0.066 C 
BRANCH  32  36
ATOM     36  C   LIG    1       -6.186  -5.551  -5.268  0.00  0.00    -0.007 C 
BRANCH  36  37
ATOM     37  C   LIG    1       -7.642  -5.903  -5.098  0.00  0.00    -0.057 A 
ATOM     38  C   LIG    1       -8.004  -7.180  -4.710  0.00  0.00    +0.002 A 
ATOM     39  C   LIG    1       -9.338  -7.503  -4.554  0.00  0.00    +0.000 A 
ATOM     40  C   LIG    1      -10.312  -6.548  -4.785  0.00  0.00    +0.000 A 
ATOM     41  C   LIG    1       -9.950  -5.271  -5.172  0.00  0.00    +0.000 A 
ATOM     42  C   LIG    1       -8.615  -4.948  -5.324  0.00  0.00    +0.002 A 
ENDBRANCH  36  37
BRANCH  36  43
ATOM     43  C   LIG    1       -5.702  -6.048  -6.606  0.00  0.00    -0.057 A 
ATOM     44  C   LIG    1       -5.370  -7.380  -6.770  0.00  0.00    +0.002 A 
ATOM     45  C   LIG    1       -4.926  -7.835  -7.998  0.00  0.00    +0.000 A 
ATOM     46  C   LIG    1       -4.816  -6.959  -9.061  0.00  0.00    +0.000 A 
ATOM     47  C   LIG    1       -5.149  -5.627  -8.898  0.00  0.00    +0.000 A 
ATOM     48  C   LIG    1       -5.597  -5.173  -7.671  0.00  0.00    +0.002 A 
ENDBRANCH  36  43
ENDBRANCH  32  36
ENDBRANCH  28  29
ENDBRANCH  27  28
ENDBRANCH  26  27
ENDBRANCH   1  26
TORSDOF 13
