REMARK  Name = ZINC19278906
REMARK                            x       y       z     vdW  Elec       q    Type
REMARK                         _______ _______ _______ _____ _____    ______ ____
ROOT
ATOM      1  C   UNK A  0        3.432   1.538   1.277  0.00  0.00    +0.250 C 
ATOM      2  N   HIS A  1        2.089   1.647   1.243  0.00  0.00    -0.298 N 
ATOM      3  H   HIS A  1        1.498   1.446   2.148  0.00  0.00    +0.150 HD
ATOM      4  O   UNK A  0        4.086   1.760   0.276  0.00  0.00    -0.270 OA
ENDROOT
BRANCH   1   9
ATOM      5  C   UNK A  0        5.381   0.421   4.883  0.00  0.00    +0.006 A 
ATOM      6  C   UNK A  0        5.152   1.757   4.611  0.00  0.00    +0.039 A 
ATOM      7  C   UNK A  0        4.518   2.130   3.441  0.00  0.00    +0.138 A 
ATOM      8  F   UNK A  0        4.294   3.436   3.178  0.00  0.00    -0.205 F 
ATOM      9  C   UNK A  0        4.109   1.150   2.529  0.00  0.00    +0.107 A 
ATOM     10  C   UNK A  0        4.340  -0.200   2.815  0.00  0.00    +0.138 A 
ATOM     11  F   UNK A  0        3.944  -1.154   1.944  0.00  0.00    -0.205 F 
ATOM     12  C   UNK A  0        4.980  -0.554   3.988  0.00  0.00    +0.039 A 
ENDBRANCH   1   9
BRANCH   2  13
ATOM     13  CA  HIS A  1        1.417   2.032  -0.001  0.00  0.00    +0.188 C 
BRANCH  13  14
ATOM     14  C   HIS A  1        1.397   3.535  -0.116  0.00  0.00    +0.326 C 
ATOM     15  O   HIS A  1        1.894   4.214   0.751  0.00  0.00    -0.249 OA
BRANCH  14  16
ATOM     16  OXT HIS A  1        0.828   4.118  -1.183  0.00  0.00    -0.479 OA
ATOM     17  HXT HIS A  1        0.443   3.592  -1.855  0.00  0.00    +0.295 HD
ENDBRANCH  14  16
ENDBRANCH  13  14
BRANCH  13  18
ATOM     18  CB  HIS A  1       -0.018   1.503   0.010  0.00  0.00    +0.088 C 
BRANCH  18  19
ATOM     19  CG  HIS A  1        0.002  -0.004   0.002  0.00  0.00    +0.038 A 
ATOM     20  CD2 HIS A  1       -0.599  -0.809   0.899  0.00  0.00    +0.133 A 
ATOM     21  NE2 HIS A  1       -0.332  -2.096   0.518  0.00  0.00    -0.244 NA
ATOM     22  CE1 HIS A  1        0.431  -2.033  -0.594  0.00  0.00    +0.196 A 
ATOM     23  ND1 HIS A  1        0.627  -0.779  -0.897  0.00  0.00    -0.348 N 
ATOM     24  HD1 HIS A  1        1.190  -0.319  -1.723  0.00  0.00    +0.166 HD
ENDBRANCH  18  19
ENDBRANCH  13  18
ENDBRANCH   2  13
TORSDOF 6
