REMARK  Name = ZINC19632644
REMARK                            x       y       z     vdW  Elec       q    Type
REMARK                         _______ _______ _______ _____ _____    ______ ____
ROOT
ATOM      1  C   LIG    1        4.044   0.624   1.409  0.00  0.00    +0.285 C 
ENDROOT
BRANCH   1   2
ATOM      2  P   LIG    1        5.867   0.599   1.392  0.00  0.00    +0.373 P 
ATOM      3  O   LIG    1        6.358  -0.665   0.652  0.00  0.00    -0.255 OA
BRANCH   2   4
ATOM      4  O   LIG    1        6.418   0.584   2.905  0.00  0.00    -0.322 OA
ATOM      5  H   LIG    1        7.383   0.570   2.972  0.00  0.00    +0.220 HD
ENDBRANCH   2   4
BRANCH   2   6
ATOM      6  O   LIG    1        6.392   1.857   0.665  0.00  0.00    -0.322 OA
ATOM      7  H   LIG    1        6.060   1.867  -0.246  0.00  0.00    +0.220 HD
ENDBRANCH   2   6
ENDBRANCH   1   2
BRANCH   1   8
ATOM      8  P   LIG    1        3.425  -0.861   2.267  0.00  0.00    +0.373 P 
ATOM      9  O   LIG    1        3.953  -0.876   3.718  0.00  0.00    -0.255 OA
BRANCH   8  10
ATOM     10  O   LIG    1        3.915  -2.125   1.527  0.00  0.00    -0.322 OA
ATOM     11  H   LIG    1        4.885  -2.139   1.518  0.00  0.00    +0.220 HD
ENDBRANCH   8  10
BRANCH   8  12
ATOM     12  O   LIG    1        1.815  -0.839   2.282  0.00  0.00    -0.322 OA
ATOM     13  H   LIG    1        1.415  -1.601   2.724  0.00  0.00    +0.220 HD
ENDBRANCH   8  12
ENDBRANCH   1   8
BRANCH   1  14
ATOM     14  O   LIG    1        3.590   1.793   2.094  0.00  0.00    -0.366 OA
ATOM     15  H   LIG    1        3.883   2.623   1.692  0.00  0.00    +0.212 HD
ENDBRANCH   1  14
BRANCH   1  16
ATOM     16  C   LIG    1        3.521   0.638  -0.028  0.00  0.00    +0.183 C 
BRANCH  16  19
ATOM     17  C   LIG    1       -0.016   1.337   0.009  0.00  0.00    +0.130 A 
ATOM     18  C   LIG    1        1.259   1.771  -0.000  0.00  0.00    +0.107 A 
ATOM     19  N   LIG    1        2.056   0.658  -0.014  0.00  0.00    -0.333 N 
ATOM     20  C   LIG    1        1.240  -0.418  -0.012  0.00  0.00    +0.199 A 
ATOM     21  N   LIG    1        0.002  -0.004   0.002  0.00  0.00    -0.244 NA
ENDBRANCH  16  19
ENDBRANCH   1  16
TORSDOF 9
