REMARK  Name = ZINC40862914
REMARK                            x       y       z     vdW  Elec       q    Type
REMARK                         _______ _______ _______ _____ _____    ______ ____
ROOT
ATOM      1  C   LIG    1        0.827  -2.836   0.249  0.00  0.00    +0.023 C 
ENDROOT
BRANCH   1   6
ATOM      2  C   LIG    1       -0.019   1.539   0.011  0.00  0.00    +0.020 C 
ATOM      3  C   LIG    1        1.488   1.907  -0.002  0.00  0.00    +0.020 C 
ATOM      4  C   LIG    1        2.092   0.776   0.868  0.00  0.00    +0.108 C 
ATOM      5  N   LIG    1        1.313  -0.426   0.518  0.00  0.00    -0.303 N 
ATOM      6  C   LIG    1        1.733  -1.700   0.648  0.00  0.00    +0.202 C 
ATOM      7  O   LIG    1        2.840  -1.931   1.086  0.00  0.00    -0.277 OA
ATOM      8  C   LIG    1        0.002  -0.004   0.002  0.00  0.00    +0.108 C 
ENDBRANCH   1   6
BRANCH   1   9
ATOM      9  N   LIG    1        1.630  -4.046   0.024  0.00  0.00    +0.386 N 
ATOM     10  H   LIG    1        2.298  -3.874  -0.712  0.00  0.00    -0.089 HD
ATOM     11  H   LIG    1        1.023  -4.807  -0.243  0.00  0.00    -0.089 HD
ATOM     12  H   LIG    1        2.119  -4.288   0.873  0.00  0.00    -0.089 HD
ENDBRANCH   1   9
BRANCH   1  13
ATOM     13  C   LIG    1       -0.186  -3.096   1.365  0.00  0.00    +0.058 C 
BRANCH  13  14
ATOM     14  S   LIG    1       -1.277  -4.465   0.885  0.00  0.00    -0.179 S 
ATOM     15  H   LIG    1       -2.112  -4.598   1.931  0.00  0.00    +0.102 HD
ENDBRANCH  13  14
ENDBRANCH   1  13
TORSDOF 4
