REMARK  Name = ZINC34123980
REMARK                            x       y       z     vdW  Elec       q    Type
REMARK                         _______ _______ _______ _____ _____    ______ ____
ROOT
ATOM      1  N   LIG    1       -1.729  -1.013  -1.367  0.00  0.00    -0.331 N 
ATOM      2  C   LIG    1       -2.590  -0.256  -2.081  0.00  0.00    +0.174 A 
ATOM      3  N   LIG    1       -2.730  -0.785  -3.265  0.00  0.00    -0.352 N 
ATOM      4  H   LIG    1       -3.295  -0.436  -3.973  0.00  0.00    +0.166 HD
ATOM      5  C   LIG    1       -1.972  -1.888  -3.350  0.00  0.00    +0.105 A 
ATOM      6  C   LIG    1       -1.333  -2.045  -2.175  0.00  0.00    +0.036 A 
ENDROOT
BRANCH   1   7
ATOM      7  C   LIG    1       -1.295  -0.772   0.011  0.00  0.00    +0.158 C 
BRANCH   7  13
ATOM      8  C   LIG    1       -0.017   1.379   0.010  0.00  0.00    +0.006 A 
ATOM      9  C   LIG    1        1.167   2.088   0.002  0.00  0.00    +0.019 A 
ATOM     10  C   LIG    1        2.385   1.407  -0.013  0.00  0.00    +0.052 A 
ATOM     11  C   LIG    1        2.397   0.011  -0.021  0.00  0.00    +0.019 A 
ATOM     12  C   LIG    1        1.206  -0.686  -0.013  0.00  0.00    +0.006 A 
ATOM     13  C   LIG    1        0.002  -0.004   0.002  0.00  0.00    -0.028 A 
BRANCH  10  14
ATOM     14  C   LIG    1        3.617   2.136  -0.021  0.00  0.00    +0.099 C 
ATOM     15  N   LIG    1        4.595   2.715  -0.028  0.00  0.00    -0.191 NA
ENDBRANCH  10  14
ENDBRANCH   7  13
ENDBRANCH   1   7
BRANCH   6  16
ATOM     16  C   LIG    1       -0.369  -3.147  -1.817  0.00  0.00    +0.057 C 
BRANCH  16  17
ATOM     17  C   LIG    1        1.035  -2.772  -2.294  0.00  0.00    +0.034 C 
BRANCH  17  18
ATOM     18  C   LIG    1        2.014  -3.890  -1.930  0.00  0.00    +0.156 C 
BRANCH  18  19
ATOM     19  O   LIG    1        3.325  -3.540  -2.376  0.00  0.00    -0.395 OA
ATOM     20  H   LIG    1        3.999  -4.205  -2.179  0.00  0.00    +0.209 HD
ENDBRANCH  18  19
ENDBRANCH  17  18
ENDBRANCH  16  17
ENDBRANCH   6  16
TORSDOF 7
