REMARK  Name = ZINC40163695
REMARK                            x       y       z     vdW  Elec       q    Type
REMARK                         _______ _______ _______ _____ _____    ______ ____
ROOT
ATOM      1  C   LIG    1       -0.018   1.503   0.010  0.00  0.00    +0.084 C 
ATOM      2  C   LIG    1        0.002  -0.004   0.002  0.00  0.00    +0.081 A 
ATOM      3  N   LIG    1        0.008  -0.785  -1.100  0.00  0.00    -0.350 N 
ATOM      4  C   LIG    1        0.028  -2.086  -0.674  0.00  0.00    +0.105 A 
ATOM      5  C   LIG    1        0.033  -2.055   0.673  0.00  0.00    +0.031 A 
ATOM      6  H   LIG    1        0.001  -0.481  -2.021  0.00  0.00    +0.166 HD
ATOM      7  N   LIG    1        0.022  -0.770   1.058  0.00  0.00    -0.347 N 
ATOM      8  H   LIG    1        0.027  -0.460   1.977  0.00  0.00    +0.167 HD
ENDROOT
BRANCH   5   9
ATOM      9  C   LIG    1        0.052  -3.253   1.586  0.00  0.00    +0.035 C 
BRANCH   9  10
ATOM     10  C   LIG    1        1.496  -3.716   1.790  0.00  0.00    -0.080 C 
BRANCH  10  11
ATOM     11  N   LIG    1        1.515  -4.885   2.680  0.00  0.00    +0.378 N 
ATOM     12  H   LIG    1        2.467  -5.190   2.814  0.00  0.00    -0.090 HD
ATOM     13  H   LIG    1        0.977  -5.632   2.266  0.00  0.00    -0.090 HD
ATOM     14  H   LIG    1        1.113  -4.635   3.571  0.00  0.00    -0.090 HD
ENDBRANCH  10  11
ENDBRANCH   9  10
ENDBRANCH   5   9
TORSDOF 3
