REMARK  Name = ZINC16037307
REMARK                            x       y       z     vdW  Elec       q    Type
REMARK                         _______ _______ _______ _____ _____    ______ ____
ROOT
ATOM      1  C   LIG    1        1.787   3.905   0.416  0.00  0.00    +0.028 C 
ATOM      2  C   LIG    1        1.411   2.660  -0.391  0.00  0.00    +0.081 C 
ATOM      3  C   LIG    1        2.453   1.557  -0.160  0.00  0.00    +0.049 C 
ATOM      4  C   LIG    1        2.019   0.302  -0.918  0.00  0.00    +0.107 C 
ATOM      5  C   LIG    1        1.712   0.634  -2.354  0.00  0.00    -0.006 A 
ATOM      6  C   LIG    1        1.723  -0.384  -3.293  0.00  0.00    +0.007 A 
ATOM      7  C   LIG    1        1.441  -0.113  -4.618  0.00  0.00    +0.000 A 
ATOM      8  C   LIG    1        1.145   1.178  -5.016  0.00  0.00    +0.002 A 
ATOM      9  C   LIG    1        1.134   2.199  -4.086  0.00  0.00    +0.024 A 
ATOM     10  C   LIG    1        1.419   1.928  -2.752  0.00  0.00    +0.042 A 
ATOM     11  N   LIG    1        1.406   2.979  -1.825  0.00  0.00    -0.264 N 
ATOM     12  C   LIG    1        1.388   4.260  -2.242  0.00  0.00    +0.251 C 
ATOM     13  O   LIG    1        1.907   5.127  -1.566  0.00  0.00    -0.270 OA
ENDROOT
BRANCH  12  14
ATOM     14  C   LIG    1        0.738   4.612  -3.522  0.00  0.00    +0.037 A 
ATOM     15  C   LIG    1       -0.508   4.074  -3.847  0.00  0.00    +0.013 A 
ATOM     16  C   LIG    1       -1.112   4.411  -5.041  0.00  0.00    +0.001 A 
ATOM     17  C   LIG    1       -0.479   5.270  -5.921  0.00  0.00    +0.000 A 
ATOM     18  C   LIG    1        0.759   5.803  -5.608  0.00  0.00    +0.001 A 
ATOM     19  C   LIG    1        1.371   5.479  -4.415  0.00  0.00    +0.013 A 
ENDBRANCH  12  14
BRANCH   4  20
ATOM     20  N   LIG    1        0.823  -0.256  -0.283  0.00  0.00    -0.309 N 
ATOM     21  H   LIG    1        0.229   0.320   0.224  0.00  0.00    +0.149 HD
ATOM     22  C   LIG    1        0.546  -1.569  -0.405  0.00  0.00    +0.210 C 
ATOM     23  C   LIG    1       -0.685  -2.143   0.247  0.00  0.00    +0.109 C 
ATOM     24  O   LIG    1        1.288  -2.289  -1.039  0.00  0.00    -0.276 OA
ENDBRANCH   4  20
TORSDOF 2
