REMARK  Name = ZINC43706449
REMARK                            x       y       z     vdW  Elec       q    Type
REMARK                         _______ _______ _______ _____ _____    ______ ____
ROOT
ATOM      1  C   LIG    1        4.296 -10.553  -7.953  0.00  0.00    +0.027 C 
ENDROOT
BRANCH   1   2
ATOM      2  C   LIG    1        4.381 -12.050  -7.803  0.00  0.00    -0.029 C 
ATOM      3  C   LIG    1        3.945 -12.831  -8.761  0.00  0.00    -0.002 C 
BRANCH   3   4
ATOM      4  C   LIG    1        4.030 -14.328  -8.610  0.00  0.00    +0.126 C 
BRANCH   4   5
ATOM      5  O   LIG    1        4.834 -14.867  -9.661  0.00  0.00    -0.389 OA
ATOM      6  H   LIG    1        4.586 -14.559 -10.544  0.00  0.00    +0.210 HD
ENDBRANCH   4   5
BRANCH   4   7
ATOM      7  C   LIG    1        2.624 -14.928  -8.684  0.00  0.00    -0.010 C 
BRANCH   7   8
ATOM      8  N   LIG    1        2.708 -16.389  -8.551  0.00  0.00    +0.381 N 
ATOM      9  H   LIG    1        3.274 -16.763  -9.298  0.00  0.00    -0.082 HD
ATOM     10  C   LIG    1        1.359 -16.965  -8.622  0.00  0.00    -0.096 C 
ATOM     11  C   LIG    1        3.319 -16.728  -7.258  0.00  0.00    -0.096 C 
ENDBRANCH   7   8
BRANCH   7  12
ATOM     12  C   LIG    1        1.989 -14.575 -10.030  0.00  0.00    +0.143 C 
BRANCH  12  13
ATOM     13  O   LIG    1        2.812 -15.068 -11.090  0.00  0.00    -0.396 OA
ATOM     14  H   LIG    1        2.469 -14.880 -11.974  0.00  0.00    +0.209 HD
ENDBRANCH  12  13
ENDBRANCH   7  12
ENDBRANCH   4   7
ENDBRANCH   3   4
ENDBRANCH   1   2
BRANCH   1  15
ATOM     15  C   LIG    1        3.540  -9.963  -6.760  0.00  0.00    +0.004 C 
BRANCH  15  16
ATOM     16  C   LIG    1        3.454  -8.444  -6.913  0.00  0.00    +0.000 C 
BRANCH  16  17
ATOM     17  C   LIG    1        2.698  -7.854  -5.720  0.00  0.00    +0.000 C 
BRANCH  17  18
ATOM     18  C   LIG    1        2.612  -6.334  -5.872  0.00  0.00    +0.000 C 
BRANCH  18  19
ATOM     19  C   LIG    1        1.856  -5.744  -4.680  0.00  0.00    +0.000 C 
BRANCH  19  20
ATOM     20  C   LIG    1        1.770  -4.224  -4.832  0.00  0.00    -0.000 C 
BRANCH  20  21
ATOM     21  C   LIG    1        1.014  -3.634  -3.640  0.00  0.00    -0.000 C 
BRANCH  21  22
ATOM     22  C   LIG    1        0.928  -2.114  -3.792  0.00  0.00    -0.000 C 
BRANCH  22  23
ATOM     23  C   LIG    1        0.172  -1.524  -2.600  0.00  0.00    -0.000 C 
BRANCH  23  24
ATOM     24  C   LIG    1        0.086  -0.004  -2.752  0.00  0.00    -0.000 C 
BRANCH  24  26
ATOM     25  C   LIG    1       -0.756   2.106  -1.712  0.00  0.00    +0.004 C 
ATOM     26  C   LIG    1       -0.669   0.586  -1.560  0.00  0.00    -0.003 C 
ENDBRANCH  24  26
ENDBRANCH  23  24
ENDBRANCH  22  23
ENDBRANCH  21  22
ENDBRANCH  20  21
ENDBRANCH  19  20
ENDBRANCH  18  19
ENDBRANCH  17  18
ENDBRANCH  16  17
ENDBRANCH  15  16
ENDBRANCH   1  15
TORSDOF 18
