REMARK  Name = ZINC19795632
REMARK                            x       y       z     vdW  Elec       q    Type
REMARK                         _______ _______ _______ _____ _____    ______ ____
ROOT
ATOM      1  C   LIG    1       -1.792  -1.714   0.010  0.00  0.00    +0.090 A 
ATOM      2  C   LIG    1       -2.714  -2.297   0.837  0.00  0.00    +0.080 A 
ATOM      3  C   LIG    1       -3.035  -3.620   0.654  0.00  0.00    +0.142 A 
ATOM      4  C   LIG    1       -2.394  -4.319  -0.367  0.00  0.00    +0.117 A 
ATOM      5  S   LIG    1       -1.335  -3.063  -1.066  0.00  0.00    -0.062 S 
ENDROOT
BRANCH   1  10
ATOM      6  C   LIG    1        2.386   1.421  -0.012  0.00  0.00    +0.164 A 
ATOM      7  C   LIG    1        1.189   2.107   0.002  0.00  0.00    +0.079 A 
ATOM      8  C   LIG    1       -0.017   1.400   0.010  0.00  0.00    +0.093 A 
ATOM      9  C   LIG    1        0.002  -0.004   0.002  0.00  0.00    +0.078 A 
ATOM     10  N   LIG    1       -1.324  -0.404   0.013  0.00  0.00    -0.292 N 
ATOM     11  C   LIG    1       -2.086   0.728   0.026  0.00  0.00    +0.205 A 
ATOM     12  C   LIG    1        1.212  -0.683  -0.013  0.00  0.00    +0.077 A 
ATOM     13  N   LIG    1       -1.322   1.780   0.030  0.00  0.00    -0.235 NA
ATOM     14  C   LIG    1        2.399   0.025  -0.020  0.00  0.00    +0.164 A 
BRANCH   6  16
ATOM     15  C   LIG    1        3.476   3.535  -0.011  0.00  0.00    +0.277 C 
ATOM     16  O   LIG    1        3.560   2.109  -0.020  0.00  0.00    -0.491 OA
ENDBRANCH   6  16
BRANCH  14  17
ATOM     17  O   LIG    1        3.585  -0.641  -0.035  0.00  0.00    -0.491 OA
ATOM     18  C   LIG    1        3.527  -2.068  -0.042  0.00  0.00    +0.277 C 
ENDBRANCH  14  17
ENDBRANCH   1  10
BRANCH   4  19
ATOM     19  C   LIG    1       -2.543  -5.671  -0.750  0.00  0.00    +0.252 C 
ATOM     20  N   LIG    1       -1.823  -6.164  -1.777  0.00  0.00    -0.325 N 
ATOM     21  H   LIG    1       -1.120  -5.514  -2.318  0.00  0.00    +0.145 HD
ATOM     22  H   LIG    1       -1.939  -7.216  -2.075  0.00  0.00    +0.145 HD
ATOM     23  O   LIG    1       -3.322  -6.391  -0.151  0.00  0.00    -0.270 OA
ENDBRANCH   4  19
BRANCH   3  24
ATOM     24  O   LIG    1       -3.948  -4.232   1.451  0.00  0.00    -0.486 OA
BRANCH  24  25
ATOM     25  C   LIG    1       -4.554  -3.437   2.472  0.00  0.00    +0.264 C 
BRANCH  25  26
ATOM     26  C   LIG    1       -5.533  -4.279   3.250  0.00  0.00    -0.010 A 
ATOM     27  C   LIG    1       -6.854  -4.350   2.850  0.00  0.00    +0.009 A 
ATOM     28  C   LIG    1       -7.751  -5.126   3.561  0.00  0.00    +0.027 A 
ATOM     29  C   LIG    1       -7.328  -5.824   4.676  0.00  0.00    +0.088 A 
ATOM     30  C   LIG    1       -6.008  -5.749   5.079  0.00  0.00    +0.027 A 
ATOM     31  C   LIG    1       -5.110  -4.976   4.366  0.00  0.00    +0.009 A 
BRANCH  29  32
ATOM     32  S   LIG    1       -8.472  -6.809   5.585  0.00  0.00    -0.006 S 
ATOM     33  C   LIG    1       -9.161  -5.690   6.835  0.00  0.00    +0.200 C 
ATOM     34  O   LIG    1       -7.675  -7.808   6.207  0.00  0.00    -0.170 OA
ATOM     35  O   LIG    1       -9.473  -7.165   4.641  0.00  0.00    -0.170 OA
ENDBRANCH  29  32
ENDBRANCH  25  26
ENDBRANCH  24  25
ENDBRANCH   3  24
TORSDOF 8
