REMARK  Name = ZINC16697102
REMARK                            x       y       z     vdW  Elec       q    Type
REMARK                         _______ _______ _______ _____ _____    ______ ____
ROOT
ATOM      1  C   LIG    1       -0.460  -5.298   4.411  0.00  0.00    +0.123 A 
ATOM      2  C   LIG    1       -0.993  -6.344   3.653  0.00  0.00    +0.046 A 
ATOM      3  C   LIG    1       -1.020  -7.616   4.139  0.00  0.00    +0.017 A 
ATOM      4  C   LIG    1       -0.507  -7.882   5.414  0.00  0.00    +0.041 A 
ATOM      5  C   LIG    1        0.035  -6.829   6.191  0.00  0.00    +0.079 A 
ATOM      6  N   LIG    1        0.520  -7.110   7.410  0.00  0.00    -0.235 NA
ATOM      7  C   LIG    1        0.491  -8.338   7.871  0.00  0.00    +0.223 A 
ATOM      8  N   LIG    1       -0.006  -9.353   7.182  0.00  0.00    -0.220 NA
ATOM      9  C   LIG    1       -0.511  -9.185   5.966  0.00  0.00    +0.135 A 
ATOM     10  C   LIG    1        0.057  -5.531   5.668  0.00  0.00    +0.074 A 
ENDROOT
BRANCH   9  11
ATOM     11  N   LIG    1       -1.025 -10.252   5.260  0.00  0.00    -0.282 N 
ATOM     12  H   LIG    1       -1.392 -10.115   4.372  0.00  0.00    +0.155 HD
BRANCH  11  13
ATOM     13  C   LIG    1       -1.019 -11.534   5.824  0.00  0.00    +0.146 A 
ATOM     14  C   LIG    1       -0.528 -11.874   7.095  0.00  0.00    +0.068 A 
ATOM     15  C   LIG    1       -0.703 -13.204   7.266  0.00  0.00    +0.047 A 
ATOM     16  N   LIG    1       -1.282 -13.692   6.149  0.00  0.00    -0.279 N 
ATOM     17  H   LIG    1       -1.525 -14.618   5.991  0.00  0.00    +0.189 HD
ATOM     18  N   LIG    1       -1.476 -12.627   5.260  0.00  0.00    -0.158 NA
BRANCH  15  19
ATOM     19  C   LIG    1       -0.319 -14.000   8.486  0.00  0.00    +0.151 C 
BRANCH  19  20
ATOM     20  C   LIG    1       -1.427 -13.922   9.506  0.00  0.00    +0.223 C 
ATOM     21  N   LIG    1       -1.303 -14.562  10.685  0.00  0.00    -0.285 N 
ATOM     22  H   LIG    1       -0.535 -15.131  10.850  0.00  0.00    +0.155 HD
ATOM     23  O   LIG    1       -2.429 -13.283   9.264  0.00  0.00    -0.275 OA
BRANCH  21  24
ATOM     24  C   LIG    1       -2.283 -14.406  11.672  0.00  0.00    +0.036 A 
ATOM     25  C   LIG    1       -1.922 -14.382  13.013  0.00  0.00    +0.023 A 
ATOM     26  C   LIG    1       -2.890 -14.227  13.985  0.00  0.00    +0.005 A 
ATOM     27  C   LIG    1       -4.219 -14.098  13.626  0.00  0.00    +0.038 A 
ATOM     28  C   LIG    1       -4.583 -14.121  12.290  0.00  0.00    +0.125 A 
ATOM     29  F   LIG    1       -5.883 -13.995  11.942  0.00  0.00    -0.205 F 
ATOM     30  C   LIG    1       -3.616 -14.270  11.312  0.00  0.00    +0.061 A 
ENDBRANCH  21  24
ENDBRANCH  19  20
ENDBRANCH  15  19
ENDBRANCH  11  13
ENDBRANCH   9  11
BRANCH   1  31
ATOM     31  O   LIG    1       -0.445  -4.039   3.902  0.00  0.00    -0.492 OA
BRANCH  31  32
ATOM     32  C   LIG    1       -0.995  -3.861   2.595  0.00  0.00    +0.227 C 
BRANCH  32  33
ATOM     33  C   LIG    1       -0.891  -2.389   2.194  0.00  0.00    +0.022 C 
BRANCH  33  34
ATOM     34  C   LIG    1       -1.480  -2.199   0.795  0.00  0.00    -0.075 C 
BRANCH  34  35
ATOM     35  N   LIG    1       -1.381  -0.784   0.409  0.00  0.00    +0.381 N 
ATOM     36  H   LIG    1       -1.823  -0.212   1.113  0.00  0.00    -0.082 HD
BRANCH  35  38
ATOM     37  C   LIG    1        0.141   1.095   0.025  0.00  0.00    -0.017 C 
ATOM     38  C   LIG    1        0.034  -0.408   0.290  0.00  0.00    -0.082 C 
ENDBRANCH  35  38
BRANCH  35  39
ATOM     39  C   LIG    1       -2.052  -0.580  -0.881  0.00  0.00    -0.051 C 
BRANCH  39  40
ATOM     40  C   LIG    1       -3.554  -0.825  -0.719  0.00  0.00    +0.137 C 
BRANCH  40  41
ATOM     41  O   LIG    1       -4.105   0.161   0.156  0.00  0.00    -0.397 OA
ATOM     42  H   LIG    1       -5.039   0.023   0.366  0.00  0.00    +0.209 HD
ENDBRANCH  40  41
ENDBRANCH  39  40
ENDBRANCH  35  39
ENDBRANCH  34  35
ENDBRANCH  33  34
ENDBRANCH  32  33
ENDBRANCH  31  32
ENDBRANCH   1  31
TORSDOF 14
