REMARK  Name = ZINC43197966
REMARK                            x       y       z     vdW  Elec       q    Type
REMARK                         _______ _______ _______ _____ _____    ______ ____
ROOT
ATOM      1  C   LIG    1       -9.174  -2.472  -0.814  0.00  0.00    +0.142 C 
ATOM      2  C   LIG    1      -10.045  -2.224  -1.899  0.00  0.00    +0.027 C 
ATOM      3  C   LIG    1       -9.643  -1.544  -3.053  0.00  0.00    +0.007 C 
ATOM      4  C   LIG    1      -10.541  -1.342  -4.060  0.00  0.00    +0.000 C 
ATOM      5  C   LIG    1      -11.852  -1.802  -3.956  0.00  0.00    +0.000 C 
ATOM      6  C   LIG    1      -12.277  -2.468  -2.845  0.00  0.00    +0.005 C 
ATOM      7  C   LIG    1      -11.380  -2.693  -1.792  0.00  0.00    +0.013 C 
ATOM      8  C   LIG    1      -11.743  -3.373  -0.615  0.00  0.00    +0.077 C 
ATOM      9  N   LIG    1      -10.845  -3.543   0.327  0.00  0.00    -0.252 NA
ATOM     10  H   LIG    1      -10.782  -4.551   0.473  0.00  0.00    +0.141 HD
ATOM     11  N   LIG    1       -9.636  -3.128   0.235  0.00  0.00    -0.239 NA
ATOM     12  H   LIG    1       -9.033  -3.299   0.975  0.00  0.00    +0.142 HD
ENDROOT
BRANCH   1  16
ATOM     13  N   LIG    1       -5.332  -1.759   0.153  0.00  0.00    -0.313 N 
ATOM     14  C   LIG    1       -6.383  -0.903   0.723  0.00  0.00    +0.122 C 
ATOM     15  C   LIG    1       -7.487  -0.720  -0.326  0.00  0.00    +0.105 C 
ATOM     16  N   LIG    1       -7.858  -2.041  -0.853  0.00  0.00    -0.283 NA
ATOM     17  C   LIG    1       -6.807  -2.897  -1.423  0.00  0.00    +0.105 C 
ATOM     18  C   LIG    1       -5.704  -3.078  -0.379  0.00  0.00    +0.122 C 
BRANCH  13  22
ATOM     19  C   LIG    1       -1.436  -0.449   0.045  0.00  0.00    +0.002 A 
ATOM     20  C   LIG    1       -1.693  -1.779  -0.259  0.00  0.00    +0.011 A 
ATOM     21  C   LIG    1       -3.003  -2.223  -0.224  0.00  0.00    +0.044 A 
ATOM     22  C   LIG    1       -4.012  -1.327   0.114  0.00  0.00    +0.121 A 
ATOM     23  N   LIG    1       -3.726  -0.066   0.399  0.00  0.00    -0.240 NA
ATOM     24  C   LIG    1       -2.485   0.384   0.378  0.00  0.00    +0.119 A 
BRANCH  19  26
ATOM     25  C   LIG    1       -0.042   1.564  -0.348  0.00  0.00    +0.046 C 
ATOM     26  C   LIG    1       -0.025   0.079   0.019  0.00  0.00    +0.087 C 
ATOM     27  C   LIG    1        0.612  -0.098   1.400  0.00  0.00    +0.046 C 
BRANCH  26  28
ATOM     28  O   LIG    1        0.736  -0.643  -0.951  0.00  0.00    -0.384 OA
ATOM     29  H   LIG    1        0.790  -1.594  -0.782  0.00  0.00    +0.211 HD
ENDBRANCH  26  28
ENDBRANCH  19  26
ENDBRANCH  13  22
ENDBRANCH   1  16
BRANCH   8  30
ATOM     30  C   LIG    1      -13.145  -3.897  -0.437  0.00  0.00    +0.055 C 
BRANCH  30  31
ATOM     31  C   LIG    1      -13.227  -5.304  -0.970  0.00  0.00    -0.046 A 
ATOM     32  C   LIG    1      -13.555  -5.523  -2.294  0.00  0.00    +0.004 A 
ATOM     33  C   LIG    1      -13.630  -6.814  -2.783  0.00  0.00    +0.000 A 
ATOM     34  C   LIG    1      -13.376  -7.886  -1.948  0.00  0.00    +0.000 A 
ATOM     35  C   LIG    1      -13.047  -7.666  -0.623  0.00  0.00    +0.000 A 
ATOM     36  C   LIG    1      -12.968  -6.375  -0.135  0.00  0.00    +0.004 A 
ENDBRANCH  30  31
ENDBRANCH   8  30
TORSDOF 6
