REMARK  Name = ZINC13808126
REMARK                            x       y       z     vdW  Elec       q    Type
REMARK                         _______ _______ _______ _____ _____    ______ ____
ROOT
ATOM      1  C   LIG    1       -7.048  -2.903   0.048  0.00  0.00    +0.086 A 
ATOM      2  C   LIG    1       -7.033  -4.301   0.051  0.00  0.00    +0.031 A 
ATOM      3  C   LIG    1       -8.222  -5.000   0.058  0.00  0.00    +0.031 A 
ATOM      4  C   LIG    1       -9.428  -4.321   0.062  0.00  0.00    +0.113 A 
ATOM      5  C   LIG    1       -9.450  -2.937   0.058  0.00  0.00    +0.031 A 
ATOM      6  C   LIG    1       -8.270  -2.224   0.057  0.00  0.00    +0.031 A 
ENDROOT
BRANCH   4   7
ATOM      7  S   LIG    1      -10.941  -5.222   0.071  0.00  0.00    +0.103 S 
ATOM      8  O   LIG    1      -10.655  -6.501  -0.478  0.00  0.00    -0.146 OA
ATOM      9  O   LIG    1      -11.930  -4.362  -0.478  0.00  0.00    -0.146 OA
BRANCH   7  10
ATOM     10  N   LIG    1      -11.355  -5.469   1.655  0.00  0.00    -0.076 NA
ATOM     11  C   LIG    1      -12.444  -6.117   1.950  0.00  0.00    +0.298 C 
BRANCH  11  12
ATOM     12  N   LIG    1      -13.250  -6.598   0.947  0.00  0.00    -0.312 N 
ATOM     13  H   LIG    1      -14.062  -7.081   1.167  0.00  0.00    +0.147 HD
ATOM     14  H   LIG    1      -13.008  -6.453   0.019  0.00  0.00    +0.147 HD
ENDBRANCH  11  12
BRANCH  11  15
ATOM     15  O   LIG    1      -12.781  -6.319   3.242  0.00  0.00    -0.468 OA
ATOM     16  C   LIG    1      -11.897  -5.792   4.233  0.00  0.00    +0.280 C 
ENDBRANCH  11  15
ENDBRANCH   7  10
ENDBRANCH   4   7
BRANCH   1  18
ATOM     17  N   LIG    1       -4.748  -2.833   0.032  0.00  0.00    -0.149 NA
ATOM     18  N   LIG    1       -5.874  -2.204   0.041  0.00  0.00    -0.149 NA
BRANCH  17  22
ATOM     19  C   LIG    1       -1.194  -0.717   0.010  0.00  0.00    +0.029 A 
ATOM     20  C   LIG    1       -1.173  -2.108   0.008  0.00  0.00    +0.025 A 
ATOM     21  C   LIG    1       -2.353  -2.816   0.015  0.00  0.00    +0.031 A 
ATOM     22  C   LIG    1       -3.576  -2.135   0.025  0.00  0.00    +0.086 A 
ATOM     23  C   LIG    1       -3.592  -0.736   0.027  0.00  0.00    +0.031 A 
ATOM     24  C   LIG    1       -2.408  -0.035   0.025  0.00  0.00    +0.025 A 
BRANCH  19  26
ATOM     25  C   LIG    1       -0.018   1.461   0.010  0.00  0.00    +0.129 C 
ATOM     26  N   LIG    1        0.002  -0.004   0.002  0.00  0.00    -0.336 N 
ATOM     27  C   LIG    1        1.281  -0.719  -0.014  0.00  0.00    +0.129 C 
ENDBRANCH  19  26
ENDBRANCH  17  22
ENDBRANCH   1  18
TORSDOF 7
