REMARK  Name = ZINC14962724
REMARK                            x       y       z     vdW  Elec       q    Type
REMARK                         _______ _______ _______ _____ _____    ______ ____
ROOT
ATOM      1  C   LIG    1       -2.848   0.483   0.915  0.00  0.00    +0.046 C 
ATOM      2  C   LIG    1       -2.306  -0.902   0.672  0.00  0.00    -0.014 C 
ATOM      3  C   LIG    1       -0.946  -1.096   0.529  0.00  0.00    +0.051 C 
ATOM      4  C   LIG    1        0.129  -0.092   0.696  0.00  0.00    +0.010 A 
ATOM      5  C   LIG    1        0.127   1.259   1.024  0.00  0.00    +0.034 A 
ATOM      6  C   LIG    1        1.327   1.947   1.106  0.00  0.00    +0.035 A 
ATOM      7  C   LIG    1        2.525   1.284   0.862  0.00  0.00    +0.025 A 
ATOM      8  C   LIG    1        2.531  -0.057   0.537  0.00  0.00    +0.026 A 
ATOM      9  C   LIG    1        1.336  -0.761   0.450  0.00  0.00    +0.042 A 
ATOM     10  N   LIG    1        1.066  -2.092   0.147  0.00  0.00    -0.281 N 
ATOM     11  H   LIG    1        1.744  -2.754  -0.061  0.00  0.00    +0.155 HD
ATOM     12  C   LIG    1       -0.254  -2.343   0.179  0.00  0.00    +0.249 C 
ATOM     13  O   LIG    1       -0.784  -3.417  -0.044  0.00  0.00    -0.270 OA
ENDROOT
BRANCH   6  14
ATOM     14  N   LIG    1        1.334   3.309   1.435  0.00  0.00    -0.270 N 
ATOM     15  H   LIG    1        0.624   3.888   1.118  0.00  0.00    +0.156 HD
ATOM     16  C   LIG    1        2.328   3.815   2.192  0.00  0.00    +0.301 C 
ATOM     17  N   LIG    1        2.287   5.104   2.584  0.00  0.00    -0.313 N 
ATOM     18  H   LIG    1        3.003   5.468   3.129  0.00  0.00    +0.146 HD
ATOM     19  H   LIG    1        1.542   5.667   2.323  0.00  0.00    +0.146 HD
ATOM     20  O   LIG    1        3.262   3.109   2.519  0.00  0.00    -0.253 OA
ENDBRANCH   6  14
BRANCH   2  21
ATOM     21  C   LIG    1       -3.188  -2.000   0.590  0.00  0.00    +0.043 A 
ATOM     22  C   LIG    1       -4.152  -2.207  -0.384  0.00  0.00    +0.027 A 
ATOM     23  C   LIG    1       -4.789  -3.411  -0.079  0.00  0.00    +0.019 A 
ATOM     24  C   LIG    1       -4.223  -3.911   1.047  0.00  0.00    +0.083 A 
ATOM     25  N   LIG    1       -3.245  -3.067   1.461  0.00  0.00    -0.361 N 
ATOM     26  H   LIG    1       -2.682  -3.192   2.241  0.00  0.00    +0.165 HD
ENDBRANCH   2  21
TORSDOF 2
