REMARK  Name = ZINC00006787
REMARK                            x       y       z     vdW  Elec       q    Type
REMARK                         _______ _______ _______ _____ _____    ______ ____
ROOT
ATOM      1  C   LIG    1       -1.262  -0.760   0.011  0.00  0.00    +0.008 C 
ATOM      2  C   LIG    1       -1.242  -2.103   0.003  0.00  0.00    +0.009 C 
ENDROOT
BRANCH   1   8
ATOM      3  C   LIG    1       -0.017   1.394   0.010  0.00  0.00    +0.011 A 
ATOM      4  C   LIG    1        1.168   2.096   0.002  0.00  0.00    +0.046 A 
ATOM      5  C   LIG    1        2.380   1.419  -0.013  0.00  0.00    +0.117 A 
ATOM      6  C   LIG    1        2.404   0.030  -0.021  0.00  0.00    +0.046 A 
ATOM      7  C   LIG    1        1.224  -0.682  -0.014  0.00  0.00    +0.011 A 
ATOM      8  C   LIG    1        0.002  -0.004   0.002  0.00  0.00    -0.025 A 
BRANCH   5   9
ATOM      9  O   LIG    1        3.546   2.116  -0.020  0.00  0.00    -0.507 OA
ATOM     10  H   LIG    1        3.892   2.313   0.861  0.00  0.00    +0.292 HD
ENDBRANCH   5   9
ENDBRANCH   1   8
BRANCH   2  11
ATOM     11  C   LIG    1       -2.507  -2.860   0.012  0.00  0.00    -0.018 A 
ATOM     12  C   LIG    1       -3.728  -2.182   0.022  0.00  0.00    +0.053 A 
ATOM     13  C   LIG    1       -4.914  -2.897   0.030  0.00  0.00    +0.121 A 
ATOM     14  C   LIG    1       -4.890  -4.285   0.028  0.00  0.00    +0.090 A 
ATOM     15  C   LIG    1       -3.679  -4.962   0.018  0.00  0.00    +0.121 A 
ATOM     16  C   LIG    1       -2.488  -4.256   0.004  0.00  0.00    +0.053 A 
BRANCH  13  17
ATOM     17  O   LIG    1       -6.103  -2.240   0.040  0.00  0.00    -0.507 OA
ATOM     18  H   LIG    1       -6.454  -2.048  -0.841  0.00  0.00    +0.292 HD
ENDBRANCH  13  17
BRANCH  15  19
ATOM     19  O   LIG    1       -3.662  -6.321   0.017  0.00  0.00    -0.507 OA
ATOM     20  H   LIG    1       -3.663  -6.714  -0.866  0.00  0.00    +0.292 HD
ENDBRANCH  15  19
ENDBRANCH   2  11
TORSDOF 5
