REMARK  Name = ZINC36338557
REMARK                            x       y       z     vdW  Elec       q    Type
REMARK                         _______ _______ _______ _____ _____    ______ ____
ROOT
ATOM      1  C   LIG    1       -0.017   1.363   0.009  0.00  0.00    +0.001 A 
ATOM      2  C   LIG    1        1.170   2.083   0.002  0.00  0.00    +0.002 A 
ATOM      3  C   LIG    1        2.385   1.435  -0.013  0.00  0.00    +0.026 A 
ATOM      4  C   LIG    1        2.426   0.043  -0.021  0.00  0.00    +0.047 A 
ATOM      5  C   LIG    1        1.222  -0.680  -0.013  0.00  0.00    +0.007 A 
ATOM      6  C   LIG    1        1.601  -2.102  -0.025  0.00  0.00    +0.010 A 
ATOM      7  C   LIG    1        2.954  -2.144  -0.038  0.00  0.00    +0.092 A 
ATOM      8  N   LIG    1        3.456  -0.871  -0.036  0.00  0.00    -0.360 N 
ATOM      9  H   LIG    1        4.400  -0.646  -0.045  0.00  0.00    +0.165 HD
ATOM     10  C   LIG    1        0.002  -0.004   0.002  0.00  0.00    +0.010 A 
ENDROOT
BRANCH   6  11
ATOM     11  C   LIG    1        0.678  -3.265  -0.021  0.00  0.00    +0.022 A 
ATOM     12  C   LIG    1        0.712  -4.423  -0.920  0.00  0.00    +0.049 A 
ATOM     13  C   LIG    1       -0.308  -5.214  -0.545  0.00  0.00    +0.195 A 
ATOM     14  O   LIG    1       -0.946  -4.643   0.487  0.00  0.00    -0.470 OA
ATOM     15  C   LIG    1       -0.367  -3.478   0.818  0.00  0.00    +0.203 A 
ENDBRANCH   6  11
TORSDOF 1
