REMARK  Name = ZINC72106265
REMARK                            x       y       z     vdW  Elec       q    Type
REMARK                         _______ _______ _______ _____ _____    ______ ____
ROOT
ATOM      1  N   LIG    1       -2.842  -4.059   0.009  0.00  0.00    -0.343 N 
ATOM      2  C   LIG    1       -2.943  -4.694  -1.165  0.00  0.00    +0.103 A 
ATOM      3  C   LIG    1       -2.914  -6.071  -1.260  0.00  0.00    +0.100 A 
ATOM      4  C   LIG    1       -2.768  -6.866  -0.031  0.00  0.00    +0.202 A 
ATOM      5  C   LIG    1       -2.660  -6.127   1.240  0.00  0.00    +0.050 A 
ATOM      6  C   LIG    1       -2.519  -6.798   2.455  0.00  0.00    +0.014 A 
ATOM      7  C   LIG    1       -2.405  -6.078   3.624  0.00  0.00    +0.004 A 
ATOM      8  C   LIG    1       -2.446  -4.692   3.600  0.00  0.00    +0.048 A 
ATOM      9  C   LIG    1       -2.590  -4.012   2.406  0.00  0.00    +0.144 A 
ATOM     10  O   LIG    1       -2.737  -8.084  -0.063  0.00  0.00    -0.286 OA
ATOM     11  C   LIG    1       -2.697  -4.723   1.208  0.00  0.00    +0.095 A 
ENDROOT
BRANCH   3  12
ATOM     12  C   LIG    1       -3.029  -6.732  -2.570  0.00  0.00    +0.250 C 
ATOM     13  N   LIG    1       -3.119  -8.075  -2.641  0.00  0.00    -0.306 N 
ATOM     14  H   LIG    1       -3.183  -8.600  -1.828  0.00  0.00    +0.150 HD
ATOM     15  O   LIG    1       -3.043  -6.067  -3.588  0.00  0.00    -0.270 OA
BRANCH  13  16
ATOM     16  C   LIG    1       -3.120  -8.741  -3.946  0.00  0.00    +0.036 C 
ATOM     17  C   LIG    1       -1.820  -8.418  -4.684  0.00  0.00    +0.029 C 
ATOM     18  C   LIG    1       -1.821  -9.113  -6.047  0.00  0.00    -0.008 C 
ATOM     19  C   LIG    1       -1.932 -10.626  -5.848  0.00  0.00    +0.007 C 
ATOM     20  C   LIG    1       -3.232 -10.949  -5.109  0.00  0.00    -0.008 C 
ATOM     21  C   LIG    1       -4.423 -10.455  -5.933  0.00  0.00    +0.007 C 
ATOM     22  C   LIG    1       -4.312  -8.942  -6.132  0.00  0.00    -0.008 C 
ATOM     23  C   LIG    1       -3.012  -8.619  -6.871  0.00  0.00    +0.007 C 
ATOM     24  C   LIG    1       -4.311  -8.247  -4.769  0.00  0.00    +0.029 C 
ATOM     25  C   LIG    1       -3.231 -10.254  -3.746  0.00  0.00    +0.029 C 
ENDBRANCH  13  16
ENDBRANCH   3  12
BRANCH   9  26
ATOM     26  O   LIG    1       -2.628  -2.653   2.397  0.00  0.00    -0.493 OA
ATOM     27  C   LIG    1       -2.514  -1.992   3.658  0.00  0.00    +0.277 C 
ENDBRANCH   9  26
BRANCH   1  28
ATOM     28  C   LIG    1       -2.881  -2.594   0.019  0.00  0.00    +0.122 C 
BRANCH  28  29
ATOM     29  C   LIG    1       -4.296  -2.124   0.362  0.00  0.00    +0.022 C 
BRANCH  29  30
ATOM     30  C   LIG    1       -4.337  -0.595   0.373  0.00  0.00    +0.001 C 
BRANCH  30  32
ATOM     31  C   LIG    1       -5.793   1.404   0.726  0.00  0.00    +0.004 C 
ATOM     32  C   LIG    1       -5.752  -0.125   0.716  0.00  0.00    -0.003 C 
ENDBRANCH  30  32
ENDBRANCH  29  30
ENDBRANCH  28  29
ENDBRANCH   1  28
TORSDOF 7
