REMARK  Name = ZINC29131732
REMARK                            x       y       z     vdW  Elec       q    Type
REMARK                         _______ _______ _______ _____ _____    ______ ____
ROOT
ATOM      1  C   LIG    1       -1.255  -0.781   0.010  0.00  0.00    +0.065 A 
ATOM      2  C   LIG    1       -2.502  -0.276   0.020  0.00  0.00    +0.111 A 
ATOM      3  N   LIG    1       -3.386  -1.335   0.025  0.00  0.00    -0.340 N 
ATOM      4  C   LIG    1       -2.677  -2.481   0.019  0.00  0.00    +0.156 A 
ATOM      5  S   LIG    1       -3.331  -4.062   0.022  0.00  0.00    -0.013 S 
ATOM      6  H   LIG    1       -4.353  -1.267   0.032  0.00  0.00    +0.167 HD
ATOM      7  N   LIG    1       -1.366  -2.170   0.004  0.00  0.00    -0.334 N 
ATOM      8  H   LIG    1       -0.630  -2.802  -0.007  0.00  0.00    +0.168 HD
ENDROOT
BRANCH   1  14
ATOM      9  C   LIG    1       -0.017   1.396   0.010  0.00  0.00    +0.029 A 
ATOM     10  C   LIG    1        1.180   2.081   0.002  0.00  0.00    +0.111 A 
ATOM     11  N   LIG    1        2.330   1.434  -0.013  0.00  0.00    -0.263 NA
ATOM     12  C   LIG    1        2.393   0.116  -0.021  0.00  0.00    +0.111 A 
ATOM     13  C   LIG    1        1.246  -0.648  -0.014  0.00  0.00    +0.029 A 
ATOM     14  C   LIG    1        0.002  -0.004   0.002  0.00  0.00    +0.003 A 
ENDBRANCH   1  14
TORSDOF 1
