REMARK  Name = ZINC13819658
REMARK                            x       y       z     vdW  Elec       q    Type
REMARK                         _______ _______ _______ _____ _____    ______ ____
ROOT
ATOM      1  C   LIG    1       -0.149   1.182   2.380  0.00  0.00    +0.141 A 
ATOM      2  C   LIG    1       -0.742   1.591   3.570  0.00  0.00    +0.081 A 
ATOM      3  C   LIG    1       -0.162   1.194   4.764  0.00  0.00    +0.143 A 
ATOM      4  C   LIG    1        0.977   0.411   4.734  0.00  0.00    +0.143 A 
ATOM      5  N   LIG    1        1.514   0.041   3.589  0.00  0.00    -0.257 NA
ATOM      6  C   LIG    1        0.991   0.393   2.431  0.00  0.00    +0.156 A 
ENDROOT
BRANCH   3   7
ATOM      7  N   LIG    1       -0.756   1.603   6.057  0.00  0.00    +0.008 N 
ATOM      8  O   LIG    1       -1.760   2.292   6.075  0.00  0.00    -0.130 OA
BRANCH   7   9
ATOM      9  O   LIG    1       -0.240   1.250   7.103  0.00  0.00    -0.396 OA
ATOM     10  H   LIG    1        0.532   0.720   7.089  0.00  0.00    +0.329 HD
ENDBRANCH   7   9
ENDBRANCH   3   7
BRANCH   1  11
ATOM     11  O   LIG    1       -0.682   1.547   1.184  0.00  0.00    -0.492 OA
BRANCH  11  12
ATOM     12  C   LIG    1       -0.013   1.086   0.008  0.00  0.00    +0.210 C 
BRANCH  12  13
ATOM     13  C   LIG    1       -0.753   1.593  -1.232  0.00  0.00    -0.041 C 
BRANCH  13  15
ATOM     14  C   LIG    1       -1.371   3.582  -2.466  0.00  0.00    -0.100 C 
ATOM     15  N   LIG    1       -0.664   3.064  -1.279  0.00  0.00    +0.379 N 
ATOM     16  H   LIG    1        0.323   3.343  -1.324  0.00  0.00    -0.086 HD
ATOM     17  H   LIG    1       -1.093   3.457  -0.432  0.00  0.00    -0.086 HD
ENDBRANCH  13  15
ENDBRANCH  12  13
ENDBRANCH  11  12
ENDBRANCH   1  11
TORSDOF 6
