REMARK  Name = ZINC52962012
REMARK                            x       y       z     vdW  Elec       q    Type
REMARK                         _______ _______ _______ _____ _____    ______ ____
ROOT
ATOM      1  N   LIG    1       -0.158  -5.308  -7.842  0.00  0.00    -0.340 N 
ATOM      2  H   LIG    1       -1.079  -5.009  -7.781  0.00  0.00    +0.146 HD
ENDROOT
BRANCH   1   3
ATOM      3  C   LIG    1        0.138  -6.651  -7.752  0.00  0.00    +0.079 C 
ATOM      4  C   LIG    1        0.328  -7.273  -6.502  0.00  0.00    +0.026 C 
ATOM      5  C   LIG    1        0.222  -6.540  -5.307  0.00  0.00    +0.007 C 
ATOM      6  C   LIG    1        0.411  -7.166  -4.114  0.00  0.00    +0.000 C 
ATOM      7  C   LIG    1        0.709  -8.528  -4.060  0.00  0.00    +0.002 C 
ATOM      8  C   LIG    1        0.820  -9.269  -5.194  0.00  0.00    +0.019 C 
ATOM      9  C   LIG    1        0.631  -8.659  -6.451  0.00  0.00    +0.059 C 
ATOM     10  N   LIG    1        0.736  -9.374  -7.570  0.00  0.00    -0.310 NA
ATOM     11  H   LIG    1        0.943 -10.320  -7.507  0.00  0.00    +0.122 HD
ATOM     12  C   LIG    1        0.564  -8.829  -8.773  0.00  0.00    +0.059 C 
ATOM     13  C   LIG    1        0.683  -9.616  -9.937  0.00  0.00    +0.019 C 
ATOM     14  C   LIG    1        0.490  -9.050 -11.158  0.00  0.00    +0.002 C 
ATOM     15  C   LIG    1        0.190  -7.694 -11.285  0.00  0.00    +0.000 C 
ATOM     16  C   LIG    1        0.072  -6.899 -10.187  0.00  0.00    +0.007 C 
ATOM     17  C   LIG    1        0.254  -7.450  -8.907  0.00  0.00    +0.026 C 
ENDBRANCH   1   3
BRANCH   1  21
ATOM     18  C   LIG    1        2.904  -2.530  -8.372  0.00  0.00    +0.030 A 
ATOM     19  C   LIG    1        1.579  -2.116  -8.402  0.00  0.00    +0.025 A 
ATOM     20  C   LIG    1        0.565  -3.036  -8.226  0.00  0.00    +0.025 A 
ATOM     21  C   LIG    1        0.870  -4.375  -8.020  0.00  0.00    +0.027 A 
ATOM     22  C   LIG    1        2.196  -4.789  -7.991  0.00  0.00    +0.025 A 
ATOM     23  C   LIG    1        3.209  -3.870  -8.171  0.00  0.00    +0.025 A 
BRANCH  18  28
ATOM     24  N   LIG    1        5.828   0.369  -7.957  0.00  0.00    +0.382 N 
ATOM     25  H   LIG    1        6.161   0.433  -8.907  0.00  0.00    -0.082 HD
ATOM     26  C   LIG    1        4.400   0.710  -7.918  0.00  0.00    -0.060 C 
ATOM     27  C   LIG    1        3.633  -0.197  -8.887  0.00  0.00    +0.086 C 
ATOM     28  N   LIG    1        3.932  -1.597  -8.550  0.00  0.00    -0.333 N 
ATOM     29  C   LIG    1        5.343  -1.990  -8.407  0.00  0.00    +0.086 C 
ATOM     30  C   LIG    1        6.029  -0.999  -7.461  0.00  0.00    -0.060 C 
BRANCH  24  32
ATOM     31  C   LIG    1        6.470   2.718  -7.700  0.00  0.00    -0.017 C 
ATOM     32  C   LIG    1        6.577   1.309  -7.113  0.00  0.00    -0.082 C 
ENDBRANCH  24  32
ENDBRANCH  18  28
ENDBRANCH   1  21
TORSDOF 4
