REMARK  Name = ZINC13831209
REMARK                            x       y       z     vdW  Elec       q    Type
REMARK                         _______ _______ _______ _____ _____    ______ ____
ROOT
ATOM      1  C   LIG    1        4.071  -0.622  -0.050  0.00  0.00    +0.133 C 
ATOM      2  C   LIG    1        4.223  -1.478   1.221  0.00  0.00    +0.145 C 
ATOM      3  N   LIG    1        4.056  -2.861   0.754  0.00  0.00    -0.196 N 
ATOM      4  C   LIG    1        4.112  -3.959   1.534  0.00  0.00    +0.323 C 
ATOM      5  N   LIG    1        3.943  -5.181   0.990  0.00  0.00    -0.268 N 
ATOM      6  H   LIG    1        3.855  -5.276   0.029  0.00  0.00    +0.156 HD
ATOM      7  O   LIG    1        4.316  -3.848   2.727  0.00  0.00    -0.251 OA
ATOM      8  N   LIG    1        3.830  -2.860  -0.621  0.00  0.00    -0.229 N 
ATOM      9  H   LIG    1        3.691  -3.667  -1.141  0.00  0.00    +0.173 HD
ATOM     10  C   LIG    1        3.825  -1.626  -1.153  0.00  0.00    +0.239 C 
ATOM     11  O   LIG    1        3.651  -1.360  -2.324  0.00  0.00    -0.274 OA
ENDROOT
BRANCH   5  12
ATOM     12  C   LIG    1        3.892  -6.312   1.813  0.00  0.00    +0.035 A 
ATOM     13  C   LIG    1        4.405  -7.522   1.364  0.00  0.00    +0.024 A 
ATOM     14  C   LIG    1        4.354  -8.637   2.178  0.00  0.00    +0.017 A 
ATOM     15  C   LIG    1        3.792  -8.549   3.439  0.00  0.00    +0.018 A 
ATOM     16 BR   LIG    1        3.724 -10.077   4.551  0.00  0.00    -0.050 Br
ATOM     17  C   LIG    1        3.280  -7.345   3.889  0.00  0.00    +0.017 A 
ATOM     18  C   LIG    1        3.334  -6.225   3.081  0.00  0.00    +0.024 A 
ENDBRANCH   5  12
BRANCH   1  22
ATOM     19  C   LIG    1        0.742   2.029   0.324  0.00  0.00    +0.000 A 
ATOM     20  C   LIG    1        2.024   2.494   0.548  0.00  0.00    +0.000 A 
ATOM     21  C   LIG    1        3.102   1.636   0.427  0.00  0.00    +0.004 A 
ATOM     22  C   LIG    1        2.896   0.313   0.083  0.00  0.00    -0.033 A 
ATOM     23  C   LIG    1        1.614  -0.152  -0.139  0.00  0.00    +0.004 A 
ATOM     24  C   LIG    1        0.537   0.706  -0.020  0.00  0.00    +0.000 A 
ENDBRANCH   1  22
BRANCH   2  25
ATOM     25  C   LIG    1        3.156  -1.126   2.224  0.00  0.00    -0.024 A 
ATOM     26  C   LIG    1        1.932  -1.767   2.185  0.00  0.00    +0.005 A 
ATOM     27  C   LIG    1        0.952  -1.444   3.106  0.00  0.00    +0.000 A 
ATOM     28  C   LIG    1        1.197  -0.480   4.066  0.00  0.00    +0.000 A 
ATOM     29  C   LIG    1        2.422   0.161   4.106  0.00  0.00    +0.000 A 
ATOM     30  C   LIG    1        3.402  -0.166   3.188  0.00  0.00    +0.005 A 
ENDBRANCH   2  25
TORSDOF 3
