REMARK  Name = ZINC14951244
REMARK                            x       y       z     vdW  Elec       q    Type
REMARK                         _______ _______ _______ _____ _____    ______ ____
ROOT
ATOM      1  C   LIG    1        3.767  -2.154  -0.699  0.00  0.00    +0.392 C 
ATOM      2  N   LIG    1        2.621  -2.772  -0.679  0.00  0.00    -0.129 NA
ATOM      3  H   LIG    1        2.514  -3.579  -0.152  0.00  0.00    +0.306 HD
ENDROOT
BRANCH   1   4
ATOM      4  N   LIG    1        3.890  -0.954  -1.362  0.00  0.00    -0.243 N 
ATOM      5  H   LIG    1        4.761  -0.538  -1.454  0.00  0.00    +0.265 HD
BRANCH   4   9
ATOM      6  C   LIG    1        0.521   0.891  -2.974  0.00  0.00    +0.000 A 
ATOM      7  C   LIG    1        0.389   0.033  -1.897  0.00  0.00    +0.003 A 
ATOM      8  C   LIG    1        1.504  -0.581  -1.361  0.00  0.00    +0.042 A 
ATOM      9  C   LIG    1        2.759  -0.335  -1.903  0.00  0.00    +0.100 A 
ATOM     10  C   LIG    1        2.888   0.527  -2.985  0.00  0.00    +0.042 A 
ATOM     11  C   LIG    1        1.769   1.138  -3.516  0.00  0.00    +0.003 A 
ENDBRANCH   4   9
ENDBRANCH   1   4
BRANCH   1  12
ATOM     12  N   LIG    1        4.858  -2.702  -0.055  0.00  0.00    -0.189 N 
ATOM     13  H   LIG    1        4.798  -3.590   0.332  0.00  0.00    +0.271 HD
BRANCH  12  14
ATOM     14  C   LIG    1        6.029  -1.991   0.037  0.00  0.00    +0.350 C 
ATOM     15  N   LIG    1        7.183  -2.630   0.220  0.00  0.00    -0.291 N 
ATOM     16  H   LIG    1        8.010  -2.127   0.286  0.00  0.00    +0.255 HD
ATOM     17  H   LIG    1        7.196  -3.597   0.288  0.00  0.00    +0.255 HD
BRANCH  14  18
ATOM     18  N   LIG    1        6.011  -0.663  -0.056  0.00  0.00    -0.291 N 
ATOM     19  H   LIG    1        6.836  -0.176  -0.207  0.00  0.00    +0.255 HD
ATOM     20  H   LIG    1        5.172  -0.183   0.028  0.00  0.00    +0.255 HD
ENDBRANCH  14  18
ENDBRANCH  12  14
ENDBRANCH   1  12
TORSDOF 5
