REMARK  Name = ZINC14972122
REMARK                            x       y       z     vdW  Elec       q    Type
REMARK                         _______ _______ _______ _____ _____    ______ ____
ROOT
ATOM      1  C   LIG    1       -0.017   1.379   0.010  0.00  0.00    +0.006 A 
ATOM      2  C   LIG    1        1.192   2.060   0.002  0.00  0.00    +0.039 A 
ATOM      3  C   LIG    1        2.381   1.334  -0.013  0.00  0.00    +0.142 A 
ATOM      4  N   LIG    1        2.362   0.005  -0.021  0.00  0.00    -0.222 NA
ATOM      5  C   LIG    1        1.227  -0.670  -0.013  0.00  0.00    +0.120 A 
ATOM      6  C   LIG    1        0.002  -0.004   0.002  0.00  0.00    +0.043 A 
ENDROOT
BRANCH   3   7
ATOM      7  C   LIG    1        3.634   2.026  -0.022  0.00  0.00    +0.119 C 
ATOM      8  N   LIG    1        4.629   2.575  -0.029  0.00  0.00    -0.189 NA
ENDBRANCH   3   7
BRANCH   5   9
ATOM      9  N   LIG    1        1.253  -2.060  -0.021  0.00  0.00    -0.326 N 
ATOM     10  H   LIG    1        2.102  -2.529  -0.032  0.00  0.00    +0.148 HD
BRANCH   9  11
ATOM     11  C   LIG    1       -0.001  -2.816  -0.013  0.00  0.00    +0.072 C 
ATOM     12  C   LIG    1       -0.489  -2.980   1.428  0.00  0.00    +0.022 C 
ATOM     13  C   LIG    1       -1.799  -3.770   1.436  0.00  0.00    +0.002 C 
ATOM     14  C   LIG    1       -1.567  -5.149   0.817  0.00  0.00    +0.000 C 
ATOM     15  C   LIG    1       -1.079  -4.986  -0.624  0.00  0.00    +0.002 C 
ATOM     16  C   LIG    1        0.231  -4.196  -0.632  0.00  0.00    +0.022 C 
ENDBRANCH   9  11
ENDBRANCH   5   9
TORSDOF 3
