REMARK  Name = ZINC00048204
REMARK                            x       y       z     vdW  Elec       q    Type
REMARK                         _______ _______ _______ _____ _____    ______ ____
ROOT
ATOM      1  N   LIG    1        0.025  -0.014   2.417  0.00  0.00    -0.285 N 
ATOM      2  H   LIG    1        0.078   0.955   2.424  0.00  0.00    +0.155 HD
ATOM      3  C   LIG    1       -0.056  -0.693   3.578  0.00  0.00    +0.222 C 
ATOM      4  O   LIG    1       -0.040  -1.906   3.574  0.00  0.00    -0.275 OA
ENDROOT
BRANCH   1  12
ATOM      5  C   LIG    1       -1.265   1.183   0.181  0.00  0.00    +0.045 C 
ATOM      6  C   LIG    1       -0.584  -0.158   0.084  0.00  0.00    -0.029 A 
ATOM      7  C   LIG    1       -0.569  -0.840  -1.117  0.00  0.00    +0.006 A 
ATOM      8  C   LIG    1        0.055  -2.070  -1.207  0.00  0.00    +0.020 A 
ATOM      9  C   LIG    1        0.667  -2.622  -0.095  0.00  0.00    +0.043 A 
ATOM     10 CL   LIG    1        1.449  -4.168  -0.213  0.00  0.00    -0.083 Cl
ATOM     11  C   LIG    1        0.655  -1.944   1.109  0.00  0.00    +0.043 A 
ATOM     12  C   LIG    1        0.034  -0.706   1.201  0.00  0.00    +0.038 A 
ENDBRANCH   1  12
BRANCH   3  13
ATOM     13  C   LIG    1       -0.168   0.054   4.882  0.00  0.00    +0.101 C 
ATOM     14  C   LIG    1        1.107   0.885   5.154  0.00  0.00    +0.110 C 
ATOM     15  C   LIG    1        1.309   0.777   6.649  0.00  0.00    +0.217 C 
ATOM     16  N   LIG    1        0.579  -0.239   7.142  0.00  0.00    -0.298 N 
ATOM     17  O   LIG    1        2.025   1.501   7.308  0.00  0.00    -0.276 OA
ATOM     18  C   LIG    1       -0.170  -0.922   6.080  0.00  0.00    +0.121 C 
BRANCH  16  19
ATOM     19  C   LIG    1        0.535  -0.615   8.557  0.00  0.00    +0.076 C 
ATOM     20  C   LIG    1        0.018   0.564   9.383  0.00  0.00    +0.022 C 
ATOM     21  C   LIG    1       -0.028   0.171  10.861  0.00  0.00    +0.002 C 
ATOM     22  C   LIG    1        1.379  -0.204  11.332  0.00  0.00    +0.000 C 
ATOM     23  C   LIG    1        1.897  -1.383  10.506  0.00  0.00    +0.002 C 
ATOM     24  C   LIG    1        1.942  -0.990   9.028  0.00  0.00    +0.022 C 
ENDBRANCH  16  19
ENDBRANCH   3  13
TORSDOF 3
