REMARK  Name = ZINC71281387
REMARK                            x       y       z     vdW  Elec       q    Type
REMARK                         _______ _______ _______ _____ _____    ______ ____
ROOT
ATOM      1  C   LIG    1        1.879  -3.640   2.178  0.00  0.00    +0.090 A 
ATOM      2  C   LIG    1        2.996  -4.484   2.226  0.00  0.00    +0.039 A 
ATOM      3  C   LIG    1        3.667  -4.622   3.441  0.00  0.00    +0.092 A 
ATOM      4  C   LIG    1        3.197  -3.913   4.563  0.00  0.00    +0.140 A 
ATOM      5  N   LIG    1        2.135  -3.126   4.470  0.00  0.00    -0.226 NA
ATOM      6  C   LIG    1        1.482  -2.968   3.338  0.00  0.00    +0.160 A 
ENDROOT
BRANCH   4   7
ATOM      7  N   LIG    1        3.849  -4.039   5.772  0.00  0.00    -0.311 N 
ATOM      8  C   LIG    1        4.878  -3.068   6.171  0.00  0.00    +0.125 C 
ATOM      9  C   LIG    1        4.496  -2.483   7.536  0.00  0.00    +0.128 C 
ATOM     10  N   LIG    1        4.174  -3.589   8.448  0.00  0.00    -0.282 N 
ATOM     11  C   LIG    1        4.811  -3.712   9.630  0.00  0.00    +0.307 C 
ATOM     12  N   LIG    1        4.431  -4.665  10.504  0.00  0.00    -0.269 N 
ATOM     13  H   LIG    1        3.731  -5.292  10.264  0.00  0.00    +0.156 HD
ATOM     14  O   LIG    1        5.728  -2.963   9.907  0.00  0.00    -0.252 OA
ATOM     15  C   LIG    1        3.144  -4.559   8.049  0.00  0.00    +0.128 C 
ATOM     16  C   LIG    1        3.522  -5.142   6.687  0.00  0.00    +0.125 C 
BRANCH  12  17
ATOM     17  C   LIG    1        5.048  -4.749  11.758  0.00  0.00    +0.036 A 
ATOM     18  C   LIG    1        5.450  -3.594  12.415  0.00  0.00    +0.023 A 
ATOM     19  C   LIG    1        6.057  -3.680  13.652  0.00  0.00    +0.003 A 
ATOM     20  C   LIG    1        6.266  -4.915  14.238  0.00  0.00    +0.020 A 
ATOM     21  C   LIG    1        5.867  -6.069  13.586  0.00  0.00    +0.043 A 
ATOM     22 CL   LIG    1        6.131  -7.618  14.324  0.00  0.00    -0.083 Cl
ATOM     23  C   LIG    1        5.253  -5.988  12.350  0.00  0.00    +0.043 A 
ENDBRANCH  12  17
ENDBRANCH   4   7
BRANCH   6  24
ATOM     24  C   LIG    1        0.285  -2.054   3.293  0.00  0.00    +0.435 C 
ATOM     25  F   LIG    1        0.355  -1.252   2.149  0.00  0.00    -0.164 F 
ATOM     26  F   LIG    1        0.276  -1.242   4.432  0.00  0.00    -0.164 F 
ATOM     27  F   LIG    1       -0.885  -2.819   3.255  0.00  0.00    -0.164 F 
ENDBRANCH   6  24
BRANCH   1  28
ATOM     28  C   LIG    1        1.135  -3.459   0.919  0.00  0.00    +0.341 C 
ATOM     29  O   LIG    1       -0.079  -3.401   0.933  0.00  0.00    -0.245 OA
BRANCH  28  30
ATOM     30  O   LIG    1        1.801  -3.357  -0.249  0.00  0.00    -0.461 OA
BRANCH  30  32
ATOM     31  C   LIG    1        1.939  -3.088  -2.646  0.00  0.00    +0.048 C 
ATOM     32  C   LIG    1        1.016  -3.182  -1.430  0.00  0.00    +0.229 C 
ENDBRANCH  30  32
ENDBRANCH  28  30
ENDBRANCH   1  28
BRANCH   3  33
ATOM     33  C   LIG    1        4.814  -5.473   3.546  0.00  0.00    +0.103 C 
ATOM     34  N   LIG    1        5.724  -6.147   3.629  0.00  0.00    -0.191 NA
ENDBRANCH   3  33
TORSDOF 7
