REMARK  Name = ZINC33333445
REMARK                            x       y       z     vdW  Elec       q    Type
REMARK                         _______ _______ _______ _____ _____    ______ ____
ROOT
ATOM      1  C   LIG    1       -5.784  -1.410   2.472  0.00  0.00    +0.023 C 
ATOM      2  C   LIG    1       -6.510  -1.305   1.298  0.00  0.00    +0.071 C 
ATOM      3  C   LIG    1       -6.254  -0.406   0.163  0.00  0.00    +0.174 C 
ATOM      4  N   LIG    1       -7.170  -0.631  -0.729  0.00  0.00    -0.167 NA
ATOM      5  N   LIG    1       -8.056  -1.622  -0.311  0.00  0.00    -0.156 N 
ATOM      6  C   LIG    1       -7.705  -2.074   0.910  0.00  0.00    +0.272 C 
ATOM      7  O   LIG    1       -8.263  -2.941   1.560  0.00  0.00    -0.268 OA
ENDROOT
BRANCH   5   8
ATOM      8  C   LIG    1       -9.151  -2.084  -1.053  0.00  0.00    +0.060 A 
ATOM      9  C   LIG    1       -9.975  -3.075  -0.534  0.00  0.00    +0.027 A 
ATOM     10  C   LIG    1      -11.053  -3.528  -1.268  0.00  0.00    +0.022 A 
ATOM     11  C   LIG    1      -11.313  -2.997  -2.519  0.00  0.00    +0.041 A 
ATOM     12 CL   LIG    1      -12.669  -3.570  -3.439  0.00  0.00    -0.084 Cl
ATOM     13  C   LIG    1      -10.494  -2.010  -3.038  0.00  0.00    +0.022 A 
ATOM     14  C   LIG    1       -9.417  -1.549  -2.307  0.00  0.00    +0.027 A 
ENDBRANCH   5   8
BRANCH   1  18
ATOM     15  C   LIG    1       -3.612   1.924   3.929  0.00  0.00    +0.162 A 
ATOM     16  C   LIG    1       -3.100   0.641   4.084  0.00  0.00    +0.050 A 
ATOM     17  C   LIG    1       -3.801  -0.445   3.613  0.00  0.00    +0.012 A 
ATOM     18  C   LIG    1       -5.036  -0.258   2.974  0.00  0.00    -0.021 A 
ATOM     19  C   LIG    1       -5.551   1.038   2.819  0.00  0.00    +0.057 A 
ATOM     20  C   LIG    1       -4.842   2.119   3.299  0.00  0.00    +0.162 A 
BRANCH  15  22
ATOM     21  C   LIG    1       -1.663   2.721   5.030  0.00  0.00    +0.277 C 
ATOM     22  O   LIG    1       -2.915   2.991   4.396  0.00  0.00    -0.491 OA
ENDBRANCH  15  22
BRANCH  20  23
ATOM     23  O   LIG    1       -5.341   3.377   3.156  0.00  0.00    -0.491 OA
ATOM     24  C   LIG    1       -6.605   3.503   2.502  0.00  0.00    +0.277 C 
ENDBRANCH  20  23
ENDBRANCH   1  18
BRANCH   3  25
ATOM     25  C   LIG    1       -5.132   0.594   0.055  0.00  0.00    +0.436 C 
ATOM     26  F   LIG    1       -4.532   0.488  -1.204  0.00  0.00    -0.164 F 
ATOM     27  F   LIG    1       -4.181   0.337   1.048  0.00  0.00    -0.164 F 
ATOM     28  F   LIG    1       -5.642   1.886   0.221  0.00  0.00    -0.164 F 
ENDBRANCH   3  25
TORSDOF 5
