REMARK  Name = ZINC13776735
REMARK                            x       y       z     vdW  Elec       q    Type
REMARK                         _______ _______ _______ _____ _____    ______ ____
ROOT
ATOM      1  C   LIG    1       -0.742   2.014   1.268  0.00  0.00    +0.057 C 
ATOM      2  C   LIG    1       -0.019   1.526   0.010  0.00  0.00    +0.170 C 
ATOM      3  C   LIG    1        0.002  -0.004   0.002  0.00  0.00    +0.049 C 
ATOM      4  C   LIG    1        0.940  -0.470  -1.119  0.00  0.00    +0.016 C 
ATOM      5  C   LIG    1        2.366  -0.046  -0.756  0.00  0.00    +0.123 C 
ATOM      6  C   LIG    1        2.378   1.394  -0.332  0.00  0.00    +0.236 C 
ATOM      7  N   LIG    1        1.339   2.054   0.000  0.00  0.00    -0.277 N 
ATOM      8  H   LIG    1        1.430   3.106   0.309  0.00  0.00    +0.304 HD
ENDROOT
BRANCH   6   9
ATOM      9  N   LIG    1        3.585   2.042  -0.300  0.00  0.00    -0.254 N 
ATOM     10  H   LIG    1        4.504   1.506  -0.580  0.00  0.00    +0.288 HD
ATOM     11  H   LIG    1        3.635   3.097   0.005  0.00  0.00    +0.288 HD
ENDBRANCH   6   9
TORSDOF 1
