REMARK  Name = ZINC26504552
REMARK                            x       y       z     vdW  Elec       q    Type
REMARK                         _______ _______ _______ _____ _____    ______ ____
ROOT
ATOM      1  C   LIG    1        1.793   4.419  -0.130  0.00  0.00    +0.185 C 
ATOM      2  C   LIG    1        0.507   4.972   0.482  0.00  0.00    +0.052 C 
ATOM      3  C   LIG    1       -0.686   4.329  -0.238  0.00  0.00    +0.012 C 
ATOM      4  C   LIG    1       -0.602   4.614  -1.739  0.00  0.00    +0.012 C 
ATOM      5  C   LIG    1       -0.619   2.843   0.007  0.00  0.00    -0.020 C 
ATOM      6  C   LIG    1        0.543   2.228   0.122  0.00  0.00    -0.044 C 
ATOM      7  C   LIG    1        0.572   0.777   0.419  0.00  0.00    -0.000 C 
ATOM      8  C   LIG    1        1.696   0.215   0.829  0.00  0.00    -0.023 C 
ATOM      9  C   LIG    1        2.989   0.951   1.006  0.00  0.00    +0.012 C 
ATOM     10  C   LIG    1        3.680   0.447   2.274  0.00  0.00    +0.012 C 
ATOM     11  C   LIG    1        2.772   2.460   1.123  0.00  0.00    +0.007 C 
ATOM     12  C   LIG    1        1.869   2.915  -0.025  0.00  0.00    +0.063 C 
ENDROOT
BRANCH   1  13
ATOM     13  O   LIG    1        1.850   4.799  -1.530  0.00  0.00    -0.460 OA
BRANCH  13  14
ATOM     14  C   LIG    1        2.401   5.988  -1.817  0.00  0.00    +0.313 C 
ATOM     15  O   LIG    1        2.822   6.690  -0.928  0.00  0.00    -0.250 OA
BRANCH  14  16
ATOM     16  C   LIG    1        2.494   6.450  -3.249  0.00  0.00    +0.062 C 
ATOM     17  C   LIG    1        1.090   6.538  -3.849  0.00  0.00    +0.022 C 
ATOM     18  C   LIG    1        3.330   5.452  -4.053  0.00  0.00    +0.022 C 
BRANCH  16  20
ATOM     19  C   LIG    1        3.253   8.296  -4.752  0.00  0.00    +0.005 C 
ATOM     20  C   LIG    1        3.158   7.827  -3.299  0.00  0.00    +0.014 C 
ENDBRANCH  16  20
ENDBRANCH  14  16
ENDBRANCH  13  14
ENDBRANCH   1  13
BRANCH  11  21
ATOM     21  C   LIG    1        2.101   2.780   2.461  0.00  0.00    +0.008 C 
BRANCH  21  22
ATOM     22  C   LIG    1        0.953   1.798   2.703  0.00  0.00    +0.045 C 
BRANCH  22  23
ATOM     23  C   LIG    1        0.380   2.020   4.104  0.00  0.00    +0.179 C 
ATOM     24  C   LIG    1       -0.686   0.959   4.395  0.00  0.00    +0.076 C 
ATOM     25  C   LIG    1       -1.296   1.218   5.776  0.00  0.00    +0.129 C 
ATOM     26  C   LIG    1       -1.931   2.613   5.789  0.00  0.00    +0.152 C 
ATOM     27  C   LIG    1       -0.898   3.612   5.316  0.00  0.00    +0.310 C 
ATOM     28  O   LIG    1       -0.682   4.624   5.940  0.00  0.00    -0.251 OA
ATOM     29  O   LIG    1       -0.226   3.341   4.178  0.00  0.00    -0.461 OA
BRANCH  25  30
ATOM     30  O   LIG    1       -0.273   1.149   6.772  0.00  0.00    -0.391 OA
ATOM     31  H   LIG    1       -0.524   1.309   7.831  0.00  0.00    +0.210 HD
ENDBRANCH  25  30
ENDBRANCH  22  23
ENDBRANCH  21  22
ENDBRANCH  11  21
TORSDOF 8
