REMARK  Name = ZINC27653862
REMARK                            x       y       z     vdW  Elec       q    Type
REMARK                         _______ _______ _______ _____ _____    ______ ____
ROOT
ATOM      1  C   LIG    1        1.226   3.228  -0.232  0.00  0.00    +0.001 A 
ATOM      2  C   LIG    1        0.070   3.959  -0.040  0.00  0.00    +0.004 A 
ATOM      3  C   LIG    1       -1.173   3.339  -0.037  0.00  0.00    -0.041 A 
ATOM      4  C   LIG    1       -1.254   1.975  -0.217  0.00  0.00    -0.019 A 
ATOM      5  C   LIG    1       -0.086   1.230  -0.399  0.00  0.00    -0.009 A 
ATOM      6  C   LIG    1       -0.180  -0.236  -0.595  0.00  0.00    +0.031 A 
ATOM      7  C   LIG    1       -1.356  -0.893  -0.231  0.00  0.00    -0.034 A 
ATOM      8  C   LIG    1       -2.480  -0.114   0.395  0.00  0.00    +0.059 C 
ATOM      9  C   LIG    1       -1.471  -2.254  -0.426  0.00  0.00    +0.008 A 
ATOM     10  C   LIG    1       -0.413  -2.974  -0.954  0.00  0.00    +0.049 A 
ATOM     11  C   LIG    1        0.770  -2.335  -1.288  0.00  0.00    +0.159 A 
ATOM     12  C   LIG    1        0.894  -0.962  -1.105  0.00  0.00    +0.166 A 
ATOM     13  C   LIG    1       -2.586   1.274  -0.234  0.00  0.00    +0.092 C 
ATOM     14  N   LIG    1       -3.560   2.069   0.528  0.00  0.00    -0.294 NA
ATOM     15  C   LIG    1       -3.683   3.417  -0.030  0.00  0.00    +0.089 C 
ATOM     16  C   LIG    1       -2.391   4.197   0.153  0.00  0.00    +0.051 C 
ATOM     17  C   LIG    1        1.153   1.863  -0.421  0.00  0.00    +0.009 A 
ENDROOT
BRANCH  11  18
ATOM     18  O   LIG    1        1.811  -3.051  -1.793  0.00  0.00    -0.503 OA
ATOM     19  H   LIG    1        2.750  -2.544  -2.058  0.00  0.00    +0.292 HD
ENDBRANCH  11  18
BRANCH  12  20
ATOM     20  O   LIG    1        2.056  -0.331  -1.421  0.00  0.00    -0.503 OA
ATOM     21  H   LIG    1        2.902  -0.907  -1.823  0.00  0.00    +0.292 HD
ENDBRANCH  12  20
BRANCH  14  22
ATOM     22  C   LIG    1       -4.866   1.398   0.575  0.00  0.00    +0.101 C 
BRANCH  22  23
ATOM     23  C   LIG    1       -5.447   1.314  -0.838  0.00  0.00    +0.124 C 
ATOM     24 CL   LIG    1       -7.061   0.512  -0.778  0.00  0.00    -0.124 Cl
ENDBRANCH  22  23
ENDBRANCH  14  22
TORSDOF 4
