REMARK  Name = ZINC26506755
REMARK                            x       y       z     vdW  Elec       q    Type
REMARK                         _______ _______ _______ _____ _____    ______ ____
ROOT
ATOM      1  C   LIG    1       -1.412  -0.526   0.013  0.00  0.00    -0.064 A 
ATOM      2  C   LIG    1       -2.046  -0.776   1.216  0.00  0.00    +0.005 A 
ATOM      3  C   LIG    1       -3.344  -1.249   1.228  0.00  0.00    +0.046 A 
ATOM      4  C   LIG    1       -4.007  -1.483   0.032  0.00  0.00    +0.121 A 
ATOM      5  C   LIG    1       -3.367  -1.236  -1.173  0.00  0.00    +0.046 A 
ATOM      6  C   LIG    1       -2.071  -0.758  -1.180  0.00  0.00    +0.005 A 
ENDROOT
BRANCH   1   7
ATOM      7  C   LIG    1        0.002  -0.004   0.002  0.00  0.00    -0.046 C 
BRANCH   7   8
ATOM      8  N   LIG    1       -0.018   1.465   0.010  0.00  0.00    +0.389 N 
ATOM      9  H   LIG    1       -0.559   1.815  -0.881  0.00  0.00    -0.084 HD
ATOM     10  H   LIG    1       -0.542   1.806   0.915  0.00  0.00    -0.084 HD
BRANCH   8  12
ATOM     11  C   LIG    1        1.880   2.075   1.432  0.00  0.00    -0.004 C 
ATOM     12  C   LIG    1        1.346   2.010   0.000  0.00  0.00    +0.013 C 
BRANCH  12  13
ATOM     13  C   LIG    1        1.329   3.395  -0.593  0.00  0.00    +0.196 C 
ATOM     14  N   LIG    1        2.476   4.095  -0.704  0.00  0.00    -0.331 N 
ATOM     15  H   LIG    1        3.424   3.654  -0.362  0.00  0.00    +0.145 HD
ATOM     16  H   LIG    1        2.463   5.106  -1.137  0.00  0.00    +0.145 HD
ATOM     17  O   LIG    1        0.284   3.881  -0.970  0.00  0.00    -0.278 OA
ENDBRANCH  12  13
ENDBRANCH   8  12
ENDBRANCH   7   8
ENDBRANCH   1   7
BRANCH   4  18
ATOM     18  O   LIG    1       -5.282  -1.953   0.042  0.00  0.00    -0.487 OA
BRANCH  18  19
ATOM     19  C   LIG    1       -5.879  -2.185   1.320  0.00  0.00    +0.264 C 
BRANCH  19  20
ATOM     20  C   LIG    1       -7.282  -2.700   1.133  0.00  0.00    -0.008 A 
ATOM     21  C   LIG    1       -7.512  -4.060   1.037  0.00  0.00    +0.007 A 
ATOM     22  C   LIG    1       -8.799  -4.535   0.866  0.00  0.00    +0.003 A 
ATOM     23  C   LIG    1       -9.858  -3.650   0.790  0.00  0.00    +0.038 A 
ATOM     24  C   LIG    1       -9.629  -2.288   0.886  0.00  0.00    +0.124 A 
ATOM     25  F   LIG    1      -10.664  -1.422   0.812  0.00  0.00    -0.205 F 
ATOM     26  C   LIG    1       -8.340  -1.814   1.063  0.00  0.00    +0.045 A 
ENDBRANCH  19  20
ENDBRANCH  18  19
ENDBRANCH   4  18
TORSDOF 7
