REMARK  Name = ZINC36294905
REMARK                            x       y       z     vdW  Elec       q    Type
REMARK                         _______ _______ _______ _____ _____    ______ ____
ROOT
ATOM      1  N   LIG    1        1.070  -4.123   0.489  0.00  0.00    -0.259 N 
ATOM      2  C   LIG    1        1.744  -4.014  -0.691  0.00  0.00    +0.070 A 
ATOM      3  C   LIG    1        3.047  -4.336  -0.434  0.00  0.00    +0.062 A 
ATOM      4  C   LIG    1        3.095  -4.635   0.945  0.00  0.00    +0.148 A 
ATOM      5  N   LIG    1        1.877  -4.479   1.423  0.00  0.00    -0.166 NA
ENDROOT
BRANCH   2   6
ATOM      6  C   LIG    1        1.173  -3.623  -2.000  0.00  0.00    +0.000 A 
ATOM      7  C   LIG    1       -0.084  -3.022  -2.064  0.00  0.00    +0.011 A 
ATOM      8  C   LIG    1       -0.611  -2.659  -3.286  0.00  0.00    +0.021 A 
ATOM      9  C   LIG    1        0.105  -2.891  -4.448  0.00  0.00    +0.044 A 
ATOM     10 CL   LIG    1       -0.564  -2.433  -5.983  0.00  0.00    -0.083 Cl
ATOM     11  C   LIG    1        1.354  -3.487  -4.391  0.00  0.00    -0.032 A 
ATOM     12  C   LIG    1        2.127  -3.737  -5.660  0.00  0.00    +0.045 C 
ATOM     13  C   LIG    1        1.893  -3.848  -3.173  0.00  0.00    +0.014 A 
ENDBRANCH   2   6
BRANCH   4  14
ATOM     14  C   LIG    1        4.292  -5.042   1.711  0.00  0.00    +0.264 C 
ATOM     15  N   LIG    1        4.192  -5.298   3.030  0.00  0.00    -0.306 N 
ATOM     16  H   LIG    1        3.335  -5.215   3.477  0.00  0.00    +0.149 HD
ATOM     17  O   LIG    1        5.365  -5.146   1.151  0.00  0.00    -0.268 OA
BRANCH  15  18
ATOM     18  C   LIG    1        5.378  -5.702   3.790  0.00  0.00    +0.085 C 
ATOM     19  C   LIG    1        5.191  -5.376   5.303  0.00  0.00    -0.013 C 
ATOM     20  C   LIG    1        4.534  -4.031   5.622  0.00  0.00    +0.013 C 
ATOM     21  C   LIG    1        6.593  -5.633   5.934  0.00  0.00    +0.009 C 
ATOM     22  C   LIG    1        6.769  -7.168   5.883  0.00  0.00    +0.005 C 
ATOM     23  C   LIG    1        5.456  -7.694   5.227  0.00  0.00    -0.003 C 
ATOM     24  C   LIG    1        4.418  -6.655   5.782  0.00  0.00    +0.012 C 
ATOM     25  C   LIG    1        5.555  -7.236   3.737  0.00  0.00    -0.013 C 
ATOM     26  C   LIG    1        6.924  -7.595   3.156  0.00  0.00    +0.013 C 
ATOM     27  C   LIG    1        4.439  -7.874   2.907  0.00  0.00    +0.013 C 
ENDBRANCH  15  18
ENDBRANCH   4  14
BRANCH   1  28
ATOM     28  C   LIG    1       -0.361  -3.865   0.668  0.00  0.00    +0.179 C 
BRANCH  28  33
ATOM     29  C   LIG    1       -1.976  -5.529   5.960  0.00  0.00    +0.044 C 
ATOM     30  C   LIG    1       -1.555  -5.095   4.580  0.00  0.00    -0.050 A 
ATOM     31  C   LIG    1       -1.026  -3.833   4.384  0.00  0.00    +0.004 A 
ATOM     32  C   LIG    1       -0.640  -3.435   3.118  0.00  0.00    +0.006 A 
ATOM     33  C   LIG    1       -0.781  -4.299   2.048  0.00  0.00    -0.026 A 
ATOM     34  C   LIG    1       -1.309  -5.562   2.245  0.00  0.00    +0.006 A 
ATOM     35  C   LIG    1       -1.691  -5.961   3.512  0.00  0.00    +0.004 A 
ENDBRANCH  28  33
ENDBRANCH   1  28
TORSDOF 5
