REMARK  Name = ZINC33375437
REMARK                            x       y       z     vdW  Elec       q    Type
REMARK                         _______ _______ _______ _____ _____    ______ ____
ROOT
ATOM      1  N   LIG    1        0.458   0.158  -3.634  0.00  0.00    -0.037 NA
ATOM      2  C   LIG    1       -0.041  -0.425  -2.597  0.00  0.00    +0.259 C 
ATOM      3  C   LIG    1        0.851  -0.938  -1.488  0.00  0.00    +0.234 C 
ATOM      4  C   LIG    1        0.285  -0.445  -0.150  0.00  0.00    +0.184 C 
ATOM      5  C   LIG    1       -1.198  -0.818  -0.070  0.00  0.00    +0.189 C 
ATOM      6  C   LIG    1       -1.951  -0.161  -1.230  0.00  0.00    +0.231 C 
ATOM      7  O   LIG    1       -1.383  -0.599  -2.470  0.00  0.00    -0.467 OA
ENDROOT
BRANCH   3   8
ATOM      8  O   LIG    1        2.177  -0.436  -1.664  0.00  0.00    -0.380 OA
ATOM      9  H   LIG    1        2.967  -0.706  -0.948  0.00  0.00    +0.211 HD
ENDBRANCH   3   8
BRANCH   4  10
ATOM     10  O   LIG    1        0.426   0.975  -0.064  0.00  0.00    -0.386 OA
ATOM     11  H   LIG    1        0.075   1.510   0.830  0.00  0.00    +0.210 HD
ENDBRANCH   4  10
BRANCH   5  12
ATOM     12  O   LIG    1       -1.337  -2.238  -0.155  0.00  0.00    -0.385 OA
ATOM     13  H   LIG    1       -2.337  -2.696  -0.115  0.00  0.00    +0.210 HD
ENDBRANCH   5  12
BRANCH   1  14
ATOM     14  O   LIG    1       -0.277   0.564  -4.517  0.00  0.00    -0.296 OA
BRANCH  14  17
ATOM     15  N   LIG    1       -0.449   1.635  -6.582  0.00  0.00    -0.249 N 
ATOM     16  H   LIG    1       -1.533   1.453  -6.589  0.00  0.00    +0.158 HD
ATOM     17  C   LIG    1        0.307   1.163  -5.571  0.00  0.00    +0.430 C 
ATOM     18  O   LIG    1        1.516   1.279  -5.611  0.00  0.00    -0.224 OA
BRANCH  15  22
ATOM     19  C   LIG    1        1.324   3.780  -9.683  0.00  0.00    +0.000 A 
ATOM     20  C   LIG    1        0.230   2.974  -9.939  0.00  0.00    +0.002 A 
ATOM     21  C   LIG    1       -0.360   2.262  -8.913  0.00  0.00    +0.023 A 
ATOM     22  C   LIG    1        0.147   2.355  -7.624  0.00  0.00    +0.037 A 
ATOM     23  C   LIG    1        1.242   3.170  -7.369  0.00  0.00    +0.023 A 
ATOM     24  C   LIG    1        1.831   3.875  -8.400  0.00  0.00    +0.002 A 
ENDBRANCH  15  22
ENDBRANCH  14  17
ENDBRANCH   1  14
BRANCH   6  25
ATOM     25  C   LIG    1       -3.426  -0.562  -1.175  0.00  0.00    +0.203 C 
BRANCH  25  26
ATOM     26  O   LIG    1       -4.149   0.139  -2.189  0.00  0.00    -0.391 OA
ATOM     27  H   LIG    1       -5.231  -0.020  -2.304  0.00  0.00    +0.210 HD
ENDBRANCH  25  26
ENDBRANCH   6  25
TORSDOF 8
