REMARK  Name = ZINC34285233
REMARK                            x       y       z     vdW  Elec       q    Type
REMARK                         _______ _______ _______ _____ _____    ______ ____
ROOT
ATOM      1  N   LIG    1       -4.100  -2.353  -0.196  0.00  0.00    -0.139 NA
ATOM      2  C   LIG    1       -5.421  -2.515  -0.208  0.00  0.00    +0.165 A 
ATOM      3  N   LIG    1       -6.389  -1.566  -0.335  0.00  0.00    -0.342 N 
ATOM      4  H   LIG    1       -6.153  -0.630  -0.432  0.00  0.00    +0.167 HD
ATOM      5  C   LIG    1       -7.693  -1.955  -0.321  0.00  0.00    +0.095 A 
ATOM      6  C   LIG    1       -7.942  -3.261  -0.183  0.00  0.00    +0.010 A 
ATOM      7  S   LIG    1       -6.299  -3.943  -0.078  0.00  0.00    -0.057 S 
ENDROOT
BRANCH   1  10
ATOM      8  N   LIG    1       -2.238  -0.964  -0.300  0.00  0.00    -0.265 N 
ATOM      9  H   LIG    1       -1.656  -1.734  -0.207  0.00  0.00    +0.157 HD
ATOM     10  C   LIG    1       -3.576  -1.129  -0.313  0.00  0.00    +0.330 C 
ATOM     11  O   LIG    1       -4.308  -0.161  -0.431  0.00  0.00    -0.250 OA
BRANCH   8  15
ATOM     12  C   LIG    1       -1.786   3.991  -0.810  0.00  0.00    +0.086 C 
ATOM     13  C   LIG    1       -1.487   2.522  -0.649  0.00  0.00    +0.104 A 
ATOM     14  C   LIG    1       -2.402   1.540  -0.567  0.00  0.00    +0.068 A 
ATOM     15  C   LIG    1       -1.687   0.324  -0.424  0.00  0.00    +0.085 A 
ATOM     16  C   LIG    1       -0.375   0.641  -0.428  0.00  0.00    +0.229 A 
ATOM     17  O   LIG    1       -0.264   1.975  -0.571  0.00  0.00    -0.454 OA
BRANCH  16  18
ATOM     18  C   LIG    1        0.769  -0.331  -0.300  0.00  0.00    +0.452 C 
ATOM     19  F   LIG    1        0.365  -1.427   0.469  0.00  0.00    -0.163 F 
ATOM     20  F   LIG    1        1.852   0.301   0.320  0.00  0.00    -0.163 F 
ATOM     21  F   LIG    1        1.152  -0.770  -1.573  0.00  0.00    -0.163 F 
ENDBRANCH  16  18
ENDBRANCH   8  15
ENDBRANCH   1  10
BRANCH   6  22
ATOM     22  C   LIG    1       -9.270  -3.973  -0.135  0.00  0.00    +0.059 C 
BRANCH  22  23
ATOM     23  C   LIG    1       -9.627  -4.481  -1.533  0.00  0.00    +0.087 C 
BRANCH  23  24
ATOM     24  N   LIG    1      -10.917  -5.174  -1.486  0.00  0.00    -0.301 NA
ATOM     25  H   LIG    1      -11.398  -5.247  -0.647  0.00  0.00    +0.123 HD
BRANCH  24  26
ATOM     26  C   LIG    1      -11.451  -5.724  -2.641  0.00  0.00    +0.125 C 
ATOM     27  C   LIG    1      -10.767  -5.629  -3.850  0.00  0.00    +0.073 C 
ATOM     28  C   LIG    1      -11.345  -6.198  -4.980  0.00  0.00    +0.145 C 
ATOM     29  N   LIG    1      -12.524  -6.808  -4.866  0.00  0.00    -0.286 NA
ATOM     30  H   LIG    1      -12.934  -7.207  -5.649  0.00  0.00    +0.125 HD
ATOM     31  C   LIG    1      -13.140  -6.877  -3.704  0.00  0.00    +0.168 C 
ATOM     32  N   LIG    1      -12.623  -6.355  -2.609  0.00  0.00    -0.289 NA
ATOM     33  H   LIG    1      -13.305  -5.684  -2.257  0.00  0.00    +0.125 HD
BRANCH  28  34
ATOM     34  N   LIG    1      -10.703  -6.130  -6.209  0.00  0.00    -0.298 N 
ATOM     35  H   LIG    1      -11.156  -6.438  -7.010  0.00  0.00    +0.150 HD
BRANCH  34  36
ATOM     36  C   LIG    1       -9.416  -5.624  -6.292  0.00  0.00    +0.212 A 
ATOM     37  N   LIG    1       -8.720  -5.404  -7.427  0.00  0.00    -0.247 N 
ATOM     38  H   LIG    1       -9.020  -5.568  -8.334  0.00  0.00    +0.192 HD
ATOM     39  N   LIG    1       -7.475  -4.888  -7.033  0.00  0.00    -0.160 NA
ATOM     40  C   LIG    1       -7.480  -4.833  -5.728  0.00  0.00    +0.246 A 
ATOM     41  N   LIG    1       -8.654  -5.278  -5.277  0.00  0.00    -0.202 NA
ENDBRANCH  34  36
ENDBRANCH  28  34
ENDBRANCH  24  26
ENDBRANCH  23  24
ENDBRANCH  22  23
ENDBRANCH   6  22
TORSDOF 9
