REMARK  Name = ZINC27635435
REMARK                            x       y       z     vdW  Elec       q    Type
REMARK                         _______ _______ _______ _____ _____    ______ ____
ROOT
ATOM      1  C   LIG    1       -4.294   0.983   0.147  0.00  0.00    +0.008 C 
ATOM      2  C   LIG    1       -2.872   1.544   0.085  0.00  0.00    -0.000 C 
ATOM      3  C   LIG    1       -2.071   1.038   1.287  0.00  0.00    -0.077 C 
ATOM      4  N   LIG    1       -0.700   1.559   1.216  0.00  0.00    +0.381 N 
ATOM      5  H   LIG    1       -0.133   1.221   2.097  0.00  0.00    -0.086 HD
ATOM      6  H   LIG    1       -0.726   2.659   1.197  0.00  0.00    -0.086 HD
ATOM      7  C   LIG    1       -0.013   1.086   0.008  0.00  0.00    -0.048 C 
ATOM      8  C   LIG    1       -0.752   1.593  -1.232  0.00  0.00    +0.126 C 
ATOM      9  C   LIG    1       -2.194   1.077  -1.207  0.00  0.00    +0.142 C 
ENDROOT
BRANCH   8  10
ATOM     10  O   LIG    1       -0.096   1.115  -2.408  0.00  0.00    -0.391 OA
ATOM     11  H   LIG    1       -0.486   1.378  -3.402  0.00  0.00    +0.210 HD
ENDBRANCH   8  10
BRANCH   9  12
ATOM     12  O   LIG    1       -2.906   1.594  -2.333  0.00  0.00    -0.389 OA
ATOM     13  H   LIG    1       -2.564   1.363  -3.353  0.00  0.00    +0.210 HD
ENDBRANCH   9  12
TORSDOF 2
