REMARK  Name = ZINC43194381
REMARK                            x       y       z     vdW  Elec       q    Type
REMARK                         _______ _______ _______ _____ _____    ______ ____
ROOT
ATOM      1  C   LIG    1        1.118  -0.599  -0.816  0.00  0.00    +0.164 A 
ATOM      2  C   LIG    1        1.499   0.165  -1.883  0.00  0.00    +0.077 A 
ATOM      3  C   LIG    1        1.950  -0.459  -3.054  0.00  0.00    +0.078 A 
ATOM      4  C   LIG    1        2.005  -1.875  -3.113  0.00  0.00    +0.030 A 
ATOM      5  C   LIG    1        2.466  -2.477  -4.309  0.00  0.00    +0.083 A 
ATOM      6  N   LIG    1        2.823  -1.683  -5.312  0.00  0.00    -0.235 NA
ATOM      7  C   LIG    1        2.755  -0.367  -5.210  0.00  0.00    +0.222 A 
ATOM      8  C   LIG    1        1.608  -2.634  -2.006  0.00  0.00    +0.061 A 
ATOM      9  N   LIG    1        2.336   0.245  -4.128  0.00  0.00    -0.235 NA
ATOM     10  C   LIG    1        1.178  -1.999  -0.874  0.00  0.00    +0.163 A 
ENDROOT
BRANCH   5  11
ATOM     11  C   LIG    1        2.548  -3.949  -4.437  0.00  0.00    +0.019 A 
ATOM     12  C   LIG    1        1.499  -4.761  -3.992  0.00  0.00    +0.013 A 
ATOM     13  C   LIG    1        1.625  -6.132  -4.134  0.00  0.00    +0.020 A 
ATOM     14  C   LIG    1        2.772  -6.650  -4.707  0.00  0.00    +0.111 A 
ATOM     15  N   LIG    1        3.745  -5.860  -5.117  0.00  0.00    -0.263 NA
ATOM     16  C   LIG    1        3.669  -4.550  -5.009  0.00  0.00    +0.120 A 
ENDBRANCH   5  11
BRANCH   1  18
ATOM     17  C   LIG    1        0.643   1.435   0.319  0.00  0.00    +0.277 C 
ATOM     18  O   LIG    1        0.681   0.006   0.319  0.00  0.00    -0.491 OA
ENDBRANCH   1  18
BRANCH  10  19
ATOM     19  O   LIG    1        0.798  -2.734   0.205  0.00  0.00    -0.488 OA
BRANCH  19  20
ATOM     20  C   LIG    1        0.881  -4.155   0.084  0.00  0.00    +0.235 C 
BRANCH  20  21
ATOM     21  C   LIG    1        0.416  -4.806   1.388  0.00  0.00    +0.096 C 
BRANCH  21  22
ATOM     22  C   LIG    1        0.504  -6.305   1.260  0.00  0.00    +0.045 A 
ATOM     23  C   LIG    1        1.234  -7.025   2.204  0.00  0.00    +0.024 A 
ATOM     24  C   LIG    1        1.324  -8.384   2.104  0.00  0.00    +0.012 A 
ATOM     25  C   LIG    1        0.665  -9.017   1.033  0.00  0.00    +0.000 A 
ATOM     26  C   LIG    1        0.713 -10.410   0.866  0.00  0.00    +0.010 A 
ATOM     27  C   LIG    1        0.062 -10.984  -0.182  0.00  0.00    +0.001 A 
ATOM     28  C   LIG    1       -0.651 -10.208  -1.093  0.00  0.00    +0.002 A 
ATOM     29  C   LIG    1       -0.718  -8.855  -0.962  0.00  0.00    +0.028 A 
ATOM     30  C   LIG    1       -0.060  -8.225   0.109  0.00  0.00    +0.071 A 
ATOM     31  N   LIG    1       -0.113  -6.898   0.267  0.00  0.00    -0.251 NA
ENDBRANCH  21  22
ENDBRANCH  20  21
ENDBRANCH  19  20
ENDBRANCH  10  19
TORSDOF 6
