REMARK  Name = ZINC40934311
REMARK                            x       y       z     vdW  Elec       q    Type
REMARK                         _______ _______ _______ _____ _____    ______ ____
ROOT
ATOM      1  C   LIG    1       -4.516  -6.371  -0.005  0.00  0.00    +0.018 A 
ATOM      2  C   LIG    1       -3.377  -7.163  -0.196  0.00  0.00    +0.013 A 
ATOM      3  C   LIG    1       -3.486  -8.530  -0.195  0.00  0.00    +0.024 A 
ATOM      4  C   LIG    1       -4.728  -9.130  -0.006  0.00  0.00    +0.033 A 
ATOM      5  C   LIG    1       -5.863  -8.348   0.183  0.00  0.00    +0.024 A 
ATOM      6  C   LIG    1       -5.762  -6.981   0.190  0.00  0.00    +0.013 A 
ENDROOT
BRANCH   4   7
ATOM      7  N   LIG    1       -4.834 -10.520  -0.007  0.00  0.00    -0.286 N 
ATOM      8  H   LIG    1       -5.633 -10.945  -0.356  0.00  0.00    +0.155 HD
ATOM      9  C   LIG    1       -3.827 -11.273   0.478  0.00  0.00    +0.214 C 
ATOM     10  C   LIG    1       -3.889 -12.775   0.369  0.00  0.00    +0.109 C 
ATOM     11  O   LIG    1       -2.870 -10.742   1.002  0.00  0.00    -0.276 OA
ENDBRANCH   4   7
BRANCH   1  12
ATOM     12  C   LIG    1       -4.404  -4.907  -0.004  0.00  0.00    +0.173 C 
ATOM     13  O   LIG    1       -5.391  -4.223   0.167  0.00  0.00    -0.291 OA
BRANCH  12  14
ATOM     14  C   LIG    1       -3.062  -4.254  -0.214  0.00  0.00    +0.155 C 
BRANCH  14  15
ATOM     15  S   LIG    1       -3.252  -2.451  -0.159  0.00  0.00    -0.095 S 
BRANCH  15  16
ATOM     16  C   LIG    1       -1.619  -1.842  -0.417  0.00  0.00    +0.107 C 
ATOM     17  S   LIG    1       -0.323  -2.938  -0.643  0.00  0.00    -0.028 S 
BRANCH  16  18
ATOM     18  N   LIG    1       -1.390  -0.514  -0.437  0.00  0.00    -0.333 N 
ATOM     19  H   LIG    1       -2.124   0.106  -0.309  0.00  0.00    +0.147 HD
BRANCH  18  21
ATOM     20  C   LIG    1       -0.048   1.521  -0.629  0.00  0.00    +0.024 C 
ATOM     21  C   LIG    1       -0.032  -0.008  -0.652  0.00  0.00    +0.099 C 
ENDBRANCH  18  21
ENDBRANCH  16  18
ENDBRANCH  15  16
ENDBRANCH  14  15
ENDBRANCH  12  14
ENDBRANCH   1  12
TORSDOF 7
