REMARK  Name = ZINC32215027
REMARK                            x       y       z     vdW  Elec       q    Type
REMARK                         _______ _______ _______ _____ _____    ______ ____
ROOT
ATOM      1  C   LIG    1       -0.802   1.617   1.234  0.00  0.00    +0.169 C 
ATOM      2  C   LIG    1       -0.013   1.086   0.008  0.00  0.00    +0.069 C 
ATOM      3  C   LIG    1       -0.821   1.627  -1.190  0.00  0.00    +0.187 C 
ATOM      4  N   LIG    1       -2.183   1.902  -0.710  0.00  0.00    -0.286 N 
ATOM      5  C   LIG    1       -3.190   2.407  -1.449  0.00  0.00    +0.213 C 
ATOM      6  C   LIG    1       -4.541   2.639  -0.824  0.00  0.00    +0.109 C 
ATOM      7  O   LIG    1       -3.008   2.675  -2.618  0.00  0.00    -0.276 OA
ATOM      8  C   LIG    1       -2.264   1.534   0.716  0.00  0.00    +0.142 C 
ENDROOT
BRANCH   3   9
ATOM      9  C   LIG    1       -0.859   0.598  -2.290  0.00  0.00    +0.328 C 
ATOM     10  O   LIG    1       -1.836  -0.099  -2.431  0.00  0.00    -0.249 OA
BRANCH   9  11
ATOM     11  O   LIG    1        0.191   0.455  -3.112  0.00  0.00    -0.467 OA
ATOM     12  C   LIG    1        0.084  -0.557  -4.149  0.00  0.00    +0.280 C 
ENDBRANCH   9  11
ENDBRANCH   3   9
BRANCH   1  13
ATOM     13  O   LIG    1       -0.439   2.967   1.530  0.00  0.00    -0.229 OA
BRANCH  13  14
ATOM     14  S   LIG    1       -0.437   3.296   3.016  0.00  0.00    +0.112 S 
ATOM     15  O   LIG    1       -1.551   2.620   3.583  0.00  0.00    -0.142 OA
ATOM     16  O   LIG    1       -0.265   4.702   3.121  0.00  0.00    -0.142 OA
BRANCH  14  21
ATOM     17  C   LIG    1        4.502   0.772   5.392  0.00  0.00    +0.044 C 
ATOM     18  C   LIG    1        3.268   1.403   4.799  0.00  0.00    -0.050 A 
ATOM     19  C   LIG    1        3.321   2.693   4.305  0.00  0.00    +0.005 A 
ATOM     20  C   LIG    1        2.189   3.271   3.760  0.00  0.00    +0.030 A 
ATOM     21  C   LIG    1        1.006   2.559   3.710  0.00  0.00    +0.117 A 
ATOM     22  C   LIG    1        0.952   1.271   4.210  0.00  0.00    +0.030 A 
ATOM     23  C   LIG    1        2.084   0.691   4.750  0.00  0.00    +0.005 A 
ENDBRANCH  14  21
ENDBRANCH  13  14
ENDBRANCH   1  13
TORSDOF 5
