REMARK  Name = ZINC53230825
REMARK                            x       y       z     vdW  Elec       q    Type
REMARK                         _______ _______ _______ _____ _____    ______ ____
ROOT
ATOM      1  N   LIG    1       -4.889  -2.581   0.035  0.00  0.00    -0.327 N 
ATOM      2  C   LIG    1       -6.142  -1.820   0.150  0.00  0.00    +0.120 C 
ATOM      3  C   LIG    1       -6.980  -2.428   1.280  0.00  0.00    +0.103 C 
ATOM      4  N   LIG    1       -7.147  -3.868   1.041  0.00  0.00    -0.298 NA
ATOM      5  C   LIG    1       -5.855  -4.566   1.069  0.00  0.00    +0.103 C 
ATOM      6  C   LIG    1       -4.972  -4.045  -0.076  0.00  0.00    +0.120 C 
ENDROOT
BRANCH   1  10
ATOM      7  C   LIG    1       -1.201  -0.638   0.008  0.00  0.00    +0.120 A 
ATOM      8  C   LIG    1       -1.254  -2.024   0.022  0.00  0.00    +0.047 A 
ATOM      9  C   LIG    1       -2.476  -2.668   0.032  0.00  0.00    +0.027 A 
ATOM     10  C   LIG    1       -3.651  -1.928   0.027  0.00  0.00    +0.030 A 
ATOM     11  C   LIG    1       -3.597  -0.541   0.012  0.00  0.00    +0.027 A 
ATOM     12  C   LIG    1       -2.374   0.102   0.009  0.00  0.00    +0.047 A 
BRANCH   7  14
ATOM     13  C   LIG    1        1.169  -0.828  -0.001  0.00  0.00    +0.277 C 
ATOM     14  O   LIG    1        0.002  -0.004  -0.001  0.00  0.00    -0.495 OA
ENDBRANCH   7  14
ENDBRANCH   1  10
BRANCH   4  15
ATOM     15  C   LIG    1       -8.085  -4.456   2.006  0.00  0.00    +0.103 C 
BRANCH  15  16
ATOM     16  C   LIG    1       -8.426  -5.885   1.579  0.00  0.00    +0.120 C 
BRANCH  16  17
ATOM     17  N   LIG    1       -9.361  -6.472   2.542  0.00  0.00    -0.310 N 
ATOM     18  H   LIG    1       -9.662  -5.953   3.304  0.00  0.00    +0.149 HD
ATOM     19  C   LIG    1       -9.804  -7.734   2.368  0.00  0.00    +0.244 C 
ATOM     20  O   LIG    1       -9.427  -8.384   1.413  0.00  0.00    -0.270 OA
BRANCH  19  21
ATOM     21  C   LIG    1      -10.748  -8.326   3.340  0.00  0.00    +0.040 A 
ATOM     22  C   LIG    1      -11.187  -7.579   4.435  0.00  0.00    +0.013 A 
ATOM     23  C   LIG    1      -12.068  -8.135   5.340  0.00  0.00    +0.004 A 
ATOM     24  C   LIG    1      -12.518  -9.431   5.166  0.00  0.00    +0.045 A 
ATOM     25  C   LIG    1      -12.087 -10.181   4.080  0.00  0.00    +0.121 A 
ATOM     26  C   LIG    1      -11.207  -9.631   3.163  0.00  0.00    +0.058 A 
BRANCH  25  27
ATOM     27  O   LIG    1      -12.532 -11.455   3.915  0.00  0.00    -0.495 OA
ATOM     28  C   LIG    1      -13.442 -11.957   4.896  0.00  0.00    +0.277 C 
ENDBRANCH  25  27
ENDBRANCH  19  21
ENDBRANCH  16  17
ENDBRANCH  15  16
ENDBRANCH   4  15
TORSDOF 7
