REMARK  Name = ZINC58661275
REMARK                            x       y       z     vdW  Elec       q    Type
REMARK                         _______ _______ _______ _____ _____    ______ ____
ROOT
ATOM      1  C   LIG    1       -4.020  -5.014  -4.577  0.00  0.00    +0.073 A 
ATOM      2  C   LIG    1       -5.348  -4.933  -4.164  0.00  0.00    +0.059 A 
ATOM      3 BR   LIG    1       -5.769  -4.383  -2.404  0.00  0.00    -0.047 Br
ATOM      4  C   LIG    1       -6.356  -5.258  -5.053  0.00  0.00    +0.130 A 
ATOM      5  N   LIG    1       -6.090  -5.644  -6.283  0.00  0.00    -0.233 NA
ATOM      6  C   LIG    1       -4.837  -5.740  -6.733  0.00  0.00    +0.180 A 
ATOM      7  N   LIG    1       -4.311  -6.103  -7.921  0.00  0.00    -0.208 NA
ATOM      8  C   LIG    1       -3.002  -6.021  -7.873  0.00  0.00    +0.141 A 
ATOM      9  N   LIG    1       -2.612  -5.608  -6.629  0.00  0.00    -0.335 N 
ATOM     10  H   LIG    1       -1.701  -5.474  -6.325  0.00  0.00    +0.167 HD
ATOM     11  C   LIG    1       -3.763  -5.420  -5.887  0.00  0.00    +0.108 A 
ENDROOT
BRANCH   1  15
ATOM     12  N   LIG    1       -1.689  -3.894  -1.371  0.00  0.00    -0.294 NA
ATOM     13  C   LIG    1       -2.442  -2.900  -2.147  0.00  0.00    +0.103 C 
ATOM     14  C   LIG    1       -2.465  -3.318  -3.621  0.00  0.00    +0.120 C 
ATOM     15  N   LIG    1       -2.978  -4.693  -3.709  0.00  0.00    -0.325 N 
ATOM     16  C   LIG    1       -2.362  -5.721  -2.856  0.00  0.00    +0.120 C 
ATOM     17  C   LIG    1       -2.343  -5.209  -1.412  0.00  0.00    +0.103 C 
BRANCH  12  18
ATOM     18  C   LIG    1       -1.496  -3.445   0.014  0.00  0.00    +0.143 C 
BRANCH  18  22
ATOM     19  C   LIG    1        0.030   1.415   0.075  0.00  0.00    +0.089 C 
ATOM     20  C   LIG    1        0.037  -0.092   0.055  0.00  0.00    +0.135 A 
ATOM     21  C   LIG    1       -1.050  -0.888   0.047  0.00  0.00    +0.072 A 
ATOM     22  C   LIG    1       -0.612  -2.225   0.028  0.00  0.00    +0.098 A 
ATOM     23  N   LIG    1        0.691  -2.224   0.025  0.00  0.00    -0.082 NA
ATOM     24  O   LIG    1        1.126  -0.876   0.037  0.00  0.00    -0.360 OA
ENDBRANCH  18  22
ENDBRANCH  12  18
ENDBRANCH   1  15
BRANCH   8  25
ATOM     25  C   LIG    1       -2.089  -6.338  -8.990  0.00  0.00    +0.017 A 
ATOM     26  C   LIG    1       -0.707  -6.230  -8.816  0.00  0.00    +0.013 A 
ATOM     27  C   LIG    1        0.142  -6.527  -9.859  0.00  0.00    +0.024 A 
ATOM     28  C   LIG    1       -0.375  -6.933 -11.085  0.00  0.00    +0.030 A 
ATOM     29  C   LIG    1       -1.751  -7.041 -11.261  0.00  0.00    +0.024 A 
ATOM     30  C   LIG    1       -2.605  -6.752 -10.220  0.00  0.00    +0.013 A 
BRANCH  28  31
ATOM     31  N   LIG    1        0.487  -7.231 -12.138  0.00  0.00    -0.333 N 
ATOM     32  C   LIG    1       -0.027  -7.775 -13.405  0.00  0.00    +0.086 C 
ATOM     33  C   LIG    1        0.540  -6.940 -14.557  0.00  0.00    -0.060 C 
ATOM     34  N   LIG    1        2.005  -6.907 -14.462  0.00  0.00    +0.380 N 
ATOM     35  H   LIG    1        2.361  -7.851 -14.446  0.00  0.00    -0.082 HD
ATOM     36  C   LIG    1        2.555  -6.201 -15.627  0.00  0.00    -0.096 C 
ATOM     37  C   LIG    1        2.411  -6.212 -13.234  0.00  0.00    -0.060 C 
ATOM     38  C   LIG    1        1.935  -7.006 -12.017  0.00  0.00    +0.086 C 
ENDBRANCH  28  31
ENDBRANCH   8  25
TORSDOF 5
