REMARK  Name = ZINC14979684
REMARK                            x       y       z     vdW  Elec       q    Type
REMARK                         _______ _______ _______ _____ _____    ______ ____
ROOT
ATOM      1  C   LIG    1       10.537   1.727  -0.780  0.00  0.00    +0.096 C 
ENDROOT
BRANCH   1   2
ATOM      2  C   LIG    1        9.062   1.540  -0.533  0.00  0.00    +0.213 C 
ATOM      3  N   LIG    1        8.514   1.960   0.625  0.00  0.00    -0.315 N 
ATOM      4  H   LIG    1        9.070   2.381   1.299  0.00  0.00    +0.149 HD
ATOM      5  O   LIG    1        8.368   1.013  -1.377  0.00  0.00    -0.276 OA
BRANCH   3   6
ATOM      6  C   LIG    1        7.081   1.778   0.864  0.00  0.00    +0.109 C 
BRANCH   6   7
ATOM      7  C   LIG    1        6.720   2.336   2.243  0.00  0.00    +0.056 C 
BRANCH   7   8
ATOM      8  C   LIG    1        5.245   2.150   2.489  0.00  0.00    -0.021 A 
ATOM      9  C   LIG    1        4.277   3.053   2.265  0.00  0.00    +0.087 A 
ATOM     10  N   LIG    1        3.061   2.530   2.609  0.00  0.00    -0.360 N 
ATOM     11  C   LIG    1        3.220   1.242   3.075  0.00  0.00    +0.047 A 
ATOM     12  C   LIG    1        2.333   0.280   3.545  0.00  0.00    +0.030 A 
ATOM     13  C   LIG    1        2.802  -0.949   3.953  0.00  0.00    +0.047 A 
ATOM     14  C   LIG    1        4.162  -1.242   3.900  0.00  0.00    +0.118 A 
ATOM     15  C   LIG    1        5.060  -0.301   3.436  0.00  0.00    +0.055 A 
ATOM     16  H   LIG    1        2.213   2.995   2.535  0.00  0.00    +0.165 HD
ATOM     17  C   LIG    1        4.595   0.949   3.020  0.00  0.00    +0.006 A 
BRANCH  14  18
ATOM     18  O   LIG    1        4.609  -2.461   4.306  0.00  0.00    -0.507 OA
ATOM     19  H   LIG    1        4.639  -3.123   3.602  0.00  0.00    +0.292 HD
ENDBRANCH  14  18
ENDBRANCH   7   8
ENDBRANCH   6   7
ENDBRANCH   3   6
ENDBRANCH   1   2
BRANCH   1  20
ATOM     20  C   LIG    1       10.898   1.169  -2.158  0.00  0.00    +0.013 C 
BRANCH  20  21
ATOM     21  C   LIG    1       12.396   1.358  -2.409  0.00  0.00    +0.027 C 
BRANCH  21  23
ATOM     22  C   LIG    1       13.404   1.554  -4.624  0.00  0.00    -0.027 C 
ATOM     23  C   LIG    1       12.751   0.809  -3.766  0.00  0.00    -0.031 C 
BRANCH  22  24
ATOM     24  C   LIG    1       13.943   2.896  -4.199  0.00  0.00    +0.053 C 
BRANCH  24  26
ATOM     25  C   LIG    1       15.887   3.976  -5.206  0.00  0.00    -0.027 C 
ATOM     26  C   LIG    1       15.415   2.968  -4.514  0.00  0.00    -0.027 C 
BRANCH  25  27
ATOM     27  C   LIG    1       14.995   5.142  -5.545  0.00  0.00    +0.053 C 
BRANCH  27  29
ATOM     28  C   LIG    1       15.809   7.410  -5.937  0.00  0.00    -0.027 C 
ATOM     29  C   LIG    1       15.648   6.422  -5.092  0.00  0.00    -0.027 C 
BRANCH  28  30
ATOM     30  C   LIG    1       15.189   7.337  -7.308  0.00  0.00    +0.053 C 
BRANCH  30  32
ATOM     31  C   LIG    1       14.571   9.300  -8.622  0.00  0.00    -0.031 C 
ATOM     32  C   LIG    1       14.363   8.574  -7.552  0.00  0.00    -0.027 C 
BRANCH  31  33
ATOM     33  C   LIG    1       15.518   8.815  -9.689  0.00  0.00    +0.027 C 
BRANCH  33  34
ATOM     34  C   LIG    1       14.816   8.850 -11.048  0.00  0.00    +0.004 C 
BRANCH  34  35
ATOM     35  C   LIG    1       15.778   8.358 -12.132  0.00  0.00    +0.000 C 
BRANCH  35  37
ATOM     36  C   LIG    1       16.038   7.900 -14.574  0.00  0.00    +0.004 C 
ATOM     37  C   LIG    1       15.076   8.393 -13.491  0.00  0.00    -0.003 C 
ENDBRANCH  35  37
ENDBRANCH  34  35
ENDBRANCH  33  34
ENDBRANCH  31  33
ENDBRANCH  30  32
ENDBRANCH  28  30
ENDBRANCH  27  29
ENDBRANCH  25  27
ENDBRANCH  24  26
ENDBRANCH  22  24
ENDBRANCH  21  23
ENDBRANCH  20  21
ENDBRANCH   1  20
TORSDOF 18
