REMARK  Name = ZINC36294563
REMARK                            x       y       z     vdW  Elec       q    Type
REMARK                         _______ _______ _______ _____ _____    ______ ____
ROOT
ATOM      1  C   LIG    1        3.045  -8.151   4.926  0.00  0.00    +0.001 C 
ENDROOT
BRANCH   1   2
ATOM      2  C   LIG    1        3.024  -6.621   4.935  0.00  0.00    +0.000 C 
BRANCH   2   3
ATOM      3  C   LIG    1        2.284  -6.114   3.695  0.00  0.00    +0.000 C 
BRANCH   3   4
ATOM      4  C   LIG    1        2.264  -4.584   3.704  0.00  0.00    +0.000 C 
BRANCH   4   5
ATOM      5  C   LIG    1        1.524  -4.077   2.464  0.00  0.00    -0.000 C 
BRANCH   5   6
ATOM      6  C   LIG    1        1.503  -2.548   2.473  0.00  0.00    -0.000 C 
BRANCH   6   7
ATOM      7  C   LIG    1        0.763  -2.041   1.233  0.00  0.00    -0.000 C 
BRANCH   7   8
ATOM      8  C   LIG    1        0.742  -0.511   1.242  0.00  0.00    -0.000 C 
BRANCH   8  10
ATOM      9  C   LIG    1       -0.019   1.526   0.010  0.00  0.00    +0.004 C 
ATOM     10  C   LIG    1        0.002  -0.004   0.002  0.00  0.00    -0.003 C 
ENDBRANCH   8  10
ENDBRANCH   7   8
ENDBRANCH   6   7
ENDBRANCH   5   6
ENDBRANCH   4   5
ENDBRANCH   3   4
ENDBRANCH   2   3
ENDBRANCH   1   2
BRANCH   1  11
ATOM     11  C   LIG    1        3.785  -8.658   6.166  0.00  0.00    +0.012 C 
BRANCH  11  12
ATOM     12  C   LIG    1        3.806 -10.187   6.158  0.00  0.00    +0.132 C 
BRANCH  12  13
ATOM     13  P   LIG    1        4.688 -10.791   7.635  0.00  0.00    +0.369 P 
ATOM     14  F   LIG    1        6.254 -10.213   7.623  0.00  0.00    -0.156 F 
ATOM     15  O   LIG    1        3.995 -10.314   8.852  0.00  0.00    -0.254 OA
BRANCH  13  16
ATOM     16  O   LIG    1        4.709 -12.401   7.626  0.00  0.00    -0.302 OA
BRANCH  16  17
ATOM     17  C   LIG    1        5.329 -13.177   8.653  0.00  0.00    +0.122 C 
ATOM     18  C   LIG    1        6.434 -14.041   8.044  0.00  0.00    +0.038 C 
ATOM     19  C   LIG    1        4.283 -14.077   9.313  0.00  0.00    +0.038 C 
ENDBRANCH  16  17
ENDBRANCH  13  16
ENDBRANCH  12  13
ENDBRANCH  11  12
ENDBRANCH   1  11
TORSDOF 13
