REMARK  Name = ZINC28706449
REMARK                            x       y       z     vdW  Elec       q    Type
REMARK                         _______ _______ _______ _____ _____    ______ ____
ROOT
ATOM      1  C   LIG    1        2.475   4.040  -0.001  0.00  0.00    +0.122 A 
ATOM      2  C   LIG    1        1.260   3.366   0.002  0.00  0.00    +0.056 A 
ATOM      3  C   LIG    1        1.259   1.969   0.001  0.00  0.00    +0.043 A 
ATOM      4  C   LIG    1        2.488   1.305  -0.015  0.00  0.00    +0.058 A 
ATOM      5  C   LIG    1        3.659   2.052  -0.022  0.00  0.00    +0.143 A 
ATOM      6  N   LIG    1        3.620   3.376  -0.015  0.00  0.00    -0.216 NA
ENDROOT
BRANCH   3   7
ATOM      7  C   LIG    1       -0.014   1.211   0.009  0.00  0.00    +0.244 C 
ATOM      8  N   LIG    1       -1.191   1.869   0.018  0.00  0.00    -0.310 N 
ATOM      9  H   LIG    1       -1.206   2.969   0.024  0.00  0.00    +0.149 HD
ATOM     10  O   LIG    1        0.002  -0.004   0.002  0.00  0.00    -0.270 OA
BRANCH   8  11
ATOM     11  C   LIG    1       -2.449   1.119   0.020  0.00  0.00    +0.065 C 
BRANCH  11  12
ATOM     12  C   LIG    1       -2.830   0.758  -1.417  0.00  0.00    -0.023 C 
BRANCH  12  13
ATOM     13  N   LIG    1       -4.149   0.112  -1.427  0.00  0.00    +0.383 N 
ATOM     14  H   LIG    1       -4.114  -0.802  -0.816  0.00  0.00    -0.089 HD
ATOM     15  H   LIG    1       -4.898   0.802  -1.012  0.00  0.00    -0.089 HD
ATOM     16  H   LIG    1       -4.423  -0.148  -2.460  0.00  0.00    -0.089 HD
ENDBRANCH  12  13
BRANCH  12  17
ATOM     17  C   LIG    1       -2.878   2.030  -2.267  0.00  0.00    +0.199 C 
ATOM     18  F   LIG    1       -3.227   1.699  -3.581  0.00  0.00    -0.251 F 
ENDBRANCH  12  17
ENDBRANCH  11  12
BRANCH  11  19
ATOM     19  C   LIG    1       -3.554   1.978   0.639  0.00  0.00    +0.055 C 
BRANCH  19  20
ATOM     20  C   LIG    1       -3.238   2.231   2.091  0.00  0.00    -0.046 A 
ATOM     21  C   LIG    1       -3.699   1.360   3.061  0.00  0.00    +0.004 A 
ATOM     22  C   LIG    1       -3.405   1.590   4.392  0.00  0.00    +0.000 A 
ATOM     23  C   LIG    1       -2.660   2.696   4.754  0.00  0.00    +0.000 A 
ATOM     24  C   LIG    1       -2.204   3.570   3.785  0.00  0.00    +0.000 A 
ATOM     25  C   LIG    1       -2.493   3.338   2.454  0.00  0.00    +0.004 A 
ENDBRANCH  19  20
ENDBRANCH  11  19
ENDBRANCH   8  11
ENDBRANCH   3   7
BRANCH   1  26
ATOM     26  N   LIG    1        2.489   5.431   0.006  0.00  0.00    -0.329 N 
ATOM     27  H   LIG    1        3.447   5.971  -0.001  0.00  0.00    +0.147 HD
BRANCH  26  28
ATOM     28  C   LIG    1        1.227   6.175   0.022  0.00  0.00    +0.106 C 
BRANCH  28  32
ATOM     29  C   LIG    1        0.546   9.922   0.949  0.00  0.00    +0.008 C 
ATOM     30  C   LIG    1        0.332   8.629   0.159  0.00  0.00    -0.009 C 
ATOM     31  C   LIG    1        1.056   8.492  -1.182  0.00  0.00    +0.009 C 
ATOM     32  C   LIG    1        1.521   7.677   0.027  0.00  0.00    +0.009 C 
ENDBRANCH  28  32
ENDBRANCH  26  28
ENDBRANCH   1  26
BRANCH   5  33
ATOM     33  N   LIG    1        4.888   1.402  -0.037  0.00  0.00    -0.193 N 
ATOM     34  C   LIG    1        4.942  -0.062  -0.044  0.00  0.00    +0.159 C 
BRANCH  33  35
ATOM     35  S   LIG    1        6.290   2.282  -0.046  0.00  0.00    +0.049 S 
ATOM     36  O   LIG    1        5.936   3.523  -0.640  0.00  0.00    -0.155 OA
ATOM     37  O   LIG    1        7.248   1.432  -0.662  0.00  0.00    -0.155 OA
BRANCH  35  38
ATOM     38  C   LIG    1        6.702   2.522   1.704  0.00  0.00    +0.145 C 
ATOM     39  C   LIG    1        5.514   3.164   2.424  0.00  0.00    +0.033 C 
ATOM     40  C   LIG    1        7.924   3.435   1.820  0.00  0.00    +0.033 C 
ENDBRANCH  35  38
ENDBRANCH  33  35
ENDBRANCH   5  33
TORSDOF 13
