REMARK  Name = ZINC15924361
REMARK                            x       y       z     vdW  Elec       q    Type
REMARK                         _______ _______ _______ _____ _____    ______ ____
ROOT
ATOM      1  C   LIG    1        3.753  -1.846   0.643  0.00  0.00    +0.111 A 
ATOM      2  C   LIG    1        4.902  -2.617   0.830  0.00  0.00    +0.143 A 
ATOM      3  C   LIG    1        4.696  -3.785   1.573  0.00  0.00    +0.240 A 
ATOM      4  N   LIG    1        3.483  -4.018   1.997  0.00  0.00    -0.172 NA
ATOM      5  S   LIG    1        2.575  -2.726   1.451  0.00  0.00    +0.032 S 
ENDROOT
BRANCH   1   6
ATOM      6  N   LIG    1        3.620  -0.649  -0.036  0.00  0.00    -0.307 N 
ATOM      7  H   LIG    1        4.406  -0.198  -0.382  0.00  0.00    +0.153 HD
BRANCH   6  11
ATOM      8  C   LIG    1       -0.154   1.018  -0.600  0.00  0.00    +0.000 A 
ATOM      9  C   LIG    1        0.942   1.840  -0.414  0.00  0.00    +0.002 A 
ATOM     10  C   LIG    1        2.195   1.290  -0.227  0.00  0.00    +0.023 A 
ATOM     11  C   LIG    1        2.354  -0.090  -0.225  0.00  0.00    +0.032 A 
ATOM     12  C   LIG    1        1.250  -0.913  -0.412  0.00  0.00    +0.023 A 
ATOM     13  C   LIG    1       -0.000  -0.357  -0.599  0.00  0.00    +0.002 A 
ENDBRANCH   6  11
ENDBRANCH   1   6
BRANCH   2  14
ATOM     14  C   LIG    1        6.182  -2.244   0.307  0.00  0.00    +0.107 C 
ATOM     15  N   LIG    1        7.197  -1.949  -0.109  0.00  0.00    -0.191 NA
ENDBRANCH   2  14
BRANCH   3  16
ATOM     16  O   LIG    1        5.716  -4.641   1.841  0.00  0.00    -0.491 OA
ATOM     17  H   LIG    1        6.579  -4.455   1.527  0.00  0.00    +0.294 HD
ENDBRANCH   3  16
TORSDOF 4
