REMARK  Name = ZINC24811973
REMARK                            x       y       z     vdW  Elec       q    Type
REMARK                         _______ _______ _______ _____ _____    ______ ____
ROOT
ATOM      1  C   LIG    1        1.232   3.200   1.238  0.00  0.00    +0.126 A 
ATOM      2  C   LIG    1        0.289   2.682   2.103  0.00  0.00    +0.074 A 
ATOM      3  C   LIG    1       -1.067   2.952   1.893  0.00  0.00    +0.083 A 
ATOM      4  C   LIG    1       -1.455   3.766   0.799  0.00  0.00    +0.082 A 
ATOM      5  C   LIG    1       -2.832   4.026   0.616  0.00  0.00    +0.138 A 
ATOM      6  N   LIG    1       -3.691   3.499   1.481  0.00  0.00    -0.220 NA
ATOM      7  C   LIG    1       -3.283   2.748   2.491  0.00  0.00    +0.223 A 
ATOM      8  C   LIG    1       -0.479   4.283  -0.068  0.00  0.00    +0.137 A 
ATOM      9  N   LIG    1       -2.019   2.473   2.710  0.00  0.00    -0.235 NA
ATOM     10  C   LIG    1        0.851   3.997   0.158  0.00  0.00    +0.092 A 
ENDROOT
BRANCH   5  11
ATOM     11  N   LIG    1       -3.271   4.807  -0.432  0.00  0.00    -0.295 N 
ATOM     12  H   LIG    1       -2.558   5.163  -1.190  0.00  0.00    +0.154 HD
BRANCH  11  13
ATOM     13  C   LIG    1       -4.627   5.146  -0.532  0.00  0.00    +0.097 A 
ATOM     14  C   LIG    1       -5.591   4.148  -0.604  0.00  0.00    +0.066 A 
ATOM     15 CL   LIG    1       -5.115   2.479  -0.570  0.00  0.00    -0.081 Cl
ATOM     16  C   LIG    1       -6.929   4.484  -0.696  0.00  0.00    +0.025 A 
ATOM     17  C   LIG    1       -7.312   5.812  -0.730  0.00  0.00    +0.051 A 
ATOM     18  C   LIG    1       -6.356   6.814  -0.665  0.00  0.00    +0.168 A 
ATOM     19  O   LIG    1       -6.471   8.175  -0.679  0.00  0.00    -0.453 OA
ATOM     20  C   LIG    1       -5.157   8.669  -0.999  0.00  0.00    +0.466 C 
ATOM     21  O   LIG    1       -4.278   7.635  -0.517  0.00  0.00    -0.451 OA
ATOM     22  C   LIG    1       -5.009   6.483  -0.566  0.00  0.00    +0.189 A 
ENDBRANCH  11  13
ENDBRANCH   5  11
BRANCH   1  23
ATOM     23  O   LIG    1        2.547   2.931   1.442  0.00  0.00    -0.491 OA
BRANCH  23  24
ATOM     24  C   LIG    1        2.876   2.110   2.564  0.00  0.00    +0.244 C 
BRANCH  24  25
ATOM     25  C   LIG    1        4.393   1.919   2.630  0.00  0.00    +0.125 C 
BRANCH  25  31
ATOM     26  C   LIG    1        7.566   6.274   4.323  0.00  0.00    -0.096 C 
ATOM     27  N   LIG    1        6.918   4.978   4.083  0.00  0.00    +0.379 N 
ATOM     28  H   LIG    1        7.417   4.230   4.717  0.00  0.00    -0.082 HD
ATOM     29  C   LIG    1        5.499   5.019   4.460  0.00  0.00    -0.064 C 
ATOM     30  C   LIG    1        4.882   3.632   4.271  0.00  0.00    +0.066 C 
ATOM     31  N   LIG    1        5.040   3.216   2.870  0.00  0.00    -0.303 NA
ATOM     32  C   LIG    1        6.459   3.174   2.492  0.00  0.00    +0.066 C 
ATOM     33  C   LIG    1        7.076   4.562   2.682  0.00  0.00    -0.064 C 
ENDBRANCH  25  31
ENDBRANCH  24  25
ENDBRANCH  23  24
ENDBRANCH   1  23
BRANCH   8  34
ATOM     34  O   LIG    1       -0.841   5.060  -1.121  0.00  0.00    -0.488 OA
BRANCH  34  35
ATOM     35  C   LIG    1        0.204   5.515  -1.982  0.00  0.00    +0.178 C 
ATOM     36  C   LIG    1        0.841   6.777  -1.392  0.00  0.00    +0.072 C 
ATOM     37  C   LIG    1        1.904   7.303  -2.360  0.00  0.00    +0.163 C 
ATOM     38  O   LIG    1        1.306   7.559  -3.632  0.00  0.00    -0.380 OA
ATOM     39  C   LIG    1        0.738   6.404  -4.252  0.00  0.00    +0.163 C 
ATOM     40  C   LIG    1       -0.374   5.843  -3.361  0.00  0.00    +0.072 C 
ENDBRANCH  34  35
ENDBRANCH   8  34
TORSDOF 8
