REMARK  Name = ZINC29327451
REMARK                            x       y       z     vdW  Elec       q    Type
REMARK                         _______ _______ _______ _____ _____    ______ ____
ROOT
ATOM      1  C   LIG    1        3.853   4.301  -2.765  0.00  0.00    -0.074 C 
ENDROOT
BRANCH   1   2
ATOM      2  N   LIG    1        4.137   4.527  -4.189  0.00  0.00    +0.380 N 
ATOM      3  H   LIG    1        5.219   4.405  -4.341  0.00  0.00    -0.082 HD
BRANCH   2   4
ATOM      4  C   LIG    1        3.448   3.537  -5.027  0.00  0.00    -0.079 C 
BRANCH   4   6
ATOM      5  C   LIG    1        1.220   2.607  -5.671  0.00  0.00    +0.002 C 
ATOM      6  C   LIG    1        1.936   3.659  -4.823  0.00  0.00    -0.022 C 
ENDBRANCH   4   6
ENDBRANCH   2   4
BRANCH   2   7
ATOM      7  C   LIG    1        3.777   5.895  -4.586  0.00  0.00    -0.079 C 
BRANCH   7   8
ATOM      8  C   LIG    1        4.430   6.224  -5.930  0.00  0.00    -0.022 C 
ATOM      9  C   LIG    1        4.055   7.648  -6.345  0.00  0.00    +0.002 C 
ENDBRANCH   7   8
ENDBRANCH   2   7
ENDBRANCH   1   2
BRANCH   1  10
ATOM     10  C   LIG    1        4.463   2.968  -2.329  0.00  0.00    +0.017 C 
BRANCH  10  11
ATOM     11  C   LIG    1        4.172   2.736  -0.869  0.00  0.00    -0.046 A 
ATOM     12  C   LIG    1        5.055   3.190   0.092  0.00  0.00    +0.004 A 
ATOM     13  C   LIG    1        4.791   2.979   1.433  0.00  0.00    +0.004 A 
ATOM     14  C   LIG    1        3.640   2.317   1.815  0.00  0.00    +0.045 A 
ATOM     15  C   LIG    1        2.755   1.855   0.853  0.00  0.00    +0.117 A 
ATOM     16  C   LIG    1        3.022   2.069  -0.492  0.00  0.00    +0.049 A 
BRANCH  15  17
ATOM     17  O   LIG    1        1.624   1.200   1.226  0.00  0.00    -0.507 OA
ATOM     18  H   LIG    1        0.923   0.834   0.462  0.00  0.00    +0.292 HD
ENDBRANCH  15  17
ENDBRANCH  10  11
ENDBRANCH   1  10
TORSDOF 8
