REMARK  Name = ZINC28526078
REMARK                            x       y       z     vdW  Elec       q    Type
REMARK                         _______ _______ _______ _____ _____    ______ ____
ROOT
ATOM      1  C   LIG    1        1.095   2.065   0.089  0.00  0.00    +0.029 C 
ATOM      2  C   LIG    1        1.151   3.592   0.010  0.00  0.00    +0.084 C 
ENDROOT
BRANCH   2   3
ATOM      3  N   LIG    1        2.190   3.996  -0.947  0.00  0.00    -0.299 NA
ATOM      4  C   LIG    1        3.501   3.456  -0.558  0.00  0.00    +0.066 C 
ATOM      5  C   LIG    1        4.538   3.831  -1.619  0.00  0.00    -0.064 C 
ATOM      6  N   LIG    1        4.592   5.294  -1.753  0.00  0.00    +0.379 N 
ATOM      7  H   LIG    1        4.856   5.715  -0.771  0.00  0.00    -0.082 HD
ATOM      8  C   LIG    1        5.632   5.697  -2.709  0.00  0.00    -0.096 C 
ATOM      9  C   LIG    1        3.281   5.833  -2.141  0.00  0.00    -0.064 C 
ATOM     10  C   LIG    1        2.244   5.458  -1.080  0.00  0.00    +0.066 C 
ENDBRANCH   2   3
BRANCH   2  11
ATOM     11  C   LIG    1       -0.185   4.120  -0.447  0.00  0.00    -0.031 A 
ATOM     12  C   LIG    1       -0.570   3.977  -1.767  0.00  0.00    +0.005 A 
ATOM     13  C   LIG    1       -1.795   4.461  -2.187  0.00  0.00    +0.000 A 
ATOM     14  C   LIG    1       -2.635   5.087  -1.286  0.00  0.00    +0.000 A 
ATOM     15  C   LIG    1       -2.251   5.231   0.034  0.00  0.00    +0.000 A 
ATOM     16  C   LIG    1       -1.026   4.747   0.453  0.00  0.00    +0.005 A 
ENDBRANCH   2  11
TORSDOF 2
