REMARK  Name = ZINC29056300
REMARK                            x       y       z     vdW  Elec       q    Type
REMARK                         _______ _______ _______ _____ _____    ______ ____
ROOT
ATOM      1  C   LIG    1        2.819   2.701   2.990  0.00  0.00    +0.142 A 
ATOM      2  C   LIG    1        2.132   2.722   4.210  0.00  0.00    +0.060 A 
ATOM      3  C   LIG    1        0.988   1.839   4.441  0.00  0.00    +0.022 A 
ATOM      4  C   LIG    1        0.360   1.902   5.644  0.00  0.00    +0.093 A 
ATOM      5  C   LIG    1        0.818   2.801   6.628  0.00  0.00    +0.337 A 
ATOM      6  O   LIG    1        1.867   3.609   6.412  0.00  0.00    -0.422 OA
ATOM      7  O   LIG    1        0.245   2.846   7.702  0.00  0.00    -0.245 OA
ATOM      8  C   LIG    1        2.538   3.599   5.238  0.00  0.00    +0.146 A 
ATOM      9  C   LIG    1        3.617   4.442   5.042  0.00  0.00    +0.094 A 
ATOM     10  C   LIG    1        4.305   4.429   3.835  0.00  0.00    +0.142 A 
ATOM     11  O   LIG    1        5.367   5.123   3.376  0.00  0.00    -0.463 OA
ATOM     12  C   LIG    1        5.676   4.755   2.120  0.00  0.00    +0.196 A 
ATOM     13  C   LIG    1        4.834   3.804   1.696  0.00  0.00    +0.053 A 
ATOM     14  C   LIG    1        3.908   3.552   2.809  0.00  0.00    +0.063 A 
ENDROOT
BRANCH   1  15
ATOM     15  O   LIG    1        2.433   1.860   1.998  0.00  0.00    -0.487 OA
BRANCH  15  16
ATOM     16  C   LIG    1        1.466   2.354   1.069  0.00  0.00    +0.256 C 
BRANCH  16  19
ATOM     17  C   LIG    1        1.091   1.600  -1.223  0.00  0.00    -0.071 C 
ATOM     18  C   LIG    1        1.177   3.042  -1.651  0.00  0.00    +0.039 C 
ATOM     19  C   LIG    1        1.162   1.288   0.047  0.00  0.00    +0.012 C 
BRANCH  17  20
ATOM     20  C   LIG    1        0.924   0.516  -2.257  0.00  0.00    +0.065 C 
BRANCH  20  21
ATOM     21  C   LIG    1       -0.561   0.353  -2.590  0.00  0.00    +0.141 C 
BRANCH  21  25
ATOM     22  C   LIG    1       -2.024   1.043  -4.900  0.00  0.00    +0.038 C 
ATOM     23  C   LIG    1       -1.345  -0.299  -4.808  0.00  0.00    -0.077 C 
ATOM     24  C   LIG    1       -1.385  -1.246  -5.980  0.00  0.00    +0.038 C 
ATOM     25  C   LIG    1       -0.718  -0.642  -3.710  0.00  0.00    +0.003 C 
ENDBRANCH  21  25
BRANCH  21  26
ATOM     26  O   LIG    1       -1.259  -0.115  -1.434  0.00  0.00    -0.387 OA
ATOM     27  H   LIG    1       -1.258   0.483  -0.511  0.00  0.00    +0.210 HD
ENDBRANCH  21  26
ENDBRANCH  20  21
ENDBRANCH  17  20
ENDBRANCH  16  19
ENDBRANCH  15  16
ENDBRANCH   1  15
TORSDOF 7
