REMARK  Name = ZINC28246012
REMARK                            x       y       z     vdW  Elec       q    Type
REMARK                         _______ _______ _______ _____ _____    ______ ____
ROOT
ATOM      1  C   LIG    1        3.770   0.802  -0.910  0.00  0.00    +0.001 C 
ATOM      2  C   LIG    1        2.446   1.513  -1.195  0.00  0.00    -0.001 C 
ATOM      3  C   LIG    1        3.768   2.171  -1.593  0.00  0.00    +0.032 C 
ENDROOT
BRANCH   3   4
ATOM      4  N   LIG    1        4.218   3.325  -0.802  0.00  0.00    +0.389 N 
ATOM      5  H   LIG    1        3.570   3.439   0.080  0.00  0.00    -0.088 HD
ATOM      6  H   LIG    1        5.256   3.164  -0.476  0.00  0.00    -0.088 HD
ATOM      7  H   LIG    1        4.163   4.235  -1.417  0.00  0.00    -0.088 HD
ENDBRANCH   3   4
BRANCH   3   8
ATOM      8  C   LIG    1        4.108   2.218  -3.061  0.00  0.00    +0.293 C 
ATOM      9  O   LIG    1        3.637   1.401  -3.816  0.00  0.00    -0.253 OA
BRANCH   8  10
ATOM     10  O   LIG    1        4.935   3.166  -3.528  0.00  0.00    -0.482 OA
ATOM     11  H   LIG    1        5.301   3.799  -2.942  0.00  0.00    +0.295 HD
ENDBRANCH   8  10
ENDBRANCH   3   8
BRANCH   2  12
ATOM     12  C   LIG    1        1.692   2.107  -0.003  0.00  0.00    +0.129 C 
BRANCH  12  13
ATOM     13  P   LIG    1       -0.018   1.476   0.010  0.00  0.00    +0.328 P 
ATOM     14  O   LIG    1        0.002  -0.004   0.002  0.00  0.00    -0.259 OA
BRANCH  13  15
ATOM     15  O   LIG    1       -0.772   1.995   1.335  0.00  0.00    -0.324 OA
ATOM     16  H   LIG    1       -1.819   1.714   1.517  0.00  0.00    +0.220 HD
ENDBRANCH  13  15
BRANCH  13  17
ATOM     17  O   LIG    1       -0.797   2.009  -1.294  0.00  0.00    -0.324 OA
ATOM     18  H   LIG    1       -0.343   1.696  -2.092  0.00  0.00    +0.220 HD
ENDBRANCH  13  17
ENDBRANCH  12  13
ENDBRANCH   2  12
TORSDOF 7
