REMARK  Name = ZINC43067863
REMARK                            x       y       z     vdW  Elec       q    Type
REMARK                         _______ _______ _______ _____ _____    ______ ____
ROOT
ATOM      1  C   LIG    1        4.355  -1.086   1.722  0.00  0.00    +0.139 C 
ATOM      2  C   LIG    1        4.351   0.275   2.425  0.00  0.00    +0.049 C 
ATOM      3  C   LIG    1        4.862   0.092   3.863  0.00  0.00    +0.080 C 
ATOM      4  C   LIG    1        4.102  -1.101   4.487  0.00  0.00    +0.024 C 
ATOM      5  C   LIG    1        4.948  -2.339   4.123  0.00  0.00    +0.024 C 
ATOM      6  C   LIG    1        6.139  -1.777   3.313  0.00  0.00    +0.080 C 
ATOM      7  N   LIG    1        6.271  -0.359   3.776  0.00  0.00    -0.279 N 
ATOM      8  C   LIG    1        7.389   0.340   4.056  0.00  0.00    +0.307 C 
ATOM      9  N   LIG    1        8.598  -0.240   3.918  0.00  0.00    -0.269 N 
ATOM     10  H   LIG    1        8.662  -1.178   3.682  0.00  0.00    +0.156 HD
ATOM     11  O   LIG    1        7.307   1.492   4.433  0.00  0.00    -0.252 OA
ATOM     12  C   LIG    1        5.746  -1.718   1.828  0.00  0.00    +0.049 C 
ENDROOT
BRANCH   9  13
ATOM     13  C   LIG    1        9.762   0.513   4.114  0.00  0.00    +0.035 A 
ATOM     14  C   LIG    1       10.889   0.267   3.342  0.00  0.00    +0.025 A 
ATOM     15  C   LIG    1       12.036   1.011   3.538  0.00  0.00    +0.022 A 
ATOM     16  C   LIG    1       12.062   2.002   4.503  0.00  0.00    +0.041 A 
ATOM     17 CL   LIG    1       13.505   2.936   4.747  0.00  0.00    -0.084 Cl
ATOM     18  C   LIG    1       10.940   2.250   5.275  0.00  0.00    +0.022 A 
ATOM     19  C   LIG    1        9.789   1.513   5.078  0.00  0.00    +0.025 A 
ENDBRANCH   9  13
BRANCH   1  20
ATOM     20  S   LIG    1        3.926  -0.862  -0.027  0.00  0.00    -0.000 S 
ATOM     21  O   LIG    1        4.837   0.037  -0.643  0.00  0.00    -0.169 OA
ATOM     22  O   LIG    1        3.633  -2.118  -0.623  0.00  0.00    -0.169 OA
BRANCH  20  26
ATOM     23  C   LIG    1       -0.025   1.346   0.015  0.00  0.00    +0.000 A 
ATOM     24  C   LIG    1        1.162   2.054   0.000  0.00  0.00    +0.002 A 
ATOM     25  C   LIG    1        2.369   1.379  -0.012  0.00  0.00    +0.027 A 
ATOM     26  C   LIG    1        2.388  -0.003  -0.010  0.00  0.00    +0.088 A 
ATOM     27  C   LIG    1        1.201  -0.711   0.006  0.00  0.00    +0.027 A 
ATOM     28  C   LIG    1       -0.006  -0.036   0.018  0.00  0.00    +0.002 A 
ENDBRANCH  20  26
ENDBRANCH   1  20
TORSDOF 3
