REMARK  Name = ZINC26687761
REMARK                            x       y       z     vdW  Elec       q    Type
REMARK                         _______ _______ _______ _____ _____    ______ ____
ROOT
ATOM      1  C   LIG    1        0.002  -0.004   0.002  0.00  0.00    +0.075 A 
ATOM      2  C   LIG    1        1.200  -0.696  -0.013  0.00  0.00    +0.042 A 
ATOM      3  C   LIG    1        2.401   0.001  -0.021  0.00  0.00    +0.079 A 
ATOM      4  C   LIG    1        2.378   1.397  -0.013  0.00  0.00    +0.125 A 
ATOM      5  C   LIG    1        1.129   2.068   0.002  0.00  0.00    +0.231 A 
ATOM      6  N   LIG    1       -0.016   1.362   0.009  0.00  0.00    -0.212 NA
ENDROOT
BRANCH   1  10
ATOM      7  C   LIG    1       -3.660  -2.153   0.023  0.00  0.00    +0.134 A 
ATOM      8  C   LIG    1       -2.453  -2.841   0.008  0.00  0.00    +0.047 A 
ATOM      9  C   LIG    1       -1.263  -2.148  -0.004  0.00  0.00    +0.013 A 
ATOM     10  C   LIG    1       -1.270  -0.750   0.010  0.00  0.00    +0.002 A 
ATOM     11  C   LIG    1       -2.486  -0.061   0.025  0.00  0.00    +0.029 A 
ATOM     12  C   LIG    1       -3.672  -0.763   0.031  0.00  0.00    +0.060 A 
ATOM     13 BR   LIG    1       -5.319   0.167   0.051  0.00  0.00    -0.046 Br
BRANCH   7  15
ATOM     14  C   LIG    1       -4.746  -4.267   0.021  0.00  0.00    +0.277 C 
ATOM     15  O   LIG    1       -4.831  -2.841   0.029  0.00  0.00    -0.494 OA
ENDBRANCH   7  15
ENDBRANCH   1  10
BRANCH   3  16
ATOM     16  C   LIG    1        3.713  -0.740  -0.038  0.00  0.00    +0.419 C 
ATOM     17  F   LIG    1        3.784  -1.537  -1.186  0.00  0.00    -0.166 F 
ATOM     18  F   LIG    1        3.806  -1.550   1.099  0.00  0.00    -0.166 F 
ATOM     19  F   LIG    1        4.768   0.179  -0.043  0.00  0.00    -0.166 F 
ENDBRANCH   3  16
BRANCH   4  20
ATOM     20  C   LIG    1        3.601   2.142  -0.021  0.00  0.00    +0.105 C 
ATOM     21  N   LIG    1        4.571   2.733  -0.028  0.00  0.00    -0.191 NA
ENDBRANCH   4  20
BRANCH   5  22
ATOM     22  O   LIG    1        1.093   3.287   0.009  0.00  0.00    -0.492 OA
ATOM     23  H   LIG    1        1.891   3.779   0.004  0.00  0.00    +0.294 HD
ENDBRANCH   5  22
TORSDOF 5
