REMARK  Name = ZINC22862794
REMARK                            x       y       z     vdW  Elec       q    Type
REMARK                         _______ _______ _______ _____ _____    ______ ____
ROOT
ATOM      1  C   LIG    1        4.858   0.467  -0.721  0.00  0.00    +0.020 A 
ATOM      2  C   LIG    1        3.759  -0.360  -0.708  0.00  0.00    +0.007 A 
ATOM      3  C   LIG    1        2.458   0.181  -0.550  0.00  0.00    -0.024 A 
ATOM      4  C   LIG    1        2.349   1.491  -0.365  0.00  0.00    +0.066 A 
ATOM      5  C   LIG    1        1.135   2.253   0.003  0.00  0.00    +0.136 C 
ATOM      6  C   LIG    1       -0.175   1.646   0.322  0.00  0.00    -0.021 A 
ATOM      7  C   LIG    1       -1.183   2.619   0.500  0.00  0.00    +0.007 A 
ATOM      8  C   LIG    1       -2.494   2.271   0.698  0.00  0.00    +0.020 A 
ATOM      9  C   LIG    1       -2.829   0.927   0.724  0.00  0.00    +0.041 A 
ATOM     10 CL   LIG    1       -4.481   0.435   0.928  0.00  0.00    -0.084 Cl
ATOM     11  C   LIG    1       -1.836  -0.009   0.587  0.00  0.00    +0.024 A 
ATOM     12  C   LIG    1       -0.479   0.356   0.419  0.00  0.00    -0.041 A 
ATOM     13  C   LIG    1        0.379  -0.892   0.420  0.00  0.00    +0.040 C 
ATOM     14  N   LIG    1        3.439   2.283  -0.429  0.00  0.00    -0.258 NA
ATOM     15  C   LIG    1        1.433  -0.926  -0.643  0.00  0.00    +0.041 C 
ATOM     16  C   LIG    1        4.654   1.828  -0.593  0.00  0.00    +0.111 A 
ENDROOT
BRANCH   5  17
ATOM     17  N   LIG    1        0.894   3.202  -1.093  0.00  0.00    -0.294 NA
ATOM     18  C   LIG    1        2.000   4.163  -1.209  0.00  0.00    +0.066 C 
ATOM     19  C   LIG    1        1.675   5.179  -2.307  0.00  0.00    -0.067 C 
ATOM     20  N   LIG    1        1.459   4.473  -3.577  0.00  0.00    +0.381 N 
ATOM     21  H   LIG    1        2.374   3.928  -3.853  0.00  0.00    -0.086 HD
ATOM     22  H   LIG    1        1.214   5.200  -4.364  0.00  0.00    -0.086 HD
ATOM     23  C   LIG    1        0.353   3.512  -3.460  0.00  0.00    -0.067 C 
ATOM     24  C   LIG    1        0.678   2.495  -2.363  0.00  0.00    +0.066 C 
ENDBRANCH   5  17
TORSDOF 1
