REMARK  Name = ZINC00056646
REMARK                            x       y       z     vdW  Elec       q    Type
REMARK                         _______ _______ _______ _____ _____    ______ ____
ROOT
ATOM      1  C   LIG    1       -2.774  -4.035  -0.114  0.00  0.00    +0.258 C 
ENDROOT
BRANCH   1   2
ATOM      2  C   LIG    1       -2.795  -2.505  -0.105  0.00  0.00    +0.135 C 
BRANCH   2   3
ATOM      3  O   LIG    1       -3.486  -2.032  -1.263  0.00  0.00    -0.390 OA
ATOM      4  H   LIG    1       -3.086  -2.307  -2.100  0.00  0.00    +0.210 HD
ENDBRANCH   2   3
BRANCH   2   5
ATOM      5  C   LIG    1       -1.359  -1.976  -0.116  0.00  0.00    -0.047 C 
BRANCH   5   6
ATOM      6  N   LIG    1       -1.376  -0.512   0.012  0.00  0.00    +0.382 N 
ATOM      7  H   LIG    1       -1.888  -0.113  -0.760  0.00  0.00    -0.085 HD
ATOM      8  H   LIG    1       -1.823  -0.256   0.880  0.00  0.00    -0.085 HD
BRANCH   6  10
ATOM      9  C   LIG    1       -0.019   1.526   0.010  0.00  0.00    -0.014 C 
ATOM     10  C   LIG    1        0.002  -0.004   0.002  0.00  0.00    -0.078 C 
ATOM     11  C   LIG    1        0.742  -0.511   1.242  0.00  0.00    -0.014 C 
ENDBRANCH   6  10
ENDBRANCH   5   6
ENDBRANCH   2   5
ENDBRANCH   1   2
BRANCH   1  12
ATOM     12  O   LIG    1       -4.108  -4.530   0.014  0.00  0.00    -0.489 OA
BRANCH  12  13
ATOM     13  C   LIG    1       -4.267  -5.880   0.024  0.00  0.00    +0.130 A 
ATOM     14  C   LIG    1       -3.168  -6.710  -0.081  0.00  0.00    +0.046 A 
ATOM     15  C   LIG    1       -3.328  -8.088  -0.071  0.00  0.00    +0.006 A 
ATOM     16  C   LIG    1       -4.580  -8.651   0.043  0.00  0.00    +0.026 A 
ATOM     17  C   LIG    1       -5.703  -7.835   0.149  0.00  0.00    +0.050 A 
ATOM     18  N   LIG    1       -7.050  -8.091   0.273  0.00  0.00    -0.361 N 
ATOM     19  H   LIG    1       -7.449  -8.975   0.306  0.00  0.00    +0.165 HD
ATOM     20  C   LIG    1       -7.742  -6.912   0.356  0.00  0.00    +0.084 A 
ATOM     21  C   LIG    1       -6.892  -5.877   0.278  0.00  0.00    +0.031 A 
ATOM     22  C   LIG    1       -5.545  -6.438   0.145  0.00  0.00    +0.041 A 
ENDBRANCH  12  13
ENDBRANCH   1  12
TORSDOF 7
