REMARK  Name = ZINC26393498
REMARK                            x       y       z     vdW  Elec       q    Type
REMARK                         _______ _______ _______ _____ _____    ______ ____
ROOT
ATOM      1  C   LIG    1        3.503   2.791   3.963  0.00  0.00    +0.016 C 
ATOM      2  C   LIG    1        2.355   1.787   3.844  0.00  0.00    -0.008 C 
ATOM      3  C   LIG    1        1.436   1.962   5.056  0.00  0.00    +0.014 C 
ATOM      4  C   LIG    1        2.206   1.619   6.333  0.00  0.00    +0.032 C 
ATOM      5  C   LIG    1        2.631   0.150   6.300  0.00  0.00    +0.119 C 
ATOM      6  C   LIG    1        3.603  -0.074   5.137  0.00  0.00    +0.062 C 
ATOM      7  C   LIG    1        1.594   2.098   2.566  0.00  0.00    +0.003 C 
ATOM      8  C   LIG    1        0.167   1.547   2.664  0.00  0.00    +0.005 C 
ATOM      9  C   LIG    1       -0.602   1.991   1.419  0.00  0.00    +0.013 C 
ATOM     10  C   LIG    1        0.054   1.493   0.155  0.00  0.00    +0.012 C 
ATOM     11  C   LIG    1       -0.663   2.129  -1.037  0.00  0.00    +0.018 C 
ATOM     12  C   LIG    1        1.555   1.835   0.063  0.00  0.00    +0.008 C 
ATOM     13  C   LIG    1        1.972   0.758  -0.990  0.00  0.00    +0.033 C 
ATOM     14  C   LIG    1        1.079  -0.421  -0.643  0.00  0.00    -0.004 C 
ATOM     15  C   LIG    1        0.002  -0.004   0.002  0.00  0.00    +0.027 C 
ATOM     16  C   LIG    1        2.278   1.463   1.359  0.00  0.00    +0.001 C 
ATOM     17  C   LIG    1        2.255  -0.059   1.532  0.00  0.00    +0.031 C 
ATOM     18  C   LIG    1        2.897  -0.411   2.844  0.00  0.00    -0.027 C 
ATOM     19  C   LIG    1        2.935   0.403   3.858  0.00  0.00    -0.065 C 
ENDROOT
BRANCH  15  20
ATOM     20  N   LIG    1       -1.024  -0.825   0.468  0.00  0.00    -0.304 N 
ATOM     21  C   LIG    1       -0.993  -1.604   1.585  0.00  0.00    +0.179 A 
ATOM     22  N   LIG    1       -2.122  -2.235   1.722  0.00  0.00    -0.346 N 
ATOM     23  H   LIG    1       -2.277  -2.907   2.579  0.00  0.00    +0.167 HD
ATOM     24  C   LIG    1       -2.954  -1.914   0.698  0.00  0.00    +0.064 A 
ATOM     25  C   LIG    1       -4.253  -2.297   0.356  0.00  0.00    +0.028 A 
ATOM     26  C   LIG    1       -4.841  -1.783  -0.777  0.00  0.00    +0.002 A 
ATOM     27  C   LIG    1       -4.155  -0.886  -1.583  0.00  0.00    +0.002 A 
ATOM     28  C   LIG    1       -2.872  -0.496  -1.260  0.00  0.00    +0.028 A 
ATOM     29  C   LIG    1       -2.263  -1.005  -0.122  0.00  0.00    +0.071 A 
ENDBRANCH  15  20
BRANCH   5  30
ATOM     30  O   LIG    1        3.275  -0.187   7.530  0.00  0.00    -0.391 OA
ATOM     31  H   LIG    1        3.652  -1.208   7.692  0.00  0.00    +0.210 HD
ENDBRANCH   5  30
TORSDOF 2
