REMARK  Name = ZINC37306500
REMARK                            x       y       z     vdW  Elec       q    Type
REMARK                         _______ _______ _______ _____ _____    ______ ____
ROOT
ATOM      1  C   LIG    1        5.250   0.358  -0.046  0.00  0.00    +0.013 A 
ATOM      2  C   LIG    1        4.960   1.717   0.051  0.00  0.00    +0.016 A 
ATOM      3  C   LIG    1        5.979   2.641   0.046  0.00  0.00    +0.020 A 
ATOM      4  C   LIG    1        7.307   2.215  -0.054  0.00  0.00    +0.063 A 
ATOM      5  C   LIG    1        7.596   0.850  -0.150  0.00  0.00    +0.073 A 
ATOM      6  C   LIG    1        6.572  -0.070  -0.140  0.00  0.00    +0.028 A 
ENDROOT
BRANCH   5   7
ATOM      7  C   LIG    1        9.025   0.387  -0.260  0.00  0.00    +0.419 C 
ATOM      8  F   LIG    1        9.738   0.803   0.870  0.00  0.00    -0.166 F 
ATOM      9  F   LIG    1        9.607   0.936  -1.407  0.00  0.00    -0.166 F 
ATOM     10  F   LIG    1        9.058  -1.009  -0.343  0.00  0.00    -0.166 F 
ENDBRANCH   5   7
BRANCH   4  11
ATOM     11  C   LIG    1        8.370   3.175  -0.059  0.00  0.00    +0.100 C 
ATOM     12  N   LIG    1        9.213   3.936  -0.063  0.00  0.00    -0.191 NA
ENDBRANCH   4  11
BRANCH   1  13
ATOM     13  S   LIG    1        3.942  -0.823  -0.041  0.00  0.00    -0.087 S 
BRANCH  13  17
ATOM     14  C   LIG    1        3.144  -1.592  -4.433  0.00  0.00    +0.003 A 
ATOM     15  C   LIG    1        4.050  -0.618  -4.056  0.00  0.00    +0.001 A 
ATOM     16  C   LIG    1        4.295  -0.380  -2.718  0.00  0.00    +0.018 A 
ATOM     17  C   LIG    1        3.632  -1.122  -1.749  0.00  0.00    +0.048 A 
ATOM     18  C   LIG    1        2.721  -2.102  -2.131  0.00  0.00    +0.137 A 
ATOM     19  F   LIG    1        2.073  -2.826  -1.193  0.00  0.00    -0.204 F 
ATOM     20  C   LIG    1        2.481  -2.334  -3.473  0.00  0.00    +0.039 A 
ENDBRANCH  13  17
ENDBRANCH   1  13
TORSDOF 4
