REMARK  Name = ZINC13808173
REMARK                            x       y       z     vdW  Elec       q    Type
REMARK                         _______ _______ _______ _____ _____    ______ ____
ROOT
ATOM      1  S   LIG    1        5.231  -2.823  -0.063  0.00  0.00    +0.086 S 
ATOM      2  O   LIG    1        6.181  -1.923  -0.619  0.00  0.00    -0.151 OA
ATOM      3  O   LIG    1        4.984  -4.107  -0.618  0.00  0.00    -0.151 OA
ENDROOT
BRANCH   1   9
ATOM      4  C   LIG    1       -0.016   1.357   0.009  0.00  0.00    +0.001 A 
ATOM      5  C   LIG    1        1.169   2.091   0.002  0.00  0.00    +0.001 A 
ATOM      6  C   LIG    1        2.378   1.468  -0.013  0.00  0.00    +0.008 A 
ATOM      7  C   LIG    1        2.438   0.063  -0.021  0.00  0.00    -0.016 A 
ATOM      8  C   LIG    1        3.668  -0.615  -0.036  0.00  0.00    +0.037 A 
ATOM      9  C   LIG    1        3.687  -1.976  -0.043  0.00  0.00    +0.109 A 
ATOM     10  C   LIG    1        2.502  -2.710  -0.036  0.00  0.00    +0.029 A 
ATOM     11  C   LIG    1        1.292  -2.087  -0.021  0.00  0.00    +0.010 A 
ATOM     12  C   LIG    1        1.233  -0.683  -0.013  0.00  0.00    -0.018 A 
ATOM     13  C   LIG    1        0.002  -0.004   0.002  0.00  0.00    +0.008 A 
ENDBRANCH   1   9
BRANCH   1  14
ATOM     14  N   LIG    1        5.677  -3.066   1.513  0.00  0.00    -0.050 NA
ATOM     15  H   LIG    1        6.507  -2.692   1.846  0.00  0.00    +0.191 HD
BRANCH  14  16
ATOM     16  N   LIG    1        4.854  -3.813   2.366  0.00  0.00    -0.182 N 
ATOM     17  H   LIG    1        3.924  -3.563   2.484  0.00  0.00    +0.285 HD
BRANCH  16  18
ATOM     18  C   LIG    1        5.364  -4.899   3.037  0.00  0.00    +0.394 C 
ATOM     19  N   LIG    1        6.614  -5.234   2.879  0.00  0.00    -0.128 NA
ATOM     20  H   LIG    1        7.183  -4.717   2.288  0.00  0.00    +0.306 HD
BRANCH  18  21
ATOM     21  N   LIG    1        4.556  -5.632   3.874  0.00  0.00    -0.288 N 
ATOM     22  H   LIG    1        4.916  -6.398   4.347  0.00  0.00    +0.255 HD
ATOM     23  H   LIG    1        3.626  -5.382   3.992  0.00  0.00    +0.255 HD
ENDBRANCH  18  21
ENDBRANCH  16  18
ENDBRANCH  14  16
ENDBRANCH   1  14
TORSDOF 5
