REMARK  Name = ZINC18144244
REMARK                            x       y       z     vdW  Elec       q    Type
REMARK                         _______ _______ _______ _____ _____    ______ ____
ROOT
ATOM      1  C   LIG    1        1.252  -2.160  -0.022  0.00  0.00    +0.253 C 
ATOM      2  N   LIG    1        1.253  -2.827  -1.193  0.00  0.00    -0.249 N 
ATOM      3  H   LIG    1        1.236  -2.337  -2.030  0.00  0.00    +0.158 HD
ATOM      4  O   LIG    1        1.273  -2.773   1.027  0.00  0.00    -0.270 OA
ENDROOT
BRANCH   1  11
ATOM      5  C   LIG    1       -0.017   1.376   0.010  0.00  0.00    +0.022 A 
ATOM      6  C   LIG    1        1.170   2.088   0.002  0.00  0.00    +0.023 A 
ATOM      7  C   LIG    1        2.384   1.423  -0.013  0.00  0.00    +0.060 A 
ATOM      8 CL   LIG    1        3.866   2.327  -0.023  0.00  0.00    -0.082 Cl
ATOM      9  C   LIG    1        2.418   0.042  -0.021  0.00  0.00    +0.073 A 
ATOM     10 CL   LIG    1        3.941  -0.791  -0.041  0.00  0.00    -0.081 Cl
ATOM     11  C   LIG    1        1.224  -0.683  -0.013  0.00  0.00    +0.075 A 
ATOM     12  C   LIG    1        0.002  -0.004   0.002  0.00  0.00    +0.055 A 
ATOM     13 CL   LIG    1       -1.488  -0.894   0.012  0.00  0.00    -0.083 Cl
ENDBRANCH   1  11
BRANCH   2  14
ATOM     14  C   LIG    1        1.280  -4.224  -1.201  0.00  0.00    +0.241 A 
ATOM     15  N   LIG    1        1.299  -4.994  -0.139  0.00  0.00    -0.136 NA
ATOM     16  N   LIG    1        1.321  -6.320  -0.601  0.00  0.00    -0.264 N 
ATOM     17  H   LIG    1        1.339  -7.124  -0.058  0.00  0.00    +0.190 HD
ATOM     18  C   LIG    1        1.314  -6.257  -1.943  0.00  0.00    +0.217 A 
ATOM     19  N   LIG    1        1.284  -4.996  -2.292  0.00  0.00    -0.202 NA
ENDBRANCH   2  14
TORSDOF 2
