REMARK  Name = ZINC16399231
REMARK                            x       y       z     vdW  Elec       q    Type
REMARK                         _______ _______ _______ _____ _____    ______ ____
ROOT
ATOM      1  N   LIG    1        0.662   2.159  -0.795  0.00  0.00    -0.224 N 
ATOM      2  C   LIG    1       -0.388   1.626  -0.194  0.00  0.00    +0.263 C 
ATOM      3  C   LIG    1       -0.427   0.152  -0.113  0.00  0.00    +0.077 C 
ATOM      4  S   LIG    1        1.101  -0.269  -0.941  0.00  0.00    -0.061 S 
ATOM      5  C   LIG    1       -1.365  -0.660   0.438  0.00  0.00    +0.028 C 
ATOM      6  O   LIG    1       -1.279   2.315   0.266  0.00  0.00    -0.269 OA
ATOM      7  C   LIG    1        1.646   1.391  -1.308  0.00  0.00    +0.125 C 
ATOM      8  S   LIG    1        3.071   1.888  -2.116  0.00  0.00    -0.027 S 
ENDROOT
BRANCH   1  13
ATOM      9  C   LIG    1        1.820   5.615  -0.300  0.00  0.00    +0.002 A 
ATOM     10  C   LIG    1        0.939   6.305  -1.113  0.00  0.00    +0.012 A 
ATOM     11  C   LIG    1       -0.032   5.622  -1.821  0.00  0.00    +0.057 A 
ATOM     12  C   LIG    1       -0.126   4.248  -1.718  0.00  0.00    +0.036 A 
ATOM     13  C   LIG    1        0.756   3.553  -0.902  0.00  0.00    +0.043 A 
ATOM     14  C   LIG    1        1.728   4.242  -0.189  0.00  0.00    +0.024 A 
BRANCH  11  15
ATOM     15  C   LIG    1       -0.989   6.378  -2.707  0.00  0.00    +0.417 C 
ATOM     16  F   LIG    1       -1.378   5.564  -3.776  0.00  0.00    -0.166 F 
ATOM     17  F   LIG    1       -0.361   7.527  -3.199  0.00  0.00    -0.166 F 
ATOM     18  F   LIG    1       -2.118   6.745  -1.966  0.00  0.00    -0.166 F 
ENDBRANCH  11  15
ENDBRANCH   1  13
BRANCH   5  19
ATOM     19  C   LIG    1       -1.269  -2.115   0.267  0.00  0.00    -0.024 A 
ATOM     20  C   LIG    1       -0.327  -2.658  -0.616  0.00  0.00    +0.011 A 
ATOM     21  C   LIG    1       -0.237  -4.023  -0.767  0.00  0.00    +0.046 A 
ATOM     22  C   LIG    1       -1.087  -4.862  -0.056  0.00  0.00    +0.121 A 
ATOM     23  C   LIG    1       -2.027  -4.328   0.817  0.00  0.00    +0.046 A 
ATOM     24  C   LIG    1       -2.122  -2.965   0.982  0.00  0.00    +0.011 A 
BRANCH  22  25
ATOM     25  O   LIG    1       -0.998  -6.207  -0.214  0.00  0.00    -0.481 OA
BRANCH  25  26
ATOM     26  C   LIG    1       -0.009  -6.689  -1.127  0.00  0.00    +0.349 C 
BRANCH  26  27
ATOM     27  C   LIG    1       -0.058  -8.195  -1.171  0.00  0.00    +0.343 C 
ATOM     28  O   LIG    1       -0.858  -8.794  -0.491  0.00  0.00    -0.247 OA
BRANCH  27  29
ATOM     29  O   LIG    1        0.786  -8.871  -1.966  0.00  0.00    -0.478 OA
ATOM     30  H   LIG    1        1.406  -8.406  -2.494  0.00  0.00    +0.295 HD
ENDBRANCH  27  29
ENDBRANCH  26  27
ENDBRANCH  25  26
ENDBRANCH  22  25
ENDBRANCH   5  19
TORSDOF 7
