REMARK  Name = ZINC53057273
REMARK                            x       y       z     vdW  Elec       q    Type
REMARK                         _______ _______ _______ _____ _____    ______ ____
ROOT
ATOM      1  N   LIG    1       -1.198  -0.721   0.010  0.00  0.00    -0.327 N 
ATOM      2  C   LIG    1       -2.490  -0.028   0.131  0.00  0.00    +0.120 C 
ATOM      3  C   LIG    1       -3.291  -0.685   1.259  0.00  0.00    +0.103 C 
ATOM      4  N   LIG    1       -3.381  -2.131   1.014  0.00  0.00    -0.295 NA
ATOM      5  C   LIG    1       -2.054  -2.759   1.036  0.00  0.00    +0.103 C 
ATOM      6  C   LIG    1       -1.202  -2.187  -0.108  0.00  0.00    +0.120 C 
ENDROOT
BRANCH   1  13
ATOM      7  C   LIG    1        1.216  -0.679   0.001  0.00  0.00    +0.024 A 
ATOM      8  C   LIG    1        2.400   0.031  -0.007  0.00  0.00    +0.022 A 
ATOM      9  C   LIG    1        2.378   1.415  -0.014  0.00  0.00    +0.041 A 
ATOM     10 CL   LIG    1        3.869   2.305  -0.025  0.00  0.00    -0.084 Cl
ATOM     11  C   LIG    1        1.170   2.090  -0.013  0.00  0.00    +0.022 A 
ATOM     12  C   LIG    1       -0.017   1.385  -0.005  0.00  0.00    +0.024 A 
ATOM     13  C   LIG    1        0.002  -0.004   0.002  0.00  0.00    +0.030 A 
ENDBRANCH   1  13
BRANCH   4  14
ATOM     14  C   LIG    1       -4.285  -2.773   1.978  0.00  0.00    +0.119 C 
BRANCH  14  15
ATOM     15  C   LIG    1       -4.546  -4.195   1.552  0.00  0.00    -0.030 A 
ATOM     16  C   LIG    1       -5.606  -4.478   0.711  0.00  0.00    +0.007 A 
ATOM     17  C   LIG    1       -5.852  -5.780   0.315  0.00  0.00    +0.027 A 
ATOM     18  C   LIG    1       -5.032  -6.802   0.763  0.00  0.00    +0.076 A 
ATOM     19  C   LIG    1       -3.963  -6.517   1.611  0.00  0.00    +0.143 A 
ATOM     20  O   LIG    1       -3.166  -7.529   2.047  0.00  0.00    -0.481 OA
ATOM     21  C   LIG    1       -3.791  -8.800   2.245  0.00  0.00    +0.325 C 
ATOM     22  C   LIG    1       -4.661  -9.126   1.058  0.00  0.00    +0.255 C 
ATOM     23  O   LIG    1       -4.822 -10.280   0.720  0.00  0.00    -0.272 OA
ATOM     24  N   LIG    1       -5.262  -8.129   0.373  0.00  0.00    -0.280 N 
ATOM     25  H   LIG    1       -5.844  -8.328  -0.377  0.00  0.00    +0.155 HD
ATOM     26  C   LIG    1       -3.720  -5.210   1.998  0.00  0.00    +0.052 A 
ENDBRANCH  14  15
ENDBRANCH   4  14
TORSDOF 3
