REMARK  Name = ZINC19537365
REMARK                            x       y       z     vdW  Elec       q    Type
REMARK                         _______ _______ _______ _____ _____    ______ ____
ROOT
ATOM      1  N   LIG    1        2.442   6.075  -4.738  0.00  0.00    +0.384 N 
ATOM      2  H   LIG    1        2.236   5.401  -5.583  0.00  0.00    -0.081 HD
ATOM      3  C   LIG    1        3.874   5.983  -4.423  0.00  0.00    -0.063 C 
ATOM      4  C   LIG    1        4.225   4.534  -4.075  0.00  0.00    +0.066 C 
ATOM      5  N   LIG    1        3.408   4.095  -2.935  0.00  0.00    -0.302 NA
ATOM      6  C   LIG    1        1.976   4.187  -3.250  0.00  0.00    +0.066 C 
ATOM      7  C   LIG    1        1.625   5.636  -3.598  0.00  0.00    -0.063 C 
ENDROOT
BRANCH   1   8
ATOM      8  C   LIG    1        2.080   7.437  -5.151  0.00  0.00    -0.043 C 
BRANCH   8  12
ATOM      9  C   LIG    1       -2.173   7.778  -5.369  0.00  0.00    +0.000 A 
ATOM     10  C   LIG    1       -1.516   8.063  -4.186  0.00  0.00    +0.000 A 
ATOM     11  C   LIG    1       -0.140   7.952  -4.115  0.00  0.00    +0.002 A 
ATOM     12  C   LIG    1        0.580   7.558  -5.228  0.00  0.00    -0.064 A 
ATOM     13  C   LIG    1       -0.076   7.279  -6.412  0.00  0.00    +0.002 A 
ATOM     14  C   LIG    1       -1.453   7.384  -6.481  0.00  0.00    +0.000 A 
ENDBRANCH   8  12
ENDBRANCH   1   8
BRANCH   5  15
ATOM     15  C   LIG    1        3.770   2.733  -2.522  0.00  0.00    +0.119 C 
BRANCH  15  16
ATOM     16  C   LIG    1        3.096   2.409  -1.213  0.00  0.00    -0.030 A 
ATOM     17  C   LIG    1        3.734   2.692  -0.019  0.00  0.00    +0.005 A 
ATOM     18  C   LIG    1        3.119   2.397   1.183  0.00  0.00    +0.004 A 
ATOM     19  C   LIG    1        1.863   1.822   1.195  0.00  0.00    +0.045 A 
ATOM     20  C   LIG    1        1.223   1.532  -0.001  0.00  0.00    +0.117 A 
ATOM     21  C   LIG    1        1.842   1.830  -1.207  0.00  0.00    +0.050 A 
BRANCH  20  22
ATOM     22  O   LIG    1       -0.011   0.963   0.007  0.00  0.00    -0.507 OA
ATOM     23  H   LIG    1       -0.517   0.733  -0.942  0.00  0.00    +0.292 HD
ENDBRANCH  20  22
ENDBRANCH  15  16
ENDBRANCH   5  15
TORSDOF 5
