REMARK  Name = ZINC34801315
REMARK                            x       y       z     vdW  Elec       q    Type
REMARK                         _______ _______ _______ _____ _____    ______ ____
ROOT
ATOM      1  C   LIG    1       -0.998  -0.661   0.431  0.00  0.00    +0.061 C 
ATOM      2  C   LIG    1       -1.295  -0.457  -1.082  0.00  0.00    +0.012 C 
ATOM      3  C   LIG    1       -2.127  -1.692  -1.524  0.00  0.00    +0.005 C 
ATOM      4  C   LIG    1       -2.367  -2.456  -0.220  0.00  0.00    -0.001 C 
ATOM      5  C   LIG    1       -2.753  -3.896  -0.294  0.00  0.00    -0.004 C 
ATOM      6  C   LIG    1       -2.703  -4.480  -1.704  0.00  0.00    +0.006 C 
ATOM      7  C   LIG    1       -3.317  -5.889  -1.673  0.00  0.00    +0.023 C 
ATOM      8  C   LIG    1       -3.710  -6.256  -0.251  0.00  0.00    +0.082 C 
ATOM      9  C   LIG    1       -2.521  -6.163   0.704  0.00  0.00    -0.010 C 
ATOM     10  C   LIG    1       -1.442  -7.172   0.292  0.00  0.00    +0.013 C 
ATOM     11  C   LIG    1       -3.001  -6.483   2.118  0.00  0.00    +0.018 C 
ATOM     12  C   LIG    1       -3.479  -7.934   2.186  0.00  0.00    +0.096 C 
ATOM     13  C   LIG    1       -4.218  -8.335   0.947  0.00  0.00    +0.216 C 
ATOM     14  O   LIG    1       -4.765  -9.419   0.934  0.00  0.00    -0.276 OA
ATOM     15  N   LIG    1       -4.316  -7.576  -0.152  0.00  0.00    -0.301 N 
ATOM     16  C   LIG    1       -5.077  -8.108  -1.283  0.00  0.00    +0.132 C 
ATOM     17  C   LIG    1       -1.905  -4.763   0.635  0.00  0.00    +0.000 C 
ATOM     18  C   LIG    1       -1.760  -4.138   2.010  0.00  0.00    +0.005 C 
ATOM     19  C   LIG    1       -1.175  -2.722   1.966  0.00  0.00    +0.008 C 
ATOM     20  C   LIG    1       -1.058  -2.207   0.557  0.00  0.00    -0.019 C 
ATOM     21  C   LIG    1        0.179  -2.762  -0.152  0.00  0.00    +0.012 C 
ENDROOT
BRANCH   1  23
ATOM     22  C   LIG    1        0.759   0.043   2.223  0.00  0.00    +0.086 C 
ATOM     23  C   LIG    1        0.376  -0.163   0.780  0.00  0.00    +0.134 C 
ATOM     24  O   LIG    1        1.174   0.072  -0.096  0.00  0.00    -0.297 OA
ENDBRANCH   1  23
TORSDOF 1
