REMARK  Name = ZINC14966758
REMARK                            x       y       z     vdW  Elec       q    Type
REMARK                         _______ _______ _______ _____ _____    ______ ____
ROOT
ATOM      1  N   LIG    1       -0.723   1.572  -1.182  0.00  0.00    -0.309 NA
ATOM      2  H   LIG    1       -0.738   2.672  -1.159  0.00  0.00    +0.122 HD
ENDROOT
BRANCH   1   3
ATOM      3  C   LIG    1       -0.062   1.117  -2.413  0.00  0.00    +0.120 C 
BRANCH   3   9
ATOM      4  C   LIG    1       -0.633   2.942  -4.035  0.00  0.00    +0.124 A 
ATOM      5  C   LIG    1       -1.329   3.415  -5.138  0.00  0.00    +0.046 A 
ATOM      6  C   LIG    1       -2.205   2.584  -5.809  0.00  0.00    +0.004 A 
ATOM      7  C   LIG    1       -2.388   1.281  -5.382  0.00  0.00    +0.001 A 
ATOM      8  C   LIG    1       -1.691   0.806  -4.287  0.00  0.00    +0.008 A 
ATOM      9  C   LIG    1       -0.818   1.635  -3.609  0.00  0.00    +0.008 A 
BRANCH   4  11
ATOM     10  C   LIG    1        0.371   5.091  -3.868  0.00  0.00    +0.277 C 
ATOM     11  O   LIG    1        0.230   3.757  -3.374  0.00  0.00    -0.495 OA
ENDBRANCH   4  11
ENDBRANCH   3   9
ENDBRANCH   1   3
BRANCH   1  12
ATOM     12  C   LIG    1       -0.013   1.086   0.008  0.00  0.00    +0.117 C 
BRANCH  12  13
ATOM     13  C   LIG    1       -0.729   1.579   1.267  0.00  0.00    +0.158 C 
BRANCH  13  14
ATOM     14  C   LIG    1        0.067   1.185   2.485  0.00  0.00    -0.017 A 
ATOM     15  C   LIG    1        0.885   2.110   3.106  0.00  0.00    +0.006 A 
ATOM     16  C   LIG    1        1.614   1.749   4.223  0.00  0.00    +0.001 A 
ATOM     17  C   LIG    1        1.525   0.462   4.720  0.00  0.00    +0.015 A 
ATOM     18  C   LIG    1        0.707  -0.464   4.099  0.00  0.00    +0.018 A 
ATOM     19 BR   LIG    1        0.586  -2.225   4.778  0.00  0.00    -0.050 Br
ATOM     20  C   LIG    1       -0.026  -0.101   2.984  0.00  0.00    +0.021 A 
ENDBRANCH  13  14
BRANCH  13  21
ATOM     21  O   LIG    1       -2.030   0.991   1.336  0.00  0.00    -0.386 OA
ATOM     22  H   LIG    1       -2.696   1.230   2.178  0.00  0.00    +0.210 HD
ENDBRANCH  13  21
ENDBRANCH  12  13
ENDBRANCH   1  12
TORSDOF 7
