REMARK  Name = ZINC19362650
REMARK                            x       y       z     vdW  Elec       q    Type
REMARK                         _______ _______ _______ _____ _____    ______ ____
ROOT
ATOM      1  C   LIG    1       -0.632  -4.009   1.196  0.00  0.00    +0.092 C 
ATOM      2  C   LIG    1        0.295  -4.447   2.284  0.00  0.00    +0.060 C 
ATOM      3  C   LIG    1        0.636  -5.898   2.202  0.00  0.00    -0.032 A 
ATOM      4  C   LIG    1        1.871  -6.280   1.692  0.00  0.00    +0.005 A 
ATOM      5  C   LIG    1        2.181  -7.623   1.581  0.00  0.00    +0.000 A 
ATOM      6  C   LIG    1        1.269  -8.588   1.969  0.00  0.00    +0.001 A 
ATOM      7  C   LIG    1        0.045  -8.208   2.489  0.00  0.00    +0.015 A 
ATOM      8  C   LIG    1       -0.246  -6.854   2.614  0.00  0.00    +0.016 A 
ATOM      9  S   LIG    1       -1.751  -6.330   3.356  0.00  0.00    -0.089 S 
ATOM     10  C   LIG    1       -2.612  -5.413   2.130  0.00  0.00    +0.017 A 
ATOM     11  C   LIG    1       -3.984  -5.705   2.024  0.00  0.00    +0.016 A 
ATOM     12  C   LIG    1       -4.798  -5.056   1.134  0.00  0.00    +0.016 A 
ATOM     13  C   LIG    1       -4.250  -4.076   0.314  0.00  0.00    +0.008 A 
ATOM     14  C   LIG    1       -2.903  -3.795   0.406  0.00  0.00    +0.021 A 
ATOM     15  C   LIG    1       -2.060  -4.464   1.306  0.00  0.00    -0.015 A 
ENDROOT
BRANCH   1  21
ATOM     16  C   LIG    1        0.221   1.515   1.906  0.00  0.00    -0.096 C 
ATOM     17  N   LIG    1        0.252   0.049   1.985  0.00  0.00    +0.379 N 
ATOM     18  H   LIG    1        0.917  -0.236   2.688  0.00  0.00    -0.082 HD
ATOM     19  C   LIG    1        0.649  -0.504   0.684  0.00  0.00    -0.064 C 
ATOM     20  C   LIG    1        0.699  -2.031   0.771  0.00  0.00    +0.066 C 
ATOM     21  N   LIG    1       -0.624  -2.541   1.156  0.00  0.00    -0.299 NA
ATOM     22  C   LIG    1       -1.046  -1.977   2.446  0.00  0.00    +0.066 C 
ATOM     23  C   LIG    1       -1.082  -0.450   2.345  0.00  0.00    -0.064 C 
ENDBRANCH   1  21
BRANCH  13  24
ATOM     24  S   LIG    1       -5.265  -3.204  -0.832  0.00  0.00    -0.129 S 
ATOM     25  C   LIG    1       -6.916  -3.913  -0.584  0.00  0.00    +0.090 C 
ENDBRANCH  13  24
TORSDOF 2
