REMARK  Name = ZINC44359329
REMARK                            x       y       z     vdW  Elec       q    Type
REMARK                         _______ _______ _______ _____ _____    ______ ____
ROOT
ATOM      1  C   LIG    1        2.841  -6.967  -0.013  0.00  0.00    +0.045 A 
ATOM      2  C   LIG    1        1.524  -6.566  -0.265  0.00  0.00    +0.055 A 
ATOM      3  C   LIG    1        0.492  -7.449  -0.141  0.00  0.00    +0.140 A 
ATOM      4  C   LIG    1        0.728  -8.774   0.238  0.00  0.00    +0.064 A 
ATOM      5  C   LIG    1        2.034  -9.201   0.495  0.00  0.00    +0.057 A 
ATOM      6  C   LIG    1        2.307 -10.591   0.895  0.00  0.00    +0.196 C 
ATOM      7  O   LIG    1        1.400 -11.319   1.249  0.00  0.00    -0.287 OA
ATOM      8  C   LIG    1        3.700 -11.094   0.845  0.00  0.00    +0.033 A 
ATOM      9  C   LIG    1        3.965 -12.457   0.933  0.00  0.00    +0.012 A 
ATOM     10  C   LIG    1        5.272 -12.907   0.892  0.00  0.00    +0.001 A 
ATOM     11  C   LIG    1        6.319 -12.011   0.766  0.00  0.00    +0.001 A 
ATOM     12  C   LIG    1        6.073 -10.653   0.678  0.00  0.00    +0.012 A 
ATOM     13  C   LIG    1        4.764 -10.183   0.717  0.00  0.00    +0.033 A 
ATOM     14  C   LIG    1        4.481  -8.734   0.624  0.00  0.00    +0.196 C 
ATOM     15  O   LIG    1        5.376  -7.922   0.763  0.00  0.00    -0.287 OA
ATOM     16  C   LIG    1        3.104  -8.287   0.362  0.00  0.00    +0.056 A 
ENDROOT
BRANCH   3  17
ATOM     17  S   LIG    1       -1.155  -6.915  -0.464  0.00  0.00    +0.111 S 
ATOM     18  O   LIG    1       -2.018  -7.615   0.475  0.00  0.00    -0.142 OA
ATOM     19  O   LIG    1       -1.452  -7.269  -1.843  0.00  0.00    -0.142 OA
BRANCH  17  20
ATOM     20  O   LIG    1       -1.181  -5.475  -0.255  0.00  0.00    -0.250 OA
ATOM     21  H   LIG    1       -0.596  -5.045  -0.898  0.00  0.00    +0.245 HD
ENDBRANCH  17  20
ENDBRANCH   3  17
BRANCH   4  22
ATOM     22  N   LIG    1       -0.329  -9.662   0.360  0.00  0.00    -0.356 N 
ATOM     23  H   LIG    1       -0.268 -10.407   0.978  0.00  0.00    +0.142 HD
ATOM     24  H   LIG    1       -1.131  -9.538  -0.172  0.00  0.00    +0.142 HD
ENDBRANCH   4  22
BRANCH   1  25
ATOM     25  N   LIG    1        3.881  -6.060  -0.142  0.00  0.00    -0.314 N 
ATOM     26  H   LIG    1        4.041  -5.404   0.554  0.00  0.00    +0.152 HD
BRANCH  25  30
ATOM     27  C   LIG    1        6.320  -6.150  -3.521  0.00  0.00    +0.059 A 
ATOM     28  C   LIG    1        5.194  -6.962  -3.455  0.00  0.00    +0.027 A 
ATOM     29  C   LIG    1        4.387  -6.933  -2.336  0.00  0.00    +0.025 A 
ATOM     30  C   LIG    1        4.699  -6.090  -1.276  0.00  0.00    +0.033 A 
ATOM     31  C   LIG    1        5.824  -5.279  -1.342  0.00  0.00    +0.054 A 
ATOM     32  C   LIG    1        6.635  -5.312  -2.459  0.00  0.00    +0.140 A 
BRANCH  32  33
ATOM     33  S   LIG    1        8.066  -4.287  -2.541  0.00  0.00    +0.111 S 
ATOM     34  O   LIG    1        8.495  -4.051  -1.171  0.00  0.00    -0.142 OA
ATOM     35  O   LIG    1        7.666  -3.055  -3.204  0.00  0.00    -0.142 OA
BRANCH  33  36
ATOM     36  O   LIG    1        9.065  -5.016  -3.306  0.00  0.00    -0.250 OA
ATOM     37  H   LIG    1        8.743  -5.153  -4.211  0.00  0.00    +0.245 HD
ENDBRANCH  33  36
ENDBRANCH  32  33
BRANCH  27  38
ATOM     38  N   LIG    1        7.138  -6.180  -4.656  0.00  0.00    -0.313 N 
ATOM     39  H   LIG    1        7.769  -6.907  -4.779  0.00  0.00    +0.152 HD
BRANCH  38  43
ATOM     40  C   LIG    1        6.865  -3.154  -7.502  0.00  0.00    +0.000 A 
ATOM     41  C   LIG    1        7.839  -4.128  -7.623  0.00  0.00    +0.002 A 
ATOM     42  C   LIG    1        7.932  -5.133  -6.681  0.00  0.00    +0.023 A 
ATOM     43  C   LIG    1        7.047  -5.165  -5.610  0.00  0.00    +0.031 A 
ATOM     44  C   LIG    1        6.070  -4.184  -5.492  0.00  0.00    +0.023 A 
ATOM     45  C   LIG    1        5.982  -3.182  -6.438  0.00  0.00    +0.002 A 
ENDBRANCH  38  43
ENDBRANCH  27  38
ENDBRANCH  25  30
ENDBRANCH   1  25
TORSDOF 9
