REMARK  Name = ZINC49792055
REMARK                            x       y       z     vdW  Elec       q    Type
REMARK                         _______ _______ _______ _____ _____    ______ ____
ROOT
ATOM      1  C   LIG    1       -1.280   1.782  -0.930  0.00  0.00    +0.007 C 
ATOM      2  C   LIG    1       -0.934   0.290  -1.006  0.00  0.00    -0.011 C 
ATOM      3  C   LIG    1       -0.672  -0.085  -2.466  0.00  0.00    +0.037 C 
ATOM      4  C   LIG    1       -1.944  -0.490  -3.199  0.00  0.00    +0.147 C 
ATOM      5  C   LIG    1       -1.781  -1.880  -3.820  0.00  0.00    +0.150 C 
ATOM      6  C   LIG    1       -2.924  -2.139  -4.811  0.00  0.00    +0.040 C 
ATOM      7  C   LIG    1       -2.315  -2.526  -6.166  0.00  0.00    +0.014 C 
ATOM      8  C   LIG    1       -3.777  -3.272  -4.322  0.00  0.00    -0.019 C 
ATOM      9  C   LIG    1       -5.055  -3.179  -4.066  0.00  0.00    -0.033 C 
ATOM     10  C   LIG    1       -5.818  -1.897  -4.274  0.00  0.00    +0.042 C 
ATOM     11  C   LIG    1       -5.790  -4.399  -3.550  0.00  0.00    +0.236 C 
ATOM     12  C   LIG    1       -5.394  -4.663  -2.095  0.00  0.00    +0.186 C 
ATOM     13  C   LIG    1       -6.592  -4.538  -1.194  0.00  0.00    +0.008 C 
ATOM     14  C   LIG    1       -6.494  -4.091   0.058  0.00  0.00    -0.001 C 
ATOM     15  C   LIG    1       -5.215  -3.731   0.639  0.00  0.00    +0.008 C 
ATOM     16  C   LIG    1       -5.050  -2.693   1.484  0.00  0.00    +0.013 C 
ATOM     17  C   LIG    1       -6.208  -1.839   1.914  0.00  0.00    +0.049 C 
ATOM     18  C   LIG    1       -3.692  -2.419   1.968  0.00  0.00    +0.264 C 
ATOM     19  N   LIG    1       -3.356  -1.323   2.609  0.00  0.00    -0.173 NA
ATOM     20  C   LIG    1       -2.252  -0.635   2.438  0.00  0.00    +0.103 C 
ATOM     21  C   LIG    1       -2.017   0.487   3.267  0.00  0.00    +0.076 C 
ATOM     22  C   LIG    1       -0.903   1.249   3.111  0.00  0.00    +0.140 C 
ATOM     23  C   LIG    1        0.117   0.930   2.105  0.00  0.00    +0.088 C 
ATOM     24  C   LIG    1        0.044  -0.299   1.259  0.00  0.00    +0.114 C 
ATOM     25  N   LIG    1        1.117   1.736   1.961  0.00  0.00    -0.280 NA
ATOM     26  C   LIG    1       -1.269  -1.008   1.398  0.00  0.00    +0.188 C 
ATOM     27  O   LIG    1       -1.510  -1.907   0.628  0.00  0.00    -0.290 OA
ATOM     28  O   LIG    1       -2.854  -3.289   1.771  0.00  0.00    -0.268 OA
ATOM     29  C   LIG    1        0.342   0.030  -0.197  0.00  0.00    +0.021 C 
ENDROOT
BRANCH   4  30
ATOM     30  O   LIG    1       -3.064  -0.497  -2.315  0.00  0.00    -0.377 OA
ATOM     31  C   LIG    1       -3.265  -1.740  -1.641  0.00  0.00    +0.194 C 
ENDBRANCH   4  30
BRANCH   5  32
ATOM     32  O   LIG    1       -0.535  -1.953  -4.516  0.00  0.00    -0.389 OA
ATOM     33  H   LIG    1       -0.368  -2.808  -4.934  0.00  0.00    +0.210 HD
ENDBRANCH   5  32
BRANCH  12  34
ATOM     34  O   LIG    1       -4.386  -3.720  -1.724  0.00  0.00    -0.372 OA
ATOM     35  C   LIG    1       -3.121  -4.310  -1.421  0.00  0.00    +0.195 C 
ENDBRANCH  12  34
BRANCH  22  36
ATOM     36  O   LIG    1       -0.722   2.325   3.909  0.00  0.00    -0.505 OA
ATOM     37  H   LIG    1       -1.433   2.464   4.550  0.00  0.00    +0.292 HD
ENDBRANCH  22  36
BRANCH  11  38
ATOM     38  O   LIG    1       -7.194  -4.162  -3.640  0.00  0.00    -0.440 OA
BRANCH  38  39
ATOM     39  C   LIG    1       -7.803  -4.523  -4.785  0.00  0.00    +0.398 C 
ATOM     40  N   LIG    1       -9.128  -4.327  -4.934  0.00  0.00    -0.295 N 
ATOM     41  H   LIG    1       -9.567  -4.588  -5.759  0.00  0.00    +0.148 HD
ATOM     42  H   LIG    1       -9.643  -3.925  -4.217  0.00  0.00    +0.148 HD
ATOM     43  O   LIG    1       -7.159  -5.027  -5.684  0.00  0.00    -0.227 OA
ENDBRANCH  38  39
ENDBRANCH  11  38
BRANCH  25  44
ATOM     44  C   LIG    1        1.234   2.918   2.819  0.00  0.00    +0.168 C 
BRANCH  44  45
ATOM     45  C   LIG    1        2.471   3.692   2.442  0.00  0.00    -0.012 C 
ATOM     46  C   LIG    1        2.380   4.960   2.128  0.00  0.00    +0.006 C 
ENDBRANCH  44  45
ENDBRANCH  25  44
TORSDOF 8
