REMARK  Name = ZINC13782160
REMARK                            x       y       z     vdW  Elec       q    Type
REMARK                         _______ _______ _______ _____ _____    ______ ____
ROOT
ATOM      1  C   LIG    1        2.066  -0.067  -5.992  0.00  0.00    +0.044 C 
ATOM      2  C   LIG    1        1.331   0.366  -4.750  0.00  0.00    -0.048 A 
ATOM      3  C   LIG    1        1.961   1.167  -3.816  0.00  0.00    +0.004 A 
ATOM      4  C   LIG    1        1.286   1.565  -2.678  0.00  0.00    +0.004 A 
ATOM      5  C   LIG    1       -0.020   1.161  -2.472  0.00  0.00    -0.046 A 
ATOM      6  C   LIG    1       -0.649   0.355  -3.402  0.00  0.00    +0.007 A 
ATOM      7  C   LIG    1        0.025  -0.039  -4.544  0.00  0.00    -0.047 A 
ATOM      8  C   LIG    1       -0.663  -0.912  -5.561  0.00  0.00    +0.044 C 
ENDROOT
BRANCH   5   9
ATOM      9  C   LIG    1       -0.756   1.594  -1.230  0.00  0.00    +0.002 C 
ATOM     10  C   LIG    1       -0.013   1.086   0.008  0.00  0.00    +0.004 C 
ATOM     11  C   LIG    1       -0.732   1.581   1.266  0.00  0.00    -0.019 C 
ATOM     12  C   LIG    1       -0.804   3.109   1.238  0.00  0.00    -0.083 C 
ATOM     13  N   LIG    1       -1.535   3.552   0.035  0.00  0.00    +0.379 N 
ATOM     14  H   LIG    1       -2.477   3.142   0.041  0.00  0.00    -0.086 HD
ATOM     15  H   LIG    1       -1.608   4.576   0.041  0.00  0.00    -0.086 HD
ATOM     16  C   LIG    1       -0.826   3.122  -1.185  0.00  0.00    -0.075 C 
ENDBRANCH   5   9
TORSDOF 1
