REMARK  Name = ZINC16981849
REMARK                            x       y       z     vdW  Elec       q    Type
REMARK                         _______ _______ _______ _____ _____    ______ ____
ROOT
ATOM      1  C   LIG    1       -0.246   1.077  -0.440  0.00  0.00    +0.090 C 
ATOM      2  C   LIG    1       -0.147  -0.383   0.009  0.00  0.00    +0.193 C 
ATOM      3  C   LIG    1        0.421  -1.237  -1.125  0.00  0.00    +0.090 C 
ATOM      4  N   LIG    1       -1.482  -0.880   0.391  0.00  0.00    -0.204 N 
ATOM      5  H   LIG    1       -1.980  -1.484  -0.181  0.00  0.00    +0.248 HD
ATOM      6  C   LIG    1       -1.995  -0.446   1.606  0.00  0.00    +0.374 C 
ATOM      7  N   LIG    1       -1.112  -0.450   2.684  0.00  0.00    -0.150 N 
ATOM      8  H   LIG    1       -1.391  -0.713   3.575  0.00  0.00    +0.257 HD
ATOM      9  C   LIG    1        0.195  -0.052   2.406  0.00  0.00    +0.381 C 
ATOM     10  N   LIG    1        0.881   0.682   3.235  0.00  0.00    -0.132 NA
ATOM     11  H   LIG    1        0.485   0.968   4.073  0.00  0.00    +0.306 HD
ATOM     12  N   LIG    1       -3.232  -0.058   1.730  0.00  0.00    -0.133 NA
ATOM     13  H   LIG    1       -3.562   0.240   2.592  0.00  0.00    +0.306 HD
ATOM     14  N   LIG    1        0.723  -0.482   1.195  0.00  0.00    -0.159 N 
ENDROOT
BRANCH  14  15
ATOM     15  C   LIG    1        2.024  -0.989   1.106  0.00  0.00    +0.098 A 
ATOM     16  C   LIG    1        3.071  -0.155   0.736  0.00  0.00    +0.040 A 
ATOM     17  C   LIG    1        4.354  -0.659   0.649  0.00  0.00    +0.003 A 
ATOM     18  C   LIG    1        4.597  -1.991   0.929  0.00  0.00    +0.000 A 
ATOM     19  C   LIG    1        3.556  -2.824   1.298  0.00  0.00    +0.003 A 
ATOM     20  C   LIG    1        2.271  -2.325   1.392  0.00  0.00    +0.040 A 
ENDBRANCH  14  15
TORSDOF 1
