REMARK  Name = ZINC25448991
REMARK                            x       y       z     vdW  Elec       q    Type
REMARK                         _______ _______ _______ _____ _____    ______ ____
ROOT
ATOM      1  N   LIG    1        1.362   1.593  -0.002  0.00  0.00    -0.303 N 
ATOM      2  H   LIG    1        1.613   2.513   0.547  0.00  0.00    +0.150 HD
ATOM      3  C   LIG    1        2.318   0.933  -0.685  0.00  0.00    +0.231 C 
ATOM      4  O   LIG    1        2.042  -0.081  -1.290  0.00  0.00    -0.274 OA
ENDROOT
BRANCH   1   5
ATOM      5  C   LIG    1       -0.013   1.086   0.008  0.00  0.00    +0.134 C 
BRANCH   5   9
ATOM      6  C   LIG    1       -2.013   2.464   3.524  0.00  0.00    +0.120 A 
ATOM      7  C   LIG    1       -2.215   1.168   3.072  0.00  0.00    +0.046 A 
ATOM      8  C   LIG    1       -1.568   0.725   1.935  0.00  0.00    +0.009 A 
ATOM      9  C   LIG    1       -0.718   1.572   1.248  0.00  0.00    -0.023 A 
ATOM     10  C   LIG    1       -0.510   2.862   1.700  0.00  0.00    +0.009 A 
ATOM     11  C   LIG    1       -1.160   3.312   2.833  0.00  0.00    +0.046 A 
BRANCH   6  13
ATOM     12  C   LIG    1       -2.392   4.247   5.050  0.00  0.00    +0.277 C 
ATOM     13  O   LIG    1       -2.648   2.902   4.643  0.00  0.00    -0.495 OA
ENDBRANCH   6  13
ENDBRANCH   5   9
BRANCH   5  14
ATOM     14  C   LIG    1       -0.742   1.585  -1.213  0.00  0.00    -0.023 A 
ATOM     15  C   LIG    1       -0.551   2.883  -1.649  0.00  0.00    +0.006 A 
ATOM     16  C   LIG    1       -1.217   3.340  -2.771  0.00  0.00    +0.000 A 
ATOM     17  C   LIG    1       -2.079   2.501  -3.453  0.00  0.00    +0.000 A 
ATOM     18  C   LIG    1       -2.273   1.205  -3.014  0.00  0.00    +0.000 A 
ATOM     19  C   LIG    1       -1.605   0.747  -1.893  0.00  0.00    +0.006 A 
ENDBRANCH   5  14
ENDBRANCH   1   5
BRANCH   3  20
ATOM     20  C   LIG    1        3.732   1.454  -0.695  0.00  0.00    +0.200 C 
BRANCH  20  21
ATOM     21  N   LIG    1        4.574   0.566  -1.500  0.00  0.00    -0.303 N 
ATOM     22  H   LIG    1        4.136  -0.321  -1.981  0.00  0.00    +0.150 HD
ATOM     23  C   LIG    1        5.886   0.836  -1.653  0.00  0.00    +0.244 C 
ATOM     24  O   LIG    1        6.370   1.817  -1.122  0.00  0.00    -0.270 OA
BRANCH  23  25
ATOM     25  C   LIG    1        6.735  -0.059  -2.465  0.00  0.00    +0.037 A 
ATOM     26  C   LIG    1        6.183  -1.190  -3.071  0.00  0.00    +0.016 A 
ATOM     27  C   LIG    1        6.978  -2.018  -3.832  0.00  0.00    +0.039 A 
ATOM     28  C   LIG    1        8.327  -1.738  -3.987  0.00  0.00    +0.123 A 
ATOM     29  F   LIG    1        9.104  -2.558  -4.729  0.00  0.00    -0.205 F 
ATOM     30  C   LIG    1        8.882  -0.621  -3.383  0.00  0.00    +0.039 A 
ATOM     31  C   LIG    1        8.094   0.218  -2.624  0.00  0.00    +0.016 A 
ENDBRANCH  23  25
ENDBRANCH  20  21
ENDBRANCH   3  20
TORSDOF 7
