REMARK  Name = ZINC28097794
REMARK                            x       y       z     vdW  Elec       q    Type
REMARK                         _______ _______ _______ _____ _____    ______ ____
ROOT
ATOM      1  C   LIG    1        2.566  -4.261   0.332  0.00  0.00    +0.024 C 
ATOM      2  C   LIG    1        2.542  -2.779  -0.045  0.00  0.00    +0.055 C 
ATOM      3  C   LIG    1        1.164  -2.189   0.257  0.00  0.00    +0.054 C 
ATOM      4  C   LIG    1        1.204  -0.689   0.117  0.00  0.00    -0.041 A 
ATOM      5  C   LIG    1        0.002  -0.004   0.002  0.00  0.00    +0.004 A 
ATOM      6  C   LIG    1       -0.014   1.372  -0.119  0.00  0.00    +0.001 A 
ATOM      7  C   LIG    1        1.172   2.077  -0.128  0.00  0.00    +0.009 A 
ATOM      8  C   LIG    1        2.380   1.397  -0.015  0.00  0.00    -0.013 A 
ATOM      9  C   LIG    1        2.393   0.004   0.106  0.00  0.00    -0.023 A 
ATOM     10  C   LIG    1        3.722  -0.694   0.221  0.00  0.00    +0.117 C 
ATOM     11  N   LIG    1        3.546  -2.051   0.748  0.00  0.00    -0.309 NA
ATOM     12  H   LIG    1        3.212  -1.990   1.794  0.00  0.00    +0.123 HD
ENDROOT
BRANCH   8  13
ATOM     13  C   LIG    1        3.658   2.151  -0.024  0.00  0.00    -0.018 A 
ATOM     14  C   LIG    1        3.874   3.171   0.900  0.00  0.00    +0.008 A 
ATOM     15  C   LIG    1        5.067   3.866   0.890  0.00  0.00    +0.001 A 
ATOM     16  C   LIG    1        6.042   3.558  -0.041  0.00  0.00    +0.000 A 
ATOM     17  C   LIG    1        5.831   2.549  -0.963  0.00  0.00    +0.001 A 
ATOM     18  C   LIG    1        4.644   1.845  -0.959  0.00  0.00    +0.008 A 
ENDBRANCH   8  13
TORSDOF 1
