REMARK  Name = ZINC26474090
REMARK                            x       y       z     vdW  Elec       q    Type
REMARK                         _______ _______ _______ _____ _____    ______ ____
ROOT
ATOM      1  S   LIG    1        0.058  -1.507   3.638  0.00  0.00    +0.076 S 
ATOM      2  O   LIG    1        1.312  -2.170   3.554  0.00  0.00    -0.150 OA
ATOM      3  O   LIG    1       -1.178  -2.205   3.578  0.00  0.00    -0.150 OA
ENDROOT
BRANCH   1   4
ATOM      4  C   LIG    1        0.060  -0.616   5.158  0.00  0.00    +0.124 A 
ATOM      5  C   LIG    1       -1.013  -0.722   6.023  0.00  0.00    +0.045 A 
ATOM      6  C   LIG    1       -1.012  -0.022   7.216  0.00  0.00    +0.020 A 
ATOM      7 BR   LIG    1       -2.480  -0.167   8.399  0.00  0.00    -0.050 Br
ATOM      8  C   LIG    1        0.064   0.784   7.543  0.00  0.00    +0.016 A 
ATOM      9  C   LIG    1        1.137   0.890   6.679  0.00  0.00    +0.018 A 
ATOM     10  C   LIG    1        1.137   0.186   5.488  0.00  0.00    +0.045 A 
ATOM     11 BR   LIG    1        2.609   0.326   4.308  0.00  0.00    -0.048 Br
ENDBRANCH   1   4
BRANCH   1  12
ATOM     12  N   LIG    1        0.030  -0.391   2.415  0.00  0.00    -0.183 N 
ATOM     13  H   LIG    1        0.019   0.571   2.627  0.00  0.00    +0.177 HD
BRANCH  12  20
ATOM     14  C   LIG    1       -0.018   1.503   0.010  0.00  0.00    +0.051 C 
ATOM     15  C   LIG    1        0.002  -0.004   0.002  0.00  0.00    +0.035 A 
ATOM     16  C   LIG    1        0.008  -0.821  -1.136  0.00  0.00    +0.085 A 
ATOM     17  C   LIG    1       -0.006  -0.344  -2.566  0.00  0.00    +0.069 C 
ATOM     18  N   LIG    1        0.028  -2.066  -0.745  0.00  0.00    -0.081 NA
ATOM     19  O   LIG    1        0.035  -2.083   0.671  0.00  0.00    -0.338 OA
ATOM     20  C   LIG    1        0.024  -0.808   1.097  0.00  0.00    +0.240 A 
ENDBRANCH  12  20
ENDBRANCH   1  12
TORSDOF 3
