REMARK  Name = ZINC27524819
REMARK                            x       y       z     vdW  Elec       q    Type
REMARK                         _______ _______ _______ _____ _____    ______ ____
ROOT
ATOM      1  C   LIG    1        1.186  -2.673   2.041  0.00  0.00    +0.285 C 
ATOM      2  N   LIG    1        0.565  -1.926   0.945  0.00  0.00    -0.282 N 
ATOM      3  H   LIG    1        0.213  -2.398   0.174  0.00  0.00    +0.303 HD
ATOM      4  C   LIG    1        0.487  -0.636   1.004  0.00  0.00    +0.240 C 
ENDROOT
BRANCH   4   5
ATOM      5  N   LIG    1       -0.196   0.053   0.037  0.00  0.00    -0.254 N 
ATOM      6  H   LIG    1       -0.255   1.021   0.082  0.00  0.00    +0.288 HD
ATOM      7  H   LIG    1       -0.621  -0.425  -0.692  0.00  0.00    +0.288 HD
ENDBRANCH   4   5
BRANCH   4   8
ATOM      8  C   LIG    1        1.147   0.107   2.137  0.00  0.00    +0.160 C 
BRANCH   8   9
ATOM      9  C   LIG    1        2.503   0.594   1.696  0.00  0.00    -0.018 A 
ATOM     10  C   LIG    1        3.640  -0.148   1.976  0.00  0.00    +0.007 A 
ATOM     11  C   LIG    1        4.867   0.339   1.551  0.00  0.00    +0.020 A 
ATOM     12  C   LIG    1        4.915   1.539   0.867  0.00  0.00    +0.111 A 
ATOM     13  N   LIG    1        3.812   2.218   0.618  0.00  0.00    -0.263 NA
ATOM     14  C   LIG    1        2.628   1.782   1.002  0.00  0.00    +0.114 A 
ENDBRANCH   8   9
ENDBRANCH   4   8
TORSDOF 3
