REMARK  Name = ZINC17589614
REMARK                            x       y       z     vdW  Elec       q    Type
REMARK                         _______ _______ _______ _____ _____    ______ ____
ROOT
ATOM      1  C   LIG    1        7.484   3.156   4.333  0.00  0.00    +0.220 C 
ATOM      2  N   LIG    1        8.188   2.329   5.131  0.00  0.00    -0.285 N 
ATOM      3  H   LIG    1        7.827   1.462   5.371  0.00  0.00    +0.155 HD
ATOM      4  O   LIG    1        7.897   4.272   4.101  0.00  0.00    -0.275 OA
ENDROOT
BRANCH   1   8
ATOM      5  N   LIG    1        4.463   2.088   1.566  0.00  0.00    -0.176 NA
ATOM      6  C   LIG    1        4.254   3.352   2.286  0.00  0.00    +0.110 C 
ATOM      7  C   LIG    1        5.592   3.814   2.871  0.00  0.00    +0.030 C 
ATOM      8  C   LIG    1        6.184   2.692   3.728  0.00  0.00    +0.078 C 
ATOM      9  C   LIG    1        6.437   1.461   2.856  0.00  0.00    +0.030 C 
ATOM     10  C   LIG    1        5.103   0.970   2.273  0.00  0.00    +0.110 C 
BRANCH   5  11
ATOM     11  S   LIG    1        3.981   1.925  -0.009  0.00  0.00    +0.067 S 
ATOM     12  O   LIG    1        3.940   3.234  -0.560  0.00  0.00    -0.152 OA
ATOM     13  O   LIG    1        4.772   0.886  -0.571  0.00  0.00    -0.152 OA
BRANCH  11  16
ATOM     14  C   LIG    1       -0.039   1.363   0.043  0.00  0.00    +0.010 A 
ATOM     15  C   LIG    1        1.164   2.044   0.028  0.00  0.00    +0.036 A 
ATOM     16  C   LIG    1        2.320   1.336   0.013  0.00  0.00    +0.143 A 
ATOM     17  S   LIG    1        1.723  -0.346   0.020  0.00  0.00    -0.077 S 
ATOM     18  C   LIG    1       -0.026   0.007   0.043  0.00  0.00    +0.047 A 
ENDBRANCH  11  16
ENDBRANCH   5  11
ENDBRANCH   1   8
BRANCH   2  19
ATOM     19  C   LIG    1        9.440   2.722   5.614  0.00  0.00    +0.033 A 
ATOM     20  C   LIG    1        9.671   4.054   5.938  0.00  0.00    +0.024 A 
ATOM     21  C   LIG    1       10.904   4.444   6.415  0.00  0.00    +0.012 A 
ATOM     22  C   LIG    1       11.921   3.501   6.572  0.00  0.00    +0.007 A 
ATOM     23  C   LIG    1       11.685   2.164   6.246  0.00  0.00    +0.012 A 
ATOM     24  C   LIG    1       10.448   1.779   5.775  0.00  0.00    +0.024 A 
BRANCH  22  25
ATOM     25  C   LIG    1       13.244   3.916   7.082  0.00  0.00    +0.108 A 
ATOM     26  N   LIG    1       13.665   5.119   7.450  0.00  0.00    -0.247 NA
ATOM     27  C   LIG    1       14.889   5.309   7.885  0.00  0.00    +0.119 A 
ATOM     28  C   LIG    1       15.750   4.261   7.965  0.00  0.00    +0.067 A 
ATOM     29  S   LIG    1       14.707   2.931   7.378  0.00  0.00    -0.076 S 
ENDBRANCH  22  25
ENDBRANCH   2  19
TORSDOF 5
