REMARK  Name = ZINC13827492
REMARK                            x       y       z     vdW  Elec       q    Type
REMARK                         _______ _______ _______ _____ _____    ______ ____
ROOT
ATOM      1  N   LIG    1        1.872  -1.287  -4.976  0.00  0.00    -0.264 N 
ATOM      2  H   LIG    1        1.306  -0.893  -5.659  0.00  0.00    +0.157 HD
ATOM      3  C   LIG    1        2.941  -2.027  -5.331  0.00  0.00    +0.223 C 
ATOM      4  O   LIG    1        3.648  -2.520  -4.477  0.00  0.00    -0.275 OA
ENDROOT
BRANCH   1   8
ATOM      5  C   LIG    1        0.707  -0.490  -1.238  0.00  0.00    +0.014 A 
ATOM      6  C   LIG    1        1.817  -1.259  -1.356  0.00  0.00    +0.124 A 
ATOM      7  N   LIG    1        2.226  -1.540  -2.579  0.00  0.00    -0.233 NA
ATOM      8  C   LIG    1        1.579  -1.089  -3.632  0.00  0.00    +0.165 A 
ATOM      9  S   LIG    1        0.307  -0.218  -2.956  0.00  0.00    -0.057 S 
BRANCH   5  11
ATOM     10  C   LIG    1       -0.019   1.526   0.010  0.00  0.00    +0.013 C 
ATOM     11  C   LIG    1        0.002  -0.004   0.002  0.00  0.00    +0.021 C 
ATOM     12  C   LIG    1       -1.433  -0.534   0.013  0.00  0.00    +0.013 C 
ENDBRANCH   5  11
ENDBRANCH   1   8
BRANCH   3  13
ATOM     13  C   LIG    1        3.258  -2.243  -6.788  0.00  0.00    +0.131 C 
BRANCH  13  14
ATOM     14  C   LIG    1        4.493  -3.098  -6.913  0.00  0.00    -0.039 A 
ATOM     15  C   LIG    1        5.741  -2.507  -6.961  0.00  0.00    +0.004 A 
ATOM     16  C   LIG    1        6.874  -3.292  -7.075  0.00  0.00    +0.000 A 
ATOM     17  C   LIG    1        6.757  -4.668  -7.140  0.00  0.00    +0.000 A 
ATOM     18  C   LIG    1        5.509  -5.259  -7.091  0.00  0.00    +0.000 A 
ATOM     19  C   LIG    1        4.377  -4.474  -6.973  0.00  0.00    +0.004 A 
ENDBRANCH  13  14
ENDBRANCH   3  13
TORSDOF 4
