REMARK  Name = ZINC35974253
REMARK                            x       y       z     vdW  Elec       q    Type
REMARK                         _______ _______ _______ _____ _____    ______ ____
ROOT
ATOM      1  C   LIG    1        0.106   1.802  -0.227  0.00  0.00    +0.037 C 
ATOM      2  C   LIG    1        0.207   0.289  -0.022  0.00  0.00    +0.093 C 
ATOM      3  C   LIG    1        1.093  -0.004   1.190  0.00  0.00    +0.037 C 
ENDROOT
BRANCH   2   4
ATOM      4  N   LIG    1        0.794  -0.329  -1.219  0.00  0.00    -0.286 NA
ATOM      5  C   LIG    1        0.812  -1.793  -1.100  0.00  0.00    +0.104 C 
ATOM      6  C   LIG    1        1.260  -2.405  -2.432  0.00  0.00    +0.122 C 
ATOM      7  N   LIG    1        2.542  -1.796  -2.818  0.00  0.00    -0.313 N 
ATOM      8  C   LIG    1        2.640  -0.328  -2.827  0.00  0.00    +0.122 C 
ATOM      9  C   LIG    1        2.138   0.202  -1.480  0.00  0.00    +0.104 C 
BRANCH   7  10
ATOM     10  C   LIG    1        3.631  -2.586  -3.166  0.00  0.00    +0.121 A 
ATOM     11  C   LIG    1        3.457  -3.952  -3.363  0.00  0.00    +0.044 A 
ATOM     12  C   LIG    1        4.550  -4.726  -3.709  0.00  0.00    +0.017 A 
ATOM     13  C   LIG    1        5.785  -4.106  -3.846  0.00  0.00    +0.073 A 
ATOM     14  C   LIG    1        5.886  -2.746  -3.635  0.00  0.00    +0.125 A 
ATOM     15  N   LIG    1        4.825  -2.031  -3.312  0.00  0.00    -0.240 NA
BRANCH  13  16
ATOM     16  C   LIG    1        7.003  -4.910  -4.221  0.00  0.00    +0.419 C 
ATOM     17  F   LIG    1        6.868  -6.215  -3.734  0.00  0.00    -0.166 F 
ATOM     18  F   LIG    1        8.142  -4.320  -3.663  0.00  0.00    -0.166 F 
ATOM     19  F   LIG    1        7.129  -4.944  -5.614  0.00  0.00    -0.166 F 
ENDBRANCH  13  16
ENDBRANCH   7  10
ENDBRANCH   2   4
BRANCH   2  20
ATOM     20  C   LIG    1       -1.169  -0.279   0.213  0.00  0.00    +0.233 C 
ATOM     21  N   LIG    1       -1.952  -0.604  -0.835  0.00  0.00    -0.310 N 
ATOM     22  H   LIG    1       -1.631  -0.471  -1.740  0.00  0.00    +0.149 HD
ATOM     23  O   LIG    1       -1.571  -0.445   1.345  0.00  0.00    -0.274 OA
BRANCH  21  24
ATOM     24  C   LIG    1       -3.290  -1.156  -0.606  0.00  0.00    +0.079 C 
ATOM     25  C   LIG    1       -3.189  -2.669  -0.401  0.00  0.00    +0.012 C 
ATOM     26  C   LIG    1       -2.578  -3.312  -1.647  0.00  0.00    +0.009 C 
ATOM     27  C   LIG    1       -3.464  -3.020  -2.860  0.00  0.00    -0.008 C 
ATOM     28  C   LIG    1       -3.566  -1.507  -3.064  0.00  0.00    +0.009 C 
ATOM     29  C   LIG    1       -4.861  -3.597  -2.621  0.00  0.00    +0.038 C 
ATOM     30  C   LIG    1       -5.472  -2.953  -1.374  0.00  0.00    +0.067 C 
ATOM     31  C   LIG    1       -5.574  -1.440  -1.579  0.00  0.00    +0.040 C 
ATOM     32  C   LIG    1       -4.586  -3.245  -0.162  0.00  0.00    +0.040 C 
ATOM     33  C   LIG    1       -4.177  -0.863  -1.818  0.00  0.00    +0.012 C 
BRANCH  30  34
ATOM     34  O   LIG    1       -6.777  -3.492  -1.151  0.00  0.00    -0.389 OA
ATOM     35  H   LIG    1       -6.789  -4.449  -1.013  0.00  0.00    +0.210 HD
ENDBRANCH  30  34
ENDBRANCH  21  24
ENDBRANCH   2  20
TORSDOF 6
