REMARK  Name = ZINC20405012
REMARK                            x       y       z     vdW  Elec       q    Type
REMARK                         _______ _______ _______ _____ _____    ______ ____
ROOT
ATOM      1  N   LIG    1        4.153  -0.953   1.342  0.00  0.00    -0.295 NA
ATOM      2  C   LIG    1        3.239  -1.873   2.031  0.00  0.00    +0.103 C 
ATOM      3  C   LIG    1        3.628  -1.962   3.511  0.00  0.00    +0.122 C 
ATOM      4  N   LIG    1        5.052  -2.318   3.599  0.00  0.00    -0.307 N 
ATOM      5  C   LIG    1        6.018  -1.524   2.823  0.00  0.00    +0.122 C 
ATOM      6  C   LIG    1        5.534  -1.453   1.371  0.00  0.00    +0.103 C 
ENDROOT
BRANCH   4   7
ATOM      7  C   LIG    1        5.472  -3.370   4.387  0.00  0.00    +0.162 A 
ATOM      8  N   LIG    1        4.753  -4.179   5.132  0.00  0.00    -0.225 NA
ATOM      9  C   LIG    1        5.304  -5.176   5.859  0.00  0.00    +0.080 A 
ATOM     10  C   LIG    1        4.650  -6.110   6.695  0.00  0.00    +0.029 A 
ATOM     11  C   LIG    1        5.363  -7.067   7.369  0.00  0.00    +0.002 A 
ATOM     12  C   LIG    1        6.743  -7.155   7.256  0.00  0.00    +0.001 A 
ATOM     13  C   LIG    1        7.415  -6.258   6.446  0.00  0.00    +0.017 A 
ATOM     14  C   LIG    1        6.709  -5.297   5.768  0.00  0.00    +0.041 A 
ATOM     15  S   LIG    1        7.130  -3.983   4.649  0.00  0.00    -0.052 S 
ENDBRANCH   4   7
BRANCH   1  16
ATOM     16  C   LIG    1        3.711  -0.707  -0.038  0.00  0.00    +0.119 C 
BRANCH  16  20
ATOM     17  C   LIG    1       -0.017   1.378   0.010  0.00  0.00    +0.000 A 
ATOM     18  C   LIG    1        1.171   2.086   0.002  0.00  0.00    +0.000 A 
ATOM     19  C   LIG    1        2.377   1.411  -0.013  0.00  0.00    +0.005 A 
ATOM     20  C   LIG    1        2.396   0.029  -0.020  0.00  0.00    -0.033 A 
ATOM     21  C   LIG    1        1.208  -0.679  -0.012  0.00  0.00    +0.005 A 
ATOM     22  C   LIG    1        0.002  -0.004   0.002  0.00  0.00    +0.000 A 
ENDBRANCH  16  20
ENDBRANCH   1  16
TORSDOF 3
