REMARK  Name = ZINC29052381
REMARK                            x       y       z     vdW  Elec       q    Type
REMARK                         _______ _______ _______ _____ _____    ______ ____
ROOT
ATOM      1  C   LIG    1        2.551  -4.665  -0.005  0.00  0.00    -0.018 C 
ATOM      2  C   LIG    1        1.908  -4.083  -1.267  0.00  0.00    +0.021 C 
ATOM      3  C   LIG    1        1.989  -2.555  -1.218  0.00  0.00    +0.105 C 
ATOM      4  N   LIG    1        1.293  -2.065  -0.021  0.00  0.00    -0.329 N 
ATOM      5  C   LIG    1        1.922  -2.573   1.204  0.00  0.00    +0.105 C 
ATOM      6  C   LIG    1        1.839  -4.101   1.227  0.00  0.00    +0.021 C 
ENDROOT
BRANCH   4   7
ATOM      7  C   LIG    1        1.234  -0.676  -0.013  0.00  0.00    +0.042 A 
ATOM      8  C   LIG    1        2.395   0.091  -0.019  0.00  0.00    +0.043 A 
ATOM      9  C   LIG    1        2.294   1.470  -0.011  0.00  0.00    +0.115 A 
ATOM     10  N   LIG    1        1.126   2.078   0.003  0.00  0.00    -0.237 NA
ATOM     11  C   LIG    1       -0.017   1.401   0.010  0.00  0.00    +0.140 A 
ATOM     12  N   LIG    1       -1.336   1.785   0.030  0.00  0.00    -0.346 N 
ATOM     13  H   LIG    1       -1.598   2.853   0.046  0.00  0.00    +0.167 HD
ATOM     14  C   LIG    1       -2.146   0.680   0.026  0.00  0.00    +0.085 A 
ATOM     15  C   LIG    1       -1.397  -0.434   0.013  0.00  0.00    +0.031 A 
ATOM     16  C   LIG    1        0.002  -0.004   0.002  0.00  0.00    +0.040 A 
ENDBRANCH   4   7
BRANCH   1  17
ATOM     17  C   LIG    1        2.419  -6.189  -0.020  0.00  0.00    -0.041 C 
BRANCH  17  24
ATOM     18  C   LIG    1        4.424  -6.919   1.288  0.00  0.00    +0.003 A 
ATOM     19  C   LIG    1        5.006  -7.438   2.429  0.00  0.00    +0.020 A 
ATOM     20  C   LIG    1        4.214  -7.808   3.502  0.00  0.00    +0.041 A 
ATOM     21 CL   LIG    1        4.944  -8.466   4.933  0.00  0.00    -0.084 Cl
ATOM     22  C   LIG    1        2.841  -7.654   3.433  0.00  0.00    +0.020 A 
ATOM     23  C   LIG    1        2.261  -7.130   2.294  0.00  0.00    +0.003 A 
ATOM     24  C   LIG    1        3.052  -6.760   1.222  0.00  0.00    -0.062 A 
ENDBRANCH  17  24
BRANCH  17  25
ATOM     25  N   LIG    1        3.096  -6.728  -1.207  0.00  0.00    +0.383 N 
ATOM     26  H   LIG    1        4.161  -6.452  -1.179  0.00  0.00    -0.089 HD
ATOM     27  H   LIG    1        3.001  -7.823  -1.218  0.00  0.00    -0.089 HD
ATOM     28  H   LIG    1        2.634  -6.311  -2.114  0.00  0.00    -0.089 HD
ENDBRANCH  17  25
ENDBRANCH   1  17
TORSDOF 4
