REMARK  Name = ZINC13801424
REMARK                            x       y       z     vdW  Elec       q    Type
REMARK                         _______ _______ _______ _____ _____    ______ ____
ROOT
ATOM      1  C   LIG    1       -0.084   5.861  -1.386  0.00  0.00    +0.015 A 
ATOM      2  C   LIG    1        1.089   6.210  -2.027  0.00  0.00    +0.121 A 
ATOM      3  N   LIG    1        1.038   6.654  -3.274  0.00  0.00    -0.223 NA
ATOM      4  C   LIG    1       -0.118   6.768  -3.911  0.00  0.00    +0.214 A 
ATOM      5  N   LIG    1       -1.264   6.443  -3.332  0.00  0.00    -0.200 NA
ATOM      6  C   LIG    1       -1.287   5.986  -2.084  0.00  0.00    +0.125 A 
ENDROOT
BRANCH   4   7
ATOM      7  N   LIG    1       -0.129   7.236  -5.213  0.00  0.00    -0.327 N 
ATOM      8  H   LIG    1       -0.968   7.324  -5.690  0.00  0.00    +0.145 HD
ATOM      9  H   LIG    1        0.704   7.477  -5.648  0.00  0.00    +0.145 HD
ENDBRANCH   4   7
BRANCH   6  10
ATOM     10  N   LIG    1       -2.487   5.642  -1.483  0.00  0.00    -0.343 N 
ATOM     11  H   LIG    1       -3.319   5.732  -1.975  0.00  0.00    +0.144 HD
ATOM     12  H   LIG    1       -2.496   5.312  -0.571  0.00  0.00    +0.144 HD
ENDBRANCH   6  10
BRANCH   1  13
ATOM     13  C   LIG    1       -0.065   5.351   0.032  0.00  0.00    +0.075 C 
BRANCH  13  18
ATOM     14  C   LIG    1       -1.223   1.754   0.017  0.00  0.00    +0.121 A 
ATOM     15  C   LIG    1       -0.013   1.076   0.008  0.00  0.00    +0.045 A 
ATOM     16  C   LIG    1        1.174   1.783   0.000  0.00  0.00    +0.004 A 
ATOM     17  C   LIG    1        1.156   3.166   0.008  0.00  0.00    +0.004 A 
ATOM     18  C   LIG    1       -0.049   3.844   0.023  0.00  0.00    -0.039 A 
ATOM     19  C   LIG    1       -1.239   3.141   0.030  0.00  0.00    +0.049 A 
BRANCH  14  20
ATOM     20  O   LIG    1       -2.392   1.060   0.019  0.00  0.00    -0.492 OA
BRANCH  20  22
ATOM     21  C   LIG    1       -3.706  -0.968   0.014  0.00  0.00    +0.048 C 
ATOM     22  C   LIG    1       -2.300  -0.366   0.011  0.00  0.00    +0.225 C 
ENDBRANCH  20  22
ENDBRANCH  14  20
ENDBRANCH  13  18
ENDBRANCH   1  13
TORSDOF 6
