REMARK  Name = ZINC19839164
REMARK                            x       y       z     vdW  Elec       q    Type
REMARK                         _______ _______ _______ _____ _____    ______ ____
ROOT
ATOM      1  C   LIG    1        2.477   1.077  -0.017  0.00  0.00    +0.253 C 
ATOM      2  N   LIG    1        2.501  -0.270  -0.022  0.00  0.00    -0.266 N 
ATOM      3  H   LIG    1        1.563  -0.838   0.068  0.00  0.00    +0.157 HD
ATOM      4  O   LIG    1        3.519   1.704  -0.023  0.00  0.00    -0.270 OA
ENDROOT
BRANCH   1  10
ATOM      5  C   LIG    1       -2.508   0.975   0.012  0.00  0.00    +0.044 C 
ATOM      6  C   LIG    1       -1.215   1.749   0.011  0.00  0.00    -0.050 A 
ATOM      7  C   LIG    1       -1.240   3.134   0.022  0.00  0.00    +0.007 A 
ATOM      8  C   LIG    1       -0.062   3.854   0.016  0.00  0.00    +0.046 A 
ATOM      9  C   LIG    1        1.157   3.193   0.003  0.00  0.00    +0.129 A 
ATOM     10  C   LIG    1        1.187   1.792  -0.003  0.00  0.00    +0.079 A 
ATOM     11  C   LIG    1       -0.013   1.076   0.004  0.00  0.00    +0.020 A 
BRANCH   9  12
ATOM     12  O   LIG    1        2.316   3.899  -0.004  0.00  0.00    -0.506 OA
ATOM     13  H   LIG    1        3.281   3.372  -0.014  0.00  0.00    +0.292 HD
ENDBRANCH   9  12
ENDBRANCH   1  10
BRANCH   2  14
ATOM     14  C   LIG    1        3.714  -0.945  -0.142  0.00  0.00    +0.125 A 
ATOM     15  C   LIG    1        3.724  -2.331  -0.254  0.00  0.00    +0.044 A 
ATOM     16  C   LIG    1        4.935  -2.988  -0.377  0.00  0.00    +0.005 A 
ATOM     17  C   LIG    1        6.101  -2.234  -0.374  0.00  0.00    +0.023 A 
ATOM     18  C   LIG    1        6.018  -0.861  -0.255  0.00  0.00    +0.040 A 
ATOM     19  C   LIG    1        7.279  -0.036  -0.251  0.00  0.00    +0.065 C 
ATOM     20  N   LIG    1        4.848  -0.261  -0.144  0.00  0.00    -0.237 NA
ENDBRANCH   2  14
TORSDOF 3
