REMARK  Name = ZINC28769301
REMARK                            x       y       z     vdW  Elec       q    Type
REMARK                         _______ _______ _______ _____ _____    ______ ____
ROOT
ATOM      1  C   LIG    1       -1.236   2.226   1.123  0.00  0.00    +0.120 C 
ATOM      2  O   LIG    1       -1.815   1.490   1.885  0.00  0.00    -0.299 OA
ENDROOT
BRANCH   1   3
ATOM      3  C   LIG    1       -0.484   1.654  -0.051  0.00  0.00    +0.087 C 
BRANCH   3   4
ATOM      4  C   LIG    1       -0.613   0.130  -0.046  0.00  0.00    +0.109 C 
BRANCH   4   5
ATOM      5  C   LIG    1        0.071  -0.428   1.175  0.00  0.00    +0.309 C 
ATOM      6  O   LIG    1        0.607   0.317   1.961  0.00  0.00    -0.251 OA
BRANCH   5   7
ATOM      7  O   LIG    1        0.086  -1.753   1.390  0.00  0.00    -0.480 OA
ATOM      8  H   LIG    1       -0.330  -2.331   0.781  0.00  0.00    +0.295 HD
ENDBRANCH   5   7
ENDBRANCH   4   5
BRANCH   4   9
ATOM      9  C   LIG    1        0.044  -0.442  -1.304  0.00  0.00    +0.050 C 
BRANCH   9  15
ATOM     10  C   LIG    1        0.721  -2.793  -0.780  0.00  0.00    +0.007 A 
ATOM     11  C   LIG    1        0.506  -4.157  -0.826  0.00  0.00    +0.045 A 
ATOM     12  C   LIG    1       -0.617  -4.660  -1.466  0.00  0.00    +0.117 A 
ATOM     13  C   LIG    1       -1.526  -3.792  -2.053  0.00  0.00    +0.045 A 
ATOM     14  C   LIG    1       -1.310  -2.428  -1.999  0.00  0.00    +0.007 A 
ATOM     15  C   LIG    1       -0.189  -1.929  -1.361  0.00  0.00    -0.046 A 
BRANCH  12  16
ATOM     16  O   LIG    1       -0.828  -6.002  -1.517  0.00  0.00    -0.507 OA
ATOM     17  H   LIG    1       -1.719  -6.400  -2.024  0.00  0.00    +0.292 HD
ENDBRANCH  12  16
ENDBRANCH   9  15
ENDBRANCH   4   9
ENDBRANCH   3   4
ENDBRANCH   1   3
BRANCH   1  18
ATOM     18  C   LIG    1       -1.266   3.716   1.346  0.00  0.00    -0.007 C 
BRANCH  18  19
ATOM     19  N   LIG    1       -2.327   4.046   2.307  0.00  0.00    +0.385 N 
ATOM     20  H   LIG    1       -3.298   3.716   1.909  0.00  0.00    -0.089 HD
ATOM     21  H   LIG    1       -2.129   3.537   3.261  0.00  0.00    -0.089 HD
ATOM     22  H   LIG    1       -2.348   5.134   2.470  0.00  0.00    -0.089 HD
ENDBRANCH  18  19
BRANCH  18  23
ATOM     23  C   LIG    1        0.085   4.175   1.900  0.00  0.00    -0.006 C 
BRANCH  23  24
ATOM     24  C   LIG    1        0.098   5.702   2.009  0.00  0.00    +0.036 C 
BRANCH  24  25
ATOM     25  C   LIG    1        1.448   6.161   2.562  0.00  0.00    +0.195 C 
BRANCH  25  26
ATOM     26  N   LIG    1        1.462   7.622   2.667  0.00  0.00    -0.279 N 
ATOM     27  H   LIG    1        1.372   8.239   1.761  0.00  0.00    +0.258 HD
ATOM     28  C   LIG    1        1.580   8.191   3.834  0.00  0.00    +0.341 C 
BRANCH  28  29
ATOM     29  N   LIG    1        1.463   9.556   3.948  0.00  0.00    -0.292 N 
ATOM     30  H   LIG    1        1.270  10.168   3.055  0.00  0.00    +0.255 HD
ATOM     31  H   LIG    1        1.563  10.036   4.933  0.00  0.00    +0.255 HD
ENDBRANCH  28  29
BRANCH  28  32
ATOM     32  N   LIG    1        1.822   7.426   4.950  0.00  0.00    -0.292 N 
ATOM     33  H   LIG    1        1.915   6.334   4.859  0.00  0.00    +0.255 HD
ATOM     34  H   LIG    1        1.921   7.906   5.935  0.00  0.00    +0.255 HD
ENDBRANCH  28  32
ENDBRANCH  25  26
ENDBRANCH  24  25
ENDBRANCH  23  24
ENDBRANCH  18  23
ENDBRANCH   1  18
TORSDOF 15
