REMARK  Name = ZINC29043793
REMARK                            x       y       z     vdW  Elec       q    Type
REMARK                         _______ _______ _______ _____ _____    ______ ____
ROOT
ATOM      1  N   LIG    1        0.010   1.143   2.459  0.00  0.00    +0.386 N 
ATOM      2  H   LIG    1       -0.425   1.649   3.333  0.00  0.00    -0.081 HD
ATOM      3  C   LIG    1        1.423   1.532   2.374  0.00  0.00    -0.078 C 
ATOM      4  C   LIG    1        2.127   1.192   3.690  0.00  0.00    -0.015 C 
ATOM      5  C   LIG    1        2.007  -0.312   3.954  0.00  0.00    -0.010 C 
ATOM      6  C   LIG    1        0.527  -0.699   3.989  0.00  0.00    -0.015 C 
ATOM      7  C   LIG    1       -0.131  -0.304   2.665  0.00  0.00    -0.078 C 
ENDROOT
BRANCH   1   9
ATOM      8  C   LIG    1       -0.504   3.077   1.047  0.00  0.00    -0.005 C 
ATOM      9  C   LIG    1       -0.729   1.579   1.267  0.00  0.00    +0.001 C 
BRANCH   9  10
ATOM     10  C   LIG    1       -2.200   1.316   1.463  0.00  0.00    +0.150 C 
ATOM     11  O   LIG    1       -2.654   1.218   2.583  0.00  0.00    -0.294 OA
BRANCH  10  12
ATOM     12  C   LIG    1       -3.082   1.178   0.298  0.00  0.00    +0.016 A 
ATOM     13  C   LIG    1       -2.560   1.297  -0.997  0.00  0.00    +0.013 A 
ATOM     14  C   LIG    1       -3.384   1.163  -2.077  0.00  0.00    +0.023 A 
ATOM     15  C   LIG    1       -4.743   0.919  -1.894  0.00  0.00    +0.025 A 
ATOM     16  C   LIG    1       -5.267   0.806  -0.608  0.00  0.00    +0.023 A 
ATOM     17  C   LIG    1       -4.450   0.933   0.478  0.00  0.00    +0.013 A 
BRANCH  15  18
ATOM     18  N   LIG    1       -5.578   0.789  -2.996  0.00  0.00    -0.358 N 
ATOM     19  H   LIG    1       -5.166   0.879  -4.012  0.00  0.00    +0.142 HD
ATOM     20  H   LIG    1       -6.652   0.597  -2.853  0.00  0.00    +0.142 HD
ENDBRANCH  15  18
ENDBRANCH  10  12
ENDBRANCH   9  10
ENDBRANCH   1   9
BRANCH   5  21
ATOM     21  C   LIG    1        2.657  -0.650   5.297  0.00  0.00    +0.038 C 
BRANCH  21  22
ATOM     22  C   LIG    1        4.138  -0.383   5.220  0.00  0.00    -0.047 A 
ATOM     23  C   LIG    1        5.001  -1.385   4.819  0.00  0.00    +0.003 A 
ATOM     24  C   LIG    1        6.360  -1.139   4.744  0.00  0.00    +0.000 A 
ATOM     25  C   LIG    1        6.856   0.107   5.080  0.00  0.00    +0.000 A 
ATOM     26  C   LIG    1        5.993   1.108   5.486  0.00  0.00    +0.000 A 
ATOM     27  C   LIG    1        4.634   0.863   5.556  0.00  0.00    +0.003 A 
ENDBRANCH  21  22
ENDBRANCH   5  21
TORSDOF 6
