REMARK  Name = ZINC17654543
REMARK                            x       y       z     vdW  Elec       q    Type
REMARK                         _______ _______ _______ _____ _____    ______ ____
ROOT
ATOM      1  C   LIG    1        1.715  -4.561  -2.980  0.00  0.00    +0.253 C 
ATOM      2  C   LIG    1        0.329  -5.040  -3.464  0.00  0.00    +0.195 C 
ATOM      3  C   LIG    1        0.524  -6.551  -3.724  0.00  0.00    +0.178 C 
ATOM      4  C   LIG    1        2.005  -6.805  -3.365  0.00  0.00    +0.178 C 
ATOM      5  O   LIG    1        2.648  -5.521  -3.521  0.00  0.00    -0.346 OA
ENDROOT
BRANCH   1  11
ATOM      6  C   LIG    1        0.848  -0.411  -1.489  0.00  0.00    +0.192 A 
ATOM      7  N   LIG    1        1.284   0.573  -2.268  0.00  0.00    -0.205 NA
ATOM      8  C   LIG    1        1.927   0.317  -3.401  0.00  0.00    +0.148 A 
ATOM      9  C   LIG    1        2.141  -1.024  -3.765  0.00  0.00    +0.147 A 
ATOM     10  C   LIG    1        1.662  -2.031  -2.911  0.00  0.00    +0.169 A 
ATOM     11  N   LIG    1        2.002  -3.222  -3.501  0.00  0.00    -0.285 N 
ATOM     12  C   LIG    1        2.658  -2.930  -4.662  0.00  0.00    +0.203 A 
ATOM     13  N   LIG    1        2.738  -1.641  -4.815  0.00  0.00    -0.231 NA
ATOM     14  N   LIG    1        1.033  -1.686  -1.792  0.00  0.00    -0.202 NA
BRANCH   8  15
ATOM     15  N   LIG    1        2.377   1.348  -4.206  0.00  0.00    -0.341 N 
ATOM     16  H   LIG    1        2.846   1.150  -5.032  0.00  0.00    +0.144 HD
ATOM     17  H   LIG    1        2.224   2.270  -3.945  0.00  0.00    +0.144 HD
ENDBRANCH   8  15
BRANCH   6  19
ATOM     18  C   LIG    1       -0.022   1.810   0.012  0.00  0.00    +0.093 C 
ATOM     19  S   LIG    1        0.002  -0.004   0.002  0.00  0.00    -0.089 S 
ENDBRANCH   6  19
ENDBRANCH   1  11
BRANCH   3  20
ATOM     20  O   LIG    1       -0.337  -7.319  -2.881  0.00  0.00    -0.386 OA
ATOM     21  H   LIG    1       -1.279  -7.153  -3.024  0.00  0.00    +0.210 HD
ENDBRANCH   3  20
BRANCH   2  22
ATOM     22  O   LIG    1       -0.657  -4.827  -2.452  0.00  0.00    -0.385 OA
ATOM     23  H   LIG    1       -1.546  -5.110  -2.703  0.00  0.00    +0.210 HD
ENDBRANCH   2  22
BRANCH   4  24
ATOM     24  C   LIG    1        2.617  -7.830  -4.324  0.00  0.00    +0.206 C 
BRANCH  24  25
ATOM     25  O   LIG    1        3.948  -8.137  -3.906  0.00  0.00    -0.284 OA
BRANCH  25  26
ATOM     26  P   LIG    1        4.893  -9.182  -4.686  0.00  0.00    +0.483 P 
ATOM     27  O   LIG    1        4.167 -10.540  -4.809  0.00  0.00    -0.227 OA
BRANCH  26  28
ATOM     28  O   LIG    1        5.209  -8.637  -6.096  0.00  0.00    -0.302 OA
ATOM     29  H   LIG    1        4.382  -8.518  -6.589  0.00  0.00    +0.222 HD
ENDBRANCH  26  28
BRANCH  26  30
ATOM     30  O   LIG    1        6.265  -9.379  -3.867  0.00  0.00    -0.186 OA
BRANCH  30  31
ATOM     31  P   LIG    1        7.453 -10.464  -3.921  0.00  0.00    +0.492 P 
ATOM     32  O   LIG    1        6.856 -11.873  -4.134  0.00  0.00    -0.226 OA
BRANCH  31  33
ATOM     33  O   LIG    1        8.406 -10.127  -5.090  0.00  0.00    -0.302 OA
ATOM     34  H   LIG    1        7.912 -10.146  -5.925  0.00  0.00    +0.222 HD
ENDBRANCH  31  33
BRANCH  31  35
ATOM     35  O   LIG    1        8.273 -10.433  -2.535  0.00  0.00    -0.186 OA
BRANCH  35  36
ATOM     36  P   LIG    1        9.332 -11.425  -1.840  0.00  0.00    +0.481 P 
ATOM     37  O   LIG    1       10.369 -11.888  -2.887  0.00  0.00    -0.227 OA
BRANCH  36  38
ATOM     38  O   LIG    1       10.085 -10.654  -0.644  0.00  0.00    -0.302 OA
ATOM     39  H   LIG    1       10.739 -11.193  -0.179  0.00  0.00    +0.222 HD
ENDBRANCH  36  38
BRANCH  36  40
ATOM     40  O   LIG    1        8.589 -12.655  -1.272  0.00  0.00    -0.302 OA
ATOM     41  H   LIG    1        8.136 -13.120  -1.993  0.00  0.00    +0.222 HD
ENDBRANCH  36  40
ENDBRANCH  35  36
ENDBRANCH  31  35
ENDBRANCH  30  31
ENDBRANCH  26  30
ENDBRANCH  25  26
ENDBRANCH  24  25
ENDBRANCH   4  24
TORSDOF 16
