REMARK  Name = ZINC19363139
REMARK                            x       y       z     vdW  Elec       q    Type
REMARK                         _______ _______ _______ _____ _____    ______ ____
ROOT
ATOM      1  N   LIG    1       -1.855  -6.504  -3.078  0.00  0.00    +0.383 N 
ATOM      2  H   LIG    1       -1.081  -6.294  -3.690  0.00  0.00    -0.082 HD
ATOM      3  C   LIG    1       -2.967  -5.588  -3.362  0.00  0.00    -0.063 C 
ATOM      4  C   LIG    1       -3.396  -5.745  -4.823  0.00  0.00    +0.066 C 
ATOM      5  N   LIG    1       -3.809  -7.134  -5.064  0.00  0.00    -0.304 NA
ATOM      6  C   LIG    1       -2.713  -8.065  -4.759  0.00  0.00    +0.066 C 
ATOM      7  C   LIG    1       -2.291  -7.890  -3.299  0.00  0.00    -0.063 C 
ENDROOT
BRANCH   1   8
ATOM      8  C   LIG    1       -1.433  -6.341  -1.680  0.00  0.00    -0.044 C 
BRANCH   8   9
ATOM      9  C   LIG    1       -0.180  -7.182  -1.425  0.00  0.00    +0.135 C 
BRANCH   9  10
ATOM     10  O   LIG    1        0.875  -6.736  -2.279  0.00  0.00    -0.390 OA
ATOM     11  H   LIG    1        1.122  -5.810  -2.149  0.00  0.00    +0.210 HD
ENDBRANCH   9  10
BRANCH   9  12
ATOM     12  C   LIG    1        0.248  -7.029   0.036  0.00  0.00    +0.258 C 
BRANCH  12  13
ATOM     13  O   LIG    1        1.346  -7.903   0.305  0.00  0.00    -0.489 OA
BRANCH  13  19
ATOM     14  C   LIG    1        2.917  -8.713   1.898  0.00  0.00    -0.002 A 
ATOM     15  C   LIG    1        3.431  -8.693   3.180  0.00  0.00    +0.007 A 
ATOM     16  C   LIG    1        2.880  -7.859   4.135  0.00  0.00    +0.001 A 
ATOM     17  C   LIG    1        1.813  -7.042   3.809  0.00  0.00    +0.004 A 
ATOM     18  C   LIG    1        1.295  -7.057   2.529  0.00  0.00    +0.046 A 
ATOM     19  C   LIG    1        1.850  -7.890   1.567  0.00  0.00    +0.124 A 
BRANCH  14  20
ATOM     20  C   LIG    1        3.518  -9.623   0.857  0.00  0.00    +0.065 C 
BRANCH  20  22
ATOM     21  C   LIG    1        5.766  -9.316  -0.045  0.00  0.00    +0.004 C 
ATOM     22  C   LIG    1        4.541  -8.861   0.055  0.00  0.00    -0.030 C 
ENDBRANCH  20  22
ENDBRANCH  14  20
ENDBRANCH  13  19
ENDBRANCH  12  13
ENDBRANCH   9  12
ENDBRANCH   8   9
ENDBRANCH   1   8
BRANCH   5  23
ATOM     23  C   LIG    1       -4.282  -7.312  -6.443  0.00  0.00    +0.106 C 
BRANCH  23  24
ATOM     24  C   LIG    1       -4.931  -8.690  -6.586  0.00  0.00    +0.144 C 
BRANCH  24  25
ATOM     25  N   LIG    1       -5.403  -8.867  -7.962  0.00  0.00    -0.274 N 
ATOM     26  C   LIG    1       -6.654  -8.479  -8.274  0.00  0.00    +0.262 A 
ATOM     27  C   LIG    1       -7.163  -8.639  -9.644  0.00  0.00    +0.048 A 
ATOM     28  C   LIG    1       -8.444  -8.254 -10.008  0.00  0.00    +0.014 A 
ATOM     29  C   LIG    1       -8.880  -8.426 -11.317  0.00  0.00    +0.001 A 
ATOM     30  C   LIG    1       -8.073  -8.973 -12.273  0.00  0.00    +0.008 A 
ATOM     31  C   LIG    1       -6.767  -9.377 -11.945  0.00  0.00    -0.016 A 
ATOM     32  C   LIG    1       -5.899  -9.945 -12.893  0.00  0.00    +0.008 A 
ATOM     33  C   LIG    1       -4.639 -10.322 -12.527  0.00  0.00    +0.001 A 
ATOM     34  C   LIG    1       -4.180 -10.161 -11.225  0.00  0.00    +0.014 A 
ATOM     35  C   LIG    1       -5.006  -9.604 -10.259  0.00  0.00    +0.048 A 
ATOM     36  C   LIG    1       -6.313  -9.207 -10.620  0.00  0.00    +0.007 A 
ATOM     37  O   LIG    1       -7.367  -7.992  -7.417  0.00  0.00    -0.267 OA
ATOM     38  C   LIG    1       -4.567  -9.406  -8.870  0.00  0.00    +0.262 A 
ATOM     39  O   LIG    1       -3.445  -9.736  -8.537  0.00  0.00    -0.267 OA
ENDBRANCH  24  25
ENDBRANCH  23  24
ENDBRANCH   5  23
TORSDOF 11
