REMARK  Name = ZINC13800639
REMARK                            x       y       z     vdW  Elec       q    Type
REMARK                         _______ _______ _______ _____ _____    ______ ____
ROOT
ATOM      1  N   LIG    1        3.584   2.125  -0.021  0.00  0.00    -0.283 N 
ATOM      2  H   LIG    1        4.429   1.654   0.049  0.00  0.00    +0.155 HD
ATOM      3  C   LIG    1        3.568   3.470  -0.116  0.00  0.00    +0.234 C 
ATOM      4  O   LIG    1        2.512   4.066  -0.103  0.00  0.00    -0.274 OA
ENDROOT
BRANCH   1   7
ATOM      5  C   LIG    1        0.065   1.242  -0.620  0.00  0.00    +0.030 A 
ATOM      6  C   LIG    1        1.250   1.952  -0.618  0.00  0.00    +0.026 A 
ATOM      7  C   LIG    1        2.381   1.409  -0.024  0.00  0.00    +0.048 A 
ATOM      8  C   LIG    1        2.317   0.153   0.567  0.00  0.00    +0.041 A 
ATOM      9 BR   LIG    1        3.855  -0.591   1.378  0.00  0.00    -0.048 Br
ATOM     10  C   LIG    1        1.128  -0.551   0.562  0.00  0.00    +0.045 A 
ATOM     11  C   LIG    1        0.004  -0.007  -0.031  0.00  0.00    +0.106 A 
BRANCH  11  12
ATOM     12  S   LIG    1       -1.510  -0.908  -0.035  0.00  0.00    +0.056 S 
ATOM     13  O   LIG    1       -2.552   0.049  -0.172  0.00  0.00    -0.153 OA
ATOM     14  O   LIG    1       -1.447  -1.815   1.057  0.00  0.00    -0.153 OA
BRANCH  12  15
ATOM     15  N   LIG    1       -1.529  -1.827  -1.413  0.00  0.00    -0.204 NA
ATOM     16  H   LIG    1       -1.069  -1.517  -2.209  0.00  0.00    +0.144 HD
ATOM     17  H   LIG    1       -2.000  -2.675  -1.424  0.00  0.00    +0.144 HD
ENDBRANCH  12  15
ENDBRANCH  11  12
ENDBRANCH   1   7
BRANCH   3  18
ATOM     18  C   LIG    1        4.862   4.232  -0.238  0.00  0.00    +0.200 C 
BRANCH  18  19
ATOM     19  N   LIG    1        4.578   5.666  -0.326  0.00  0.00    -0.308 N 
ATOM     20  H   LIG    1        3.661   5.981  -0.300  0.00  0.00    +0.149 HD
ATOM     21  C   LIG    1        5.591   6.548  -0.442  0.00  0.00    +0.196 C 
ATOM     22  O   LIG    1        6.737   6.154  -0.474  0.00  0.00    -0.278 OA
BRANCH  21  23
ATOM     23  C   LIG    1        5.298   8.024  -0.531  0.00  0.00    +0.011 C 
BRANCH  23  24
ATOM     24  N   LIG    1        6.560   8.767  -0.650  0.00  0.00    +0.384 N 
ATOM     25  H   LIG    1        6.364   9.755  -0.710  0.00  0.00    -0.089 HD
ATOM     26  H   LIG    1        7.048   8.469  -1.482  0.00  0.00    -0.089 HD
ATOM     27  H   LIG    1        7.134   8.586   0.159  0.00  0.00    -0.089 HD
ENDBRANCH  23  24
ENDBRANCH  21  23
ENDBRANCH  18  19
ENDBRANCH   3  18
TORSDOF 7
