REMARK  Name = ZINC36242035
REMARK                            x       y       z     vdW  Elec       q    Type
REMARK                         _______ _______ _______ _____ _____    ______ ____
ROOT
ATOM      1  C   LIG    1       -0.017   1.378   0.010  0.00  0.00    +0.001 A 
ATOM      2  C   LIG    1        1.170   2.088   0.002  0.00  0.00    +0.004 A 
ATOM      3  C   LIG    1        2.377   1.417  -0.013  0.00  0.00    +0.046 A 
ATOM      4  C   LIG    1        2.399   0.030  -0.021  0.00  0.00    +0.126 A 
ATOM      5  C   LIG    1        1.207  -0.680  -0.013  0.00  0.00    +0.014 A 
ATOM      6  C   LIG    1        0.002  -0.004   0.002  0.00  0.00    +0.009 A 
ENDROOT
BRANCH   4   7
ATOM      7  O   LIG    1        3.586  -0.632  -0.037  0.00  0.00    -0.480 OA
BRANCH   7   8
ATOM      8  C   LIG    1        4.772   0.164  -0.045  0.00  0.00    +0.349 C 
BRANCH   8   9
ATOM      9  C   LIG    1        5.981  -0.737  -0.062  0.00  0.00    +0.343 C 
ATOM     10  O   LIG    1        5.839  -1.948  -0.067  0.00  0.00    -0.247 OA
BRANCH   9  11
ATOM     11  O   LIG    1        7.100  -0.255  -0.071  0.00  0.00    -0.478 OA
ATOM     12  H   LIG    1        7.210   0.676  -0.067  0.00  0.00    +0.295 HD
ENDBRANCH   9  11
ENDBRANCH   8   9
ENDBRANCH   7   8
ENDBRANCH   4   7
BRANCH   5  13
ATOM     13  C   LIG    1        1.227  -2.187  -0.022  0.00  0.00    +0.161 C 
BRANCH  13  14
ATOM     14  N   LIG    1        1.367  -2.681   1.350  0.00  0.00    -0.334 N 
ATOM     15  C   LIG    1        2.542  -2.935   2.006  0.00  0.00    +0.105 A 
ATOM     16  C   LIG    1        2.215  -3.370   3.237  0.00  0.00    +0.101 A 
ATOM     17  N   LIG    1        0.877  -3.383   3.331  0.00  0.00    -0.352 N 
ATOM     18  H   LIG    1        0.371  -3.655   4.113  0.00  0.00    +0.166 HD
ATOM     19  C   LIG    1        0.363  -2.966   2.206  0.00  0.00    +0.174 A 
ENDBRANCH  13  14
ENDBRANCH   5  13
TORSDOF 6
