REMARK  Name = ZINC27092909
REMARK                            x       y       z     vdW  Elec       q    Type
REMARK                         _______ _______ _______ _____ _____    ______ ____
ROOT
ATOM      1  C   LIG    1        3.104   7.116   1.122  0.00  0.00    +0.082 C 
ENDROOT
BRANCH   1   2
ATOM      2  C   LIG    1        4.370   7.646   1.746  0.00  0.00    +0.217 C 
ATOM      3  N   LIG    1        4.528   7.610   3.084  0.00  0.00    -0.306 N 
ATOM      4  H   LIG    1        3.771   7.121   3.714  0.00  0.00    +0.149 HD
ATOM      5  O   LIG    1        5.246   8.104   1.044  0.00  0.00    -0.275 OA
BRANCH   3   6
ATOM      6  C   LIG    1        5.707   8.224   3.699  0.00  0.00    +0.132 C 
ATOM      7  C   LIG    1        5.430   9.673   4.037  0.00  0.00    -0.022 A 
ATOM      8  C   LIG    1        5.406  10.795   3.225  0.00  0.00    +0.006 A 
ATOM      9  C   LIG    1        5.124  12.036   3.763  0.00  0.00    +0.000 A 
ATOM     10  C   LIG    1        4.865  12.159   5.115  0.00  0.00    +0.000 A 
ATOM     11  C   LIG    1        4.888  11.041   5.926  0.00  0.00    +0.004 A 
ATOM     12  C   LIG    1        5.171   9.796   5.389  0.00  0.00    -0.040 A 
ATOM     13  C   LIG    1        5.256   8.438   6.052  0.00  0.00    +0.069 C 
ATOM     14  C   LIG    1        6.022   7.545   5.049  0.00  0.00    +0.143 C 
BRANCH  14  15
ATOM     15  O   LIG    1        5.522   6.207   5.073  0.00  0.00    -0.389 OA
ATOM     16  H   LIG    1        5.664   5.582   5.968  0.00  0.00    +0.210 HD
ENDBRANCH  14  15
ENDBRANCH   3   6
ENDBRANCH   1   2
BRANCH   1  17
ATOM     17  C   LIG    1        2.145   8.276   0.851  0.00  0.00    +0.045 C 
BRANCH  17  18
ATOM     18  C   LIG    1        0.799   7.725   0.377  0.00  0.00    +0.129 C 
BRANCH  18  19
ATOM     19  O   LIG    1        0.960   7.109  -0.902  0.00  0.00    -0.391 OA
ATOM     20  H   LIG    1        1.651   6.261  -1.022  0.00  0.00    +0.210 HD
ENDBRANCH  18  19
BRANCH  18  21
ATOM     21  C   LIG    1       -0.211   8.869   0.268  0.00  0.00    +0.116 C 
BRANCH  21  29
ATOM     22  C   LIG    1       -2.593   9.307   0.285  0.00  0.00    +0.126 C 
ATOM     23  C   LIG    1       -3.967   8.672   0.059  0.00  0.00    -0.054 C 
ATOM     24  N   LIG    1       -4.065   8.204  -1.330  0.00  0.00    +0.381 N 
ATOM     25  H   LIG    1       -3.949   9.058  -2.014  0.00  0.00    -0.086 HD
ATOM     26  H   LIG    1       -5.047   7.736  -1.491  0.00  0.00    -0.086 HD
ATOM     27  C   LIG    1       -3.017   7.216  -1.625  0.00  0.00    -0.067 C 
ATOM     28  C   LIG    1       -1.643   7.852  -1.399  0.00  0.00    +0.066 C 
ATOM     29  N   LIG    1       -1.545   8.320  -0.010  0.00  0.00    -0.292 NA
BRANCH  22  32
ATOM     30  N   LIG    1       -2.845  11.000   2.071  0.00  0.00    -0.309 N 
ATOM     31  H   LIG    1       -3.233  11.693   1.311  0.00  0.00    +0.149 HD
ATOM     32  C   LIG    1       -2.474   9.752   1.720  0.00  0.00    +0.229 C 
ATOM     33  O   LIG    1       -2.046   8.988   2.559  0.00  0.00    -0.274 OA
BRANCH  30  35
ATOM     34  C   LIG    1       -1.268  11.343   3.909  0.00  0.00    +0.031 C 
ATOM     35  C   LIG    1       -2.729  11.433   3.466  0.00  0.00    +0.026 C 
ATOM     36  C   LIG    1       -3.588  10.529   4.353  0.00  0.00    +0.031 C 
ATOM     37  C   LIG    1       -3.212  12.879   3.593  0.00  0.00    +0.031 C 
ENDBRANCH  30  35
ENDBRANCH  22  32
ENDBRANCH  21  29
ENDBRANCH  18  21
ENDBRANCH  17  18
ENDBRANCH   1  17
BRANCH   1  38
ATOM     38  C   LIG    1        3.440   6.413  -0.195  0.00  0.00    +0.048 C 
BRANCH  38  39
ATOM     39  C   LIG    1        4.320   5.221   0.082  0.00  0.00    -0.047 A 
ATOM     40  C   LIG    1        3.755   4.018   0.458  0.00  0.00    +0.003 A 
ATOM     41  C   LIG    1        4.561   2.924   0.712  0.00  0.00    +0.000 A 
ATOM     42  C   LIG    1        5.934   3.034   0.588  0.00  0.00    +0.000 A 
ATOM     43  C   LIG    1        6.499   4.238   0.211  0.00  0.00    +0.000 A 
ATOM     44  C   LIG    1        5.692   5.331  -0.043  0.00  0.00    +0.003 A 
ENDBRANCH  38  39
ENDBRANCH   1  38
TORSDOF 12
