REMARK  Name = ZINC36184713
REMARK                            x       y       z     vdW  Elec       q    Type
REMARK                         _______ _______ _______ _____ _____    ______ ____
ROOT
ATOM      1  C   LIG    1       -6.683 -10.015  -0.064  0.00  0.00    +0.139 C 
ATOM      2  C   LIG    1       -7.508 -10.256   1.202  0.00  0.00    +0.036 C 
ENDROOT
BRANCH   1   3
ATOM      3  C   LIG    1       -7.328 -10.726  -1.226  0.00  0.00    +0.138 A 
ATOM      4  N   LIG    1       -8.553 -11.138  -1.094  0.00  0.00    -0.231 NA
ATOM      5  C   LIG    1       -9.197 -11.784  -2.097  0.00  0.00    +0.078 A 
ATOM      6  C   LIG    1      -10.515 -12.226  -1.956  0.00  0.00    +0.028 A 
ATOM      7  C   LIG    1      -11.131 -12.878  -3.000  0.00  0.00    +0.002 A 
ATOM      8  C   LIG    1      -10.458 -13.103  -4.195  0.00  0.00    +0.001 A 
ATOM      9  C   LIG    1       -9.159 -12.677  -4.358  0.00  0.00    +0.015 A 
ATOM     10  C   LIG    1       -8.517 -12.014  -3.313  0.00  0.00    +0.065 A 
ATOM     11  C   LIG    1       -7.132 -11.536  -3.431  0.00  0.00    +0.266 A 
ATOM     12  O   LIG    1       -6.490 -11.703  -4.452  0.00  0.00    -0.267 OA
ATOM     13  N   LIG    1       -6.599 -10.900  -2.361  0.00  0.00    -0.263 N 
BRANCH  13  14
ATOM     14  C   LIG    1       -5.284 -10.420  -2.423  0.00  0.00    +0.051 A 
ATOM     15  C   LIG    1       -4.276 -11.065  -1.718  0.00  0.00    +0.029 A 
ATOM     16  C   LIG    1       -2.980 -10.591  -1.780  0.00  0.00    +0.040 A 
ATOM     17  C   LIG    1       -2.686  -9.473  -2.544  0.00  0.00    +0.124 A 
ATOM     18  F   LIG    1       -1.418  -9.011  -2.604  0.00  0.00    -0.205 F 
ATOM     19  C   LIG    1       -3.691  -8.829  -3.247  0.00  0.00    +0.040 A 
ATOM     20  C   LIG    1       -4.987  -9.303  -3.192  0.00  0.00    +0.029 A 
ENDBRANCH  13  14
ENDBRANCH   1   3
BRANCH   1  22
ATOM     21  C   LIG    1       -5.447  -7.925  -0.267  0.00  0.00    +0.216 C 
ATOM     22  N   LIG    1       -6.624  -8.579  -0.343  0.00  0.00    -0.293 N 
ATOM     23  O   LIG    1       -4.438  -8.527   0.032  0.00  0.00    -0.276 OA
BRANCH  21  24
ATOM     24  C   LIG    1       -5.386  -6.447  -0.554  0.00  0.00    +0.096 C 
BRANCH  24  25
ATOM     25  C   LIG    1       -3.946  -5.957  -0.399  0.00  0.00    +0.009 C 
BRANCH  25  26
ATOM     26  C   LIG    1       -3.884  -4.456  -0.690  0.00  0.00    +0.000 C 
BRANCH  26  27
ATOM     27  C   LIG    1       -2.442  -3.966  -0.535  0.00  0.00    +0.000 C 
BRANCH  27  28
ATOM     28  C   LIG    1       -2.381  -2.465  -0.826  0.00  0.00    +0.000 C 
BRANCH  28  29
ATOM     29  C   LIG    1       -0.940  -1.974  -0.671  0.00  0.00    -0.000 C 
BRANCH  29  30
ATOM     30  C   LIG    1       -0.878  -0.473  -0.962  0.00  0.00    -0.000 C 
BRANCH  30  32
ATOM     31  C   LIG    1        0.625   1.518  -1.098  0.00  0.00    +0.004 C 
ATOM     32  C   LIG    1        0.563   0.017  -0.807  0.00  0.00    -0.003 C 
ENDBRANCH  30  32
ENDBRANCH  29  30
ENDBRANCH  28  29
ENDBRANCH  27  28
ENDBRANCH  26  27
ENDBRANCH  25  26
ENDBRANCH  24  25
ENDBRANCH  21  24
BRANCH  22  33
ATOM     33  C   LIG    1       -7.843  -7.851  -0.704  0.00  0.00    +0.090 C 
BRANCH  33  34
ATOM     34  C   LIG    1       -7.952  -7.763  -2.228  0.00  0.00    -0.060 C 
BRANCH  34  35
ATOM     35  N   LIG    1       -9.106  -6.928  -2.588  0.00  0.00    +0.377 N 
ATOM     36  H   LIG    1       -9.025  -6.029  -2.138  0.00  0.00    -0.083 HD
ATOM     37  C   LIG    1      -10.343  -7.586  -2.148  0.00  0.00    -0.097 C 
ATOM     38  C   LIG    1       -9.141  -6.745  -4.046  0.00  0.00    -0.097 C 
ENDBRANCH  34  35
ENDBRANCH  33  34
ENDBRANCH  22  33
ENDBRANCH   1  22
TORSDOF 14
