REMARK  Name = ZINC52619107
REMARK                            x       y       z     vdW  Elec       q    Type
REMARK                         _______ _______ _______ _____ _____    ______ ____
ROOT
ATOM      1  C   LIG    1        2.594  -8.505  -0.067  0.00  0.00    +0.131 C 
ENDROOT
BRANCH   1   3
ATOM      2  C   LIG    1        1.373  -6.396  -0.048  0.00  0.00    +0.244 C 
ATOM      3  N   LIG    1        2.557  -7.040  -0.058  0.00  0.00    -0.308 N 
ATOM      4  H   LIG    1        3.385  -6.534  -0.060  0.00  0.00    +0.149 HD
ATOM      5  O   LIG    1        0.336  -7.030  -0.046  0.00  0.00    -0.270 OA
BRANCH   2   9
ATOM      6  C   LIG    1        1.266  -2.147  -0.023  0.00  0.00    +0.000 A 
ATOM      7  C   LIG    1        0.076  -2.874  -0.021  0.00  0.00    +0.011 A 
ATOM      8  C   LIG    1        0.110  -4.251  -0.029  0.00  0.00    +0.014 A 
ATOM      9  C   LIG    1        1.336  -4.919  -0.040  0.00  0.00    +0.037 A 
ATOM     10  C   LIG    1        2.527  -4.190  -0.042  0.00  0.00    +0.014 A 
ATOM     11  C   LIG    1        2.492  -2.813  -0.039  0.00  0.00    +0.011 A 
BRANCH   6  16
ATOM     12  C   LIG    1       -0.017   1.380   0.010  0.00  0.00    +0.004 A 
ATOM     13  C   LIG    1        1.194   2.059   0.002  0.00  0.00    +0.020 A 
ATOM     14  C   LIG    1        2.375   1.339  -0.013  0.00  0.00    +0.111 A 
ATOM     15  N   LIG    1        2.364   0.022  -0.021  0.00  0.00    -0.255 NA
ATOM     16  C   LIG    1        1.229  -0.664  -0.014  0.00  0.00    +0.071 A 
ATOM     17  C   LIG    1        0.002  -0.004   0.002  0.00  0.00    +0.028 A 
ENDBRANCH   6  16
ENDBRANCH   2   9
ENDBRANCH   1   3
BRANCH   1  18
ATOM     18  C   LIG    1        4.027  -8.971  -0.077  0.00  0.00    -0.011 C 
ATOM     19  C   LIG    1        4.453  -9.798   0.845  0.00  0.00    -0.014 C 
BRANCH  19  20
ATOM     20  C   LIG    1        5.886 -10.264   0.835  0.00  0.00    +0.111 C 
BRANCH  20  21
ATOM     21  N   LIG    1        6.506  -9.973   2.135  0.00  0.00    -0.296 NA
ATOM     22  C   LIG    1        6.604  -8.524   2.358  0.00  0.00    +0.103 C 
ATOM     23  C   LIG    1        7.084  -8.262   3.789  0.00  0.00    +0.120 C 
ATOM     24  N   LIG    1        8.331  -9.011   4.008  0.00  0.00    -0.326 N 
ATOM     25  C   LIG    1        8.350 -10.444   3.676  0.00  0.00    +0.120 C 
ATOM     26  C   LIG    1        7.820 -10.620   2.249  0.00  0.00    +0.103 C 
BRANCH  24  27
ATOM     27  C   LIG    1        9.467  -8.378   4.518  0.00  0.00    +0.050 A 
ATOM     28  C   LIG    1        9.682  -8.332   5.890  0.00  0.00    +0.025 A 
ATOM     29  C   LIG    1       10.806  -7.706   6.392  0.00  0.00    +0.003 A 
ATOM     30  C   LIG    1       11.719  -7.125   5.531  0.00  0.00    +0.021 A 
ATOM     31  C   LIG    1       11.509  -7.168   4.164  0.00  0.00    +0.061 A 
ATOM     32 CL   LIG    1       12.658  -6.436   3.087  0.00  0.00    -0.082 Cl
ATOM     33  C   LIG    1       10.389  -7.798   3.654  0.00  0.00    +0.080 A 
ATOM     34 CL   LIG    1       10.130  -7.859   1.939  0.00  0.00    -0.080 Cl
ENDBRANCH  24  27
ENDBRANCH  20  21
ENDBRANCH  19  20
ENDBRANCH   1  18
TORSDOF 7
