REMARK  Name = ZINC28093698
REMARK                            x       y       z     vdW  Elec       q    Type
REMARK                         _______ _______ _______ _____ _____    ______ ____
ROOT
ATOM      1  C   LIG    1        3.468   0.759  -0.516  0.00  0.00    +0.070 C 
ATOM      2  C   LIG    1        1.975   0.878  -0.830  0.00  0.00    +0.248 C 
ATOM      3  O   LIG    1        1.304  -0.353  -0.508  0.00  0.00    -0.349 OA
ATOM      4  C   LIG    1        0.002  -0.004   0.002  0.00  0.00    +0.196 C 
ATOM      5  C   LIG    1       -0.019   1.532   0.011  0.00  0.00    +0.084 C 
ATOM      6  C   LIG    1       -0.730   2.071  -1.225  0.00  0.00    -0.041 C 
ATOM      7  N   LIG    1       -1.856   2.915  -0.795  0.00  0.00    +0.382 N 
ATOM      8  H   LIG    1       -2.363   3.292  -1.696  0.00  0.00    -0.082 HD
ATOM      9  C   LIG    1       -2.831   2.135  -0.020  0.00  0.00    -0.078 C 
ATOM     10  C   LIG    1       -2.169   1.602   1.253  0.00  0.00    -0.012 C 
ATOM     11  C   LIG    1       -1.380   4.072  -0.025  0.00  0.00    -0.078 C 
ATOM     12  C   LIG    1       -0.673   3.589   1.244  0.00  0.00    -0.012 C 
ATOM     13  C   LIG    1       -0.701   2.054   1.273  0.00  0.00    +0.018 C 
ATOM     14  O   LIG    1        1.373   1.898  -0.001  0.00  0.00    -0.345 OA
ENDROOT
TORSDOF 0
