REMARK  Name = ZINC19300052
REMARK                            x       y       z     vdW  Elec       q    Type
REMARK                         _______ _______ _______ _____ _____    ______ ____
ROOT
ATOM      1  C   LIG    1       -0.017   1.378   0.010  0.00  0.00    +0.069 A 
ATOM      2  C   LIG    1        1.169   2.089   0.002  0.00  0.00    +0.127 A 
ATOM      3  C   LIG    1        2.379   1.420  -0.013  0.00  0.00    +0.081 A 
ATOM      4  C   LIG    1        2.405   0.035  -0.021  0.00  0.00    +0.163 A 
ATOM      5  C   LIG    1        1.211  -0.680  -0.013  0.00  0.00    +0.189 A 
ATOM      6  C   LIG    1        0.002  -0.004   0.002  0.00  0.00    +0.169 A 
ENDROOT
BRANCH   2   7
ATOM      7  N   LIG    1        1.143   3.569   0.010  0.00  0.00    +0.006 N 
ATOM      8  O   LIG    1        0.086   4.155   0.024  0.00  0.00    -0.130 OA
BRANCH   7   9
ATOM      9  O   LIG    1        2.180   4.191   0.004  0.00  0.00    -0.396 OA
ATOM     10  H   LIG    1        2.999   3.737  -0.007  0.00  0.00    +0.329 HD
ENDBRANCH   7   9
ENDBRANCH   2   7
BRANCH   4  11
ATOM     11  O   LIG    1        3.594  -0.625  -0.037  0.00  0.00    -0.503 OA
ATOM     12  H   LIG    1        3.947  -0.820   0.842  0.00  0.00    +0.292 HD
ENDBRANCH   4  11
BRANCH   5  13
ATOM     13  O   LIG    1        1.232  -2.040  -0.021  0.00  0.00    -0.502 OA
ATOM     14  H   LIG    1        2.050  -2.497  -0.031  0.00  0.00    +0.292 HD
ENDBRANCH   5  13
BRANCH   6  15
ATOM     15  N   LIG    1       -1.270  -0.762   0.011  0.00  0.00    +0.010 N 
ATOM     16  O   LIG    1       -2.325  -0.171   0.024  0.00  0.00    -0.130 OA
BRANCH  15  17
ATOM     17  O   LIG    1       -1.253  -1.970   0.004  0.00  0.00    -0.396 OA
ATOM     18  H   LIG    1       -0.435  -2.428  -0.007  0.00  0.00    +0.329 HD
ENDBRANCH  15  17
ENDBRANCH   6  15
TORSDOF 6
