REMARK  Name = ZINC19632953
REMARK                            x       y       z     vdW  Elec       q    Type
REMARK                         _______ _______ _______ _____ _____    ______ ____
ROOT
ATOM      1  C   LIG    1        0.113   1.281  -0.391  0.00  0.00    +0.018 C 
ATOM      2  C   LIG    1        0.080  -0.222  -0.107  0.00  0.00    +0.063 C 
ATOM      3  C   LIG    1       -1.365  -0.683  -0.158  0.00  0.00    +0.065 C 
ATOM      4  C   LIG    1       -1.879  -1.276   0.959  0.00  0.00    +0.049 C 
ATOM      5  C   LIG    1       -3.311  -1.745   0.939  0.00  0.00    +0.066 C 
ATOM      6  N   LIG    1       -1.165  -1.455   2.061  0.00  0.00    -0.256 NA
ATOM      7  C   LIG    1        0.089  -1.098   2.220  0.00  0.00    +0.049 C 
ATOM      8  C   LIG    1        0.767  -1.370   3.538  0.00  0.00    +0.066 C 
ATOM      9  C   LIG    1        0.806  -0.473   1.203  0.00  0.00    +0.060 C 
ATOM     10  C   LIG    1        2.120  -0.101   1.380  0.00  0.00    +0.284 C 
ENDROOT
BRANCH   3  11
ATOM     11  C   LIG    1       -2.146  -0.506  -1.313  0.00  0.00    +0.337 C 
ATOM     12  O   LIG    1       -3.265  -0.983  -1.371  0.00  0.00    -0.245 OA
BRANCH  11  13
ATOM     13  O   LIG    1       -1.656   0.195  -2.359  0.00  0.00    -0.460 OA
BRANCH  13  14
ATOM     14  C   LIG    1       -2.504   0.336  -3.500  0.00  0.00    +0.243 C 
BRANCH  14  15
ATOM     15  C   LIG    1       -1.783   1.153  -4.574  0.00  0.00    +0.115 C 
BRANCH  15  16
ATOM     16  S   LIG    1       -2.860   1.332  -6.023  0.00  0.00    -0.122 S 
BRANCH  16  17
ATOM     17  C   LIG    1       -1.899   2.283  -7.153  0.00  0.00    +0.008 A 
ATOM     18  C   LIG    1       -0.618   2.694  -6.804  0.00  0.00    +0.015 A 
ATOM     19  C   LIG    1        0.131   3.439  -7.693  0.00  0.00    +0.001 A 
ATOM     20  C   LIG    1       -0.391   3.777  -8.928  0.00  0.00    +0.000 A 
ATOM     21  C   LIG    1       -1.666   3.370  -9.278  0.00  0.00    +0.001 A 
ATOM     22  C   LIG    1       -2.419   2.619  -8.397  0.00  0.00    +0.015 A 
ENDBRANCH  16  17
ENDBRANCH  15  16
ENDBRANCH  14  15
ENDBRANCH  13  14
ENDBRANCH  11  13
ENDBRANCH   3  11
BRANCH  10  23
ATOM     23  O   LIG    1        2.791   0.501   0.378  0.00  0.00    -0.467 OA
ATOM     24  C   LIG    1        4.151   0.860   0.631  0.00  0.00    +0.280 C 
ENDBRANCH  10  23
BRANCH  10  25
ATOM     25  O   LIG    1        2.736  -0.338   2.555  0.00  0.00    -0.480 OA
ATOM     26  H   LIG    1        2.269  -0.756   3.252  0.00  0.00    +0.295 HD
ENDBRANCH  10  25
TORSDOF 8
