REMARK  Name = ZINC45358282
REMARK                            x       y       z     vdW  Elec       q    Type
REMARK                         _______ _______ _______ _____ _____    ______ ____
ROOT
ATOM      1  C   LIG    1       -1.836  -1.019  -1.398  0.00  0.00    -0.064 C 
ATOM      2  C   LIG    1       -0.864  -1.893  -2.194  0.00  0.00    +0.006 C 
ATOM      3  C   LIG    1       -0.657  -3.220  -1.458  0.00  0.00    +0.105 C 
ATOM      4  N   LIG    1       -1.968  -3.839  -1.219  0.00  0.00    -0.315 N 
ATOM      5  C   LIG    1       -3.007  -3.052  -0.540  0.00  0.00    +0.105 C 
ATOM      6  C   LIG    1       -3.188  -1.727  -1.287  0.00  0.00    +0.006 C 
ENDROOT
BRANCH   4   7
ATOM      7  C   LIG    1       -2.220  -5.137  -1.625  0.00  0.00    +0.134 A 
ATOM      8  C   LIG    1       -1.965  -6.220  -0.770  0.00  0.00    +0.059 A 
ATOM      9  C   LIG    1       -1.447  -6.368   0.589  0.00  0.00    +0.032 A 
ATOM     10  C   LIG    1       -1.438  -7.683   0.860  0.00  0.00    +0.085 A 
ATOM     11  N   LIG    1       -1.909  -8.384  -0.220  0.00  0.00    -0.346 N 
ATOM     12  H   LIG    1       -1.996  -9.349  -0.262  0.00  0.00    +0.167 HD
ATOM     13  C   LIG    1       -2.238  -7.521  -1.230  0.00  0.00    +0.143 A 
ATOM     14  N   LIG    1       -2.728  -7.673  -2.459  0.00  0.00    -0.218 NA
ATOM     15  C   LIG    1       -2.950  -6.628  -3.227  0.00  0.00    +0.225 A 
ATOM     16  N   LIG    1       -2.714  -5.389  -2.833  0.00  0.00    -0.220 NA
ENDBRANCH   4   7
BRANCH   1  17
ATOM     17  N   LIG    1       -2.011   0.268  -2.085  0.00  0.00    +0.382 N 
ATOM     18  H   LIG    1       -2.651   0.845  -1.560  0.00  0.00    -0.089 HD
ATOM     19  H   LIG    1       -2.384   0.107  -3.009  0.00  0.00    -0.089 HD
ATOM     20  H   LIG    1       -1.120   0.734  -2.158  0.00  0.00    -0.089 HD
ENDBRANCH   1  17
BRANCH   1  21
ATOM     21  C   LIG    1       -1.271  -0.776   0.003  0.00  0.00    +0.022 C 
BRANCH  21  27
ATOM     22  C   LIG    1       -0.054   1.410  -0.067  0.00  0.00    +0.007 A 
ATOM     23  C   LIG    1        1.109   2.149  -0.161  0.00  0.00    +0.046 A 
ATOM     24  C   LIG    1        2.331   1.505  -0.288  0.00  0.00    +0.130 A 
ATOM     25  C   LIG    1        2.382   0.119  -0.321  0.00  0.00    +0.046 A 
ATOM     26  C   LIG    1        1.216  -0.616  -0.227  0.00  0.00    +0.007 A 
ATOM     27  C   LIG    1       -0.001   0.028  -0.100  0.00  0.00    -0.048 A 
BRANCH  24  28
ATOM     28  O   LIG    1        3.477   2.230  -0.381  0.00  0.00    -0.406 OA
BRANCH  28  29
ATOM     29  C   LIG    1        4.698   1.500  -0.509  0.00  0.00    +0.575 C 
ATOM     30  F   LIG    1        4.867   0.672   0.606  0.00  0.00    -0.133 F 
ATOM     31  F   LIG    1        5.770   2.395  -0.592  0.00  0.00    -0.133 F 
ATOM     32  F   LIG    1        4.654   0.717  -1.668  0.00  0.00    -0.133 F 
ENDBRANCH  28  29
ENDBRANCH  24  28
ENDBRANCH  21  27
ENDBRANCH   1  21
TORSDOF 6
