REMARK  Name = ZINC14979066
REMARK                            x       y       z     vdW  Elec       q    Type
REMARK                         _______ _______ _______ _____ _____    ______ ____
ROOT
ATOM      1  C   LIG    1       -1.979   2.477  -2.357  0.00  0.00    +0.005 A 
ATOM      2  C   LIG    1       -2.784   2.140  -3.425  0.00  0.00    +0.019 A 
ATOM      3  C   LIG    1       -3.763   1.155  -3.275  0.00  0.00    +0.052 A 
ATOM      4  C   LIG    1       -3.917   0.516  -2.043  0.00  0.00    +0.019 A 
ATOM      5  C   LIG    1       -3.102   0.860  -0.984  0.00  0.00    +0.005 A 
ATOM      6  C   LIG    1       -2.134   1.836  -1.141  0.00  0.00    -0.041 A 
ENDROOT
BRANCH   3   7
ATOM      7  C   LIG    1       -4.606   0.804  -4.378  0.00  0.00    +0.099 C 
ATOM      8  N   LIG    1       -5.274   0.525  -5.253  0.00  0.00    -0.191 NA
ENDBRANCH   3   7
BRANCH   6   9
ATOM      9  C   LIG    1       -1.247   2.206   0.020  0.00  0.00    +0.092 C 
BRANCH   9  10
ATOM     10  C   LIG    1       -0.016   1.337   0.009  0.00  0.00    +0.063 A 
ATOM     11  C   LIG    1        1.259   1.771  -0.000  0.00  0.00    +0.107 A 
ATOM     12  N   LIG    1        2.056   0.658  -0.014  0.00  0.00    -0.351 N 
ATOM     13  C   LIG    1        1.240  -0.418  -0.012  0.00  0.00    +0.196 A 
ATOM     14  H   LIG    1        3.056   0.645  -0.024  0.00  0.00    +0.166 HD
ATOM     15  N   LIG    1        0.002  -0.004   0.002  0.00  0.00    -0.241 NA
ENDBRANCH   9  10
ENDBRANCH   6   9
TORSDOF 3
