REMARK  Name = ZINC13816272
REMARK                            x       y       z     vdW  Elec       q    Type
REMARK                         _______ _______ _______ _____ _____    ______ ____
ROOT
ATOM      1  C   LIG    1        0.753  -0.693   3.488  0.00  0.00    +0.202 C 
ENDROOT
BRANCH   1   2
ATOM      2  C   LIG    1       -0.192  -0.667   4.662  0.00  0.00    -0.007 A 
ATOM      3  C   LIG    1       -0.368   0.500   5.382  0.00  0.00    +0.007 A 
ATOM      4  C   LIG    1       -1.234   0.523   6.459  0.00  0.00    +0.000 A 
ATOM      5  C   LIG    1       -1.924  -0.620   6.816  0.00  0.00    +0.000 A 
ATOM      6  C   LIG    1       -1.748  -1.787   6.096  0.00  0.00    +0.000 A 
ATOM      7  C   LIG    1       -0.885  -1.809   5.017  0.00  0.00    +0.007 A 
ENDBRANCH   1   2
BRANCH   1   8
ATOM      8  C   LIG    1        0.063  -0.082   2.266  0.00  0.00    +0.031 C 
BRANCH   8   9
ATOM      9  C   LIG    1        0.974  -0.221   1.045  0.00  0.00    -0.075 C 
BRANCH   9  11
ATOM     10  C   LIG    1        0.149   1.812   0.073  0.00  0.00    -0.095 C 
ATOM     11  N   LIG    1        0.312   0.366  -0.129  0.00  0.00    +0.385 N 
ATOM     12  H   LIG    1       -0.594  -0.061  -0.252  0.00  0.00    -0.081 HD
BRANCH  11  13
ATOM     13  C   LIG    1        1.133   0.127  -1.324  0.00  0.00    +0.043 C 
BRANCH  13  14
ATOM     14  C   LIG    1        0.398   0.619  -2.544  0.00  0.00    +0.288 C 
ATOM     15  O   LIG    1       -0.707   1.122  -2.429  0.00  0.00    -0.253 OA
BRANCH  14  16
ATOM     16  O   LIG    1        0.908   0.514  -3.646  0.00  0.00    -0.482 OA
ATOM     17  H   LIG    1        1.757   0.128  -3.735  0.00  0.00    +0.295 HD
ENDBRANCH  14  16
ENDBRANCH  13  14
ENDBRANCH  11  13
ENDBRANCH   9  11
ENDBRANCH   8   9
ENDBRANCH   1   8
BRANCH   1  18
ATOM     18  O   LIG    1        1.924   0.064   3.802  0.00  0.00    -0.484 OA
BRANCH  18  19
ATOM     19  C   LIG    1        2.909  -0.579   4.481  0.00  0.00    +0.121 A 
ATOM     20  C   LIG    1        4.116   0.061   4.726  0.00  0.00    +0.046 A 
ATOM     21  C   LIG    1        5.117  -0.594   5.417  0.00  0.00    +0.016 A 
ATOM     22  C   LIG    1        4.916  -1.887   5.865  0.00  0.00    +0.055 A 
ATOM     23  C   LIG    1        3.715  -2.527   5.623  0.00  0.00    +0.016 A 
ATOM     24  C   LIG    1        2.709  -1.874   4.937  0.00  0.00    +0.046 A 
BRANCH  22  25
ATOM     25  C   LIG    1        6.010  -2.599   6.619  0.00  0.00    +0.417 C 
ATOM     26  F   LIG    1        7.255  -2.133   6.186  0.00  0.00    -0.166 F 
ATOM     27  F   LIG    1        5.919  -3.975   6.382  0.00  0.00    -0.166 F 
ATOM     28  F   LIG    1        5.870  -2.352   7.989  0.00  0.00    -0.166 F 
ENDBRANCH  22  25
ENDBRANCH  18  19
ENDBRANCH   1  18
TORSDOF 10
