REMARK  Name = ZINC22115071
REMARK                            x       y       z     vdW  Elec       q    Type
REMARK                         _______ _______ _______ _____ _____    ______ ____
ROOT
ATOM      1  C   LIG    1        6.364  -4.607  -0.081  0.00  0.00    +0.249 C 
ATOM      2  N   LIG    1        6.634  -5.927  -0.090  0.00  0.00    -0.206 N 
ATOM      3  H   LIG    1        5.909  -6.571  -0.087  0.00  0.00    +0.177 HD
ATOM      4  O   LIG    1        7.271  -3.801  -0.085  0.00  0.00    -0.272 OA
ENDROOT
BRANCH   2   5
ATOM      5  N   LIG    1        7.964  -6.369  -0.105  0.00  0.00    -0.188 NA
ATOM      6  C   LIG    1        8.224  -7.641  -0.114  0.00  0.00    +0.142 C 
BRANCH   6   7
ATOM      7  C   LIG    1        9.622  -8.107  -0.129  0.00  0.00    +0.038 A 
ATOM      8  C   LIG    1        9.905  -9.475  -0.144  0.00  0.00    +0.032 A 
ATOM      9  C   LIG    1       11.214  -9.906  -0.159  0.00  0.00    +0.061 A 
ATOM     10 BR   LIG    1       11.596 -11.758  -0.180  0.00  0.00    -0.046 Br
ATOM     11  C   LIG    1       12.255  -8.984  -0.158  0.00  0.00    +0.148 A 
ATOM     12  C   LIG    1       11.984  -7.623  -0.142  0.00  0.00    +0.102 A 
ATOM     13 BR   LIG    1       13.405  -6.376  -0.141  0.00  0.00    -0.043 Br
ATOM     14  C   LIG    1       10.672  -7.178  -0.134  0.00  0.00    +0.143 A 
BRANCH  11  15
ATOM     15  O   LIG    1       13.543  -9.417  -0.172  0.00  0.00    -0.504 OA
ATOM     16  H   LIG    1       13.728 -10.335  -0.183  0.00  0.00    +0.292 HD
ENDBRANCH  11  15
BRANCH  14  17
ATOM     17  O   LIG    1       10.405  -5.847  -0.124  0.00  0.00    -0.505 OA
ATOM     18  H   LIG    1       10.336  -5.466   0.762  0.00  0.00    +0.292 HD
ENDBRANCH  14  17
ENDBRANCH   6   7
ENDBRANCH   2   5
BRANCH   1  19
ATOM     19  C   LIG    1        4.934  -4.131  -0.065  0.00  0.00    +0.199 C 
BRANCH  19  20
ATOM     20  N   LIG    1        4.907  -2.666  -0.058  0.00  0.00    -0.335 N 
ATOM     21  H   LIG    1        5.738  -2.166  -0.063  0.00  0.00    +0.147 HD
BRANCH  20  27
ATOM     22  C   LIG    1       -0.016   1.357   0.009  0.00  0.00    +0.001 A 
ATOM     23  C   LIG    1        1.168   2.091   0.002  0.00  0.00    +0.001 A 
ATOM     24  C   LIG    1        2.378   1.468  -0.013  0.00  0.00    +0.008 A 
ATOM     25  C   LIG    1        2.437   0.063  -0.021  0.00  0.00    -0.016 A 
ATOM     26  C   LIG    1        3.668  -0.613  -0.036  0.00  0.00    +0.031 A 
ATOM     27  C   LIG    1        3.685  -1.990  -0.043  0.00  0.00    +0.028 A 
ATOM     28  C   LIG    1        2.490  -2.720  -0.036  0.00  0.00    +0.023 A 
ATOM     29  C   LIG    1        1.287  -2.088  -0.022  0.00  0.00    +0.010 A 
ATOM     30  C   LIG    1        1.232  -0.683  -0.013  0.00  0.00    -0.018 A 
ATOM     31  C   LIG    1        0.002  -0.004   0.002  0.00  0.00    +0.008 A 
ENDBRANCH  20  27
ENDBRANCH  19  20
ENDBRANCH   1  19
TORSDOF 7
