REMARK  Name = ZINC27646258
REMARK                            x       y       z     vdW  Elec       q    Type
REMARK                         _______ _______ _______ _____ _____    ______ ____
ROOT
ATOM      1  C   LIG    1        0.011   1.072   2.506  0.00  0.00    +0.148 C 
ENDROOT
BRANCH   1   7
ATOM      2  C   LIG    1       -0.232   2.911   4.194  0.00  0.00    +0.126 A 
ATOM      3  C   LIG    1       -0.819   3.450   5.330  0.00  0.00    +0.046 A 
ATOM      4  C   LIG    1       -1.781   2.733   6.015  0.00  0.00    +0.004 A 
ATOM      5  C   LIG    1       -2.163   1.482   5.566  0.00  0.00    +0.001 A 
ATOM      6  C   LIG    1       -1.583   0.945   4.432  0.00  0.00    +0.010 A 
ATOM      7  C   LIG    1       -0.621   1.658   3.743  0.00  0.00    +0.022 A 
BRANCH   2   8
ATOM      8  O   LIG    1        0.718   3.612   3.521  0.00  0.00    -0.492 OA
BRANCH   8   9
ATOM      9  C   LIG    1        1.069   4.895   4.043  0.00  0.00    +0.229 C 
BRANCH   9  10
ATOM     10  C   LIG    1        2.146   5.528   3.160  0.00  0.00    +0.041 C 
BRANCH  10  11
ATOM     11  C   LIG    1        2.521   6.902   3.719  0.00  0.00    +0.003 C 
BRANCH  11  13
ATOM     12  C   LIG    1        3.973   8.909   3.394  0.00  0.00    +0.004 C 
ATOM     13  C   LIG    1        3.598   7.535   2.835  0.00  0.00    -0.003 C 
ENDBRANCH  11  13
ENDBRANCH  10  11
ENDBRANCH   9  10
ENDBRANCH   8   9
ENDBRANCH   2   8
ENDBRANCH   1   7
BRANCH   1  14
ATOM     14  O   LIG    1       -0.070  -0.353   2.560  0.00  0.00    -0.387 OA
ATOM     15  H   LIG    1        0.342  -0.959   1.739  0.00  0.00    +0.210 HD
ENDBRANCH   1  14
BRANCH   1  16
ATOM     16  C   LIG    1       -0.729   1.579   1.267  0.00  0.00    +0.036 C 
BRANCH  16  17
ATOM     17  C   LIG    1       -0.013   1.086   0.008  0.00  0.00    +0.003 C 
BRANCH  17  18
ATOM     18  C   LIG    1       -0.753   1.593  -1.232  0.00  0.00    +0.000 C 
BRANCH  18  19
ATOM     19  C   LIG    1       -0.037   1.099  -2.490  0.00  0.00    +0.001 C 
BRANCH  19  20
ATOM     20  C   LIG    1       -0.777   1.606  -3.730  0.00  0.00    +0.011 C 
BRANCH  20  21
ATOM     21  C   LIG    1       -0.060   1.113  -4.989  0.00  0.00    +0.120 C 
BRANCH  21  22
ATOM     22  C   LIG    1       -0.789   1.612  -6.210  0.00  0.00    +0.307 C 
ATOM     23  O   LIG    1       -1.780   2.292  -6.086  0.00  0.00    -0.251 OA
BRANCH  22  24
ATOM     24  O   LIG    1       -0.338   1.300  -7.435  0.00  0.00    -0.468 OA
ATOM     25  C   LIG    1       -1.090   1.816  -8.565  0.00  0.00    +0.280 C 
ENDBRANCH  22  24
ENDBRANCH  21  22
ENDBRANCH  20  21
ENDBRANCH  19  20
ENDBRANCH  18  19
ENDBRANCH  17  18
ENDBRANCH  16  17
ENDBRANCH   1  16
TORSDOF 15
