REMARK  Name = ZINC14879999
REMARK                            x       y       z     vdW  Elec       q    Type
REMARK                         _______ _______ _______ _____ _____    ______ ____
ROOT
ATOM      1  C   LIG    1       -2.599   3.435   0.952  0.00  0.00    +0.051 C 
ATOM      2  C   LIG    1       -2.583   1.955   1.239  0.00  0.00    +0.034 A 
ATOM      3  C   LIG    1       -2.585   1.045   0.194  0.00  0.00    +0.130 A 
ATOM      4  C   LIG    1       -2.571  -0.324   0.449  0.00  0.00    +0.047 A 
ATOM      5  C   LIG    1       -2.555  -0.787   1.734  0.00  0.00    +0.019 A 
ATOM      6  C   LIG    1       -2.552   0.118   2.799  0.00  0.00    +0.061 A 
ATOM      7  C   LIG    1       -2.535  -0.353   4.190  0.00  0.00    +0.156 A 
ATOM      8  C   LIG    1       -2.518   0.596   5.194  0.00  0.00    +0.162 A 
ATOM      9  C   LIG    1       -2.533   1.963   4.856  0.00  0.00    +0.362 A 
ATOM     10  O   LIG    1       -2.528   2.795   5.748  0.00  0.00    -0.243 OA
ATOM     11  O   LIG    1       -2.554   2.374   3.579  0.00  0.00    -0.420 OA
ATOM     12  C   LIG    1       -2.562   1.501   2.549  0.00  0.00    +0.149 A 
ENDROOT
BRANCH   8  13
ATOM     13  N   LIG    1       -2.496   0.200   6.542  0.00  0.00    -0.273 N 
ATOM     14  H   LIG    1       -3.211  -0.351   6.897  0.00  0.00    +0.155 HD
ATOM     15  C   LIG    1       -1.482   0.587   7.342  0.00  0.00    +0.249 C 
ATOM     16  O   LIG    1       -0.630   1.345   6.920  0.00  0.00    -0.270 OA
BRANCH  15  17
ATOM     17  C   LIG    1       -1.407   0.089   8.729  0.00  0.00    +0.038 A 
ATOM     18  C   LIG    1       -2.382  -0.786   9.214  0.00  0.00    +0.016 A 
ATOM     19  C   LIG    1       -2.308  -1.248  10.509  0.00  0.00    +0.046 A 
ATOM     20  C   LIG    1       -1.264  -0.844  11.334  0.00  0.00    +0.120 A 
ATOM     21  C   LIG    1       -0.292   0.027  10.856  0.00  0.00    -0.002 A 
ATOM     22  C   LIG    1       -0.356   0.488   9.560  0.00  0.00    +0.020 A 
BRANCH  20  23
ATOM     23  O   LIG    1       -1.194  -1.300  12.610  0.00  0.00    -0.506 OA
ATOM     24  H   LIG    1       -0.692  -2.121  12.708  0.00  0.00    +0.292 HD
ENDBRANCH  20  23
BRANCH  21  25
ATOM     25  C   LIG    1        0.837   0.462  11.755  0.00  0.00    +0.066 C 
BRANCH  25  26
ATOM     26  C   LIG    1        0.357   1.559  12.669  0.00  0.00    -0.023 C 
ATOM     27  C   LIG    1        1.008   2.694  12.728  0.00  0.00    -0.079 C 
ATOM     28  C   LIG    1        0.448   3.844  13.525  0.00  0.00    +0.038 C 
ATOM     29  C   LIG    1        2.318   2.850  11.999  0.00  0.00    +0.038 C 
ENDBRANCH  25  26
ENDBRANCH  21  25
ENDBRANCH  15  17
ENDBRANCH   8  13
BRANCH   7  30
ATOM     30  O   LIG    1       -2.521  -1.676   4.480  0.00  0.00    -0.504 OA
ATOM     31  H   LIG    1       -2.532  -2.307   3.787  0.00  0.00    +0.292 HD
ENDBRANCH   7  30
BRANCH   3  32
ATOM     32  O   LIG    1       -2.602   1.491  -1.088  0.00  0.00    -0.460 OA
BRANCH  32  33
ATOM     33  C   LIG    1       -2.603   0.502  -2.119  0.00  0.00    +0.340 C 
ATOM     34  C   LIG    1       -2.747   1.185  -3.482  0.00  0.00    +0.226 C 
ATOM     35  C   LIG    1       -2.687   0.124  -4.585  0.00  0.00    +0.244 C 
ATOM     36  C   LIG    1       -1.372  -0.652  -4.460  0.00  0.00    +0.192 C 
ATOM     37  C   LIG    1       -1.281  -1.264  -3.060  0.00  0.00    +0.098 C 
ATOM     38  C   LIG    1       -2.427  -2.258  -2.861  0.00  0.00    +0.044 C 
ATOM     39  C   LIG    1        0.057  -1.991  -2.907  0.00  0.00    +0.044 C 
ATOM     40  O   LIG    1       -1.374  -0.227  -2.081  0.00  0.00    -0.331 OA
BRANCH  34  41
ATOM     41  O   LIG    1       -4.000   1.869  -3.543  0.00  0.00    -0.382 OA
ATOM     42  H   LIG    1       -4.108   2.553  -2.869  0.00  0.00    +0.210 HD
ENDBRANCH  34  41
BRANCH  36  43
ATOM     43  O   LIG    1       -0.272   0.235  -4.667  0.00  0.00    -0.373 OA
ATOM     44  C   LIG    1        0.144   0.337  -6.031  0.00  0.00    +0.194 C 
ENDBRANCH  36  43
BRANCH  35  45
ATOM     45  O   LIG    1       -3.789  -0.774  -4.445  0.00  0.00    -0.442 OA
BRANCH  45  46
ATOM     46  C   LIG    1       -4.923  -0.456  -5.097  0.00  0.00    +0.398 C 
ATOM     47  N   LIG    1       -6.001  -1.260  -5.008  0.00  0.00    -0.295 N 
ATOM     48  H   LIG    1       -6.818  -1.031  -5.477  0.00  0.00    +0.148 HD
ATOM     49  H   LIG    1       -5.959  -2.069  -4.473  0.00  0.00    +0.148 HD
ATOM     50  O   LIG    1       -4.975   0.557  -5.767  0.00  0.00    -0.227 OA
ENDBRANCH  45  46
ENDBRANCH  35  45
ENDBRANCH  32  33
ENDBRANCH   3  32
TORSDOF 12
