REMARK  Name = ZINC26967468
REMARK                            x       y       z     vdW  Elec       q    Type
REMARK                         _______ _______ _______ _____ _____    ______ ____
ROOT
ATOM      1  C   LIG    1       -0.852   1.666   3.572  0.00  0.00    +0.135 A 
ATOM      2  C   LIG    1       -1.865   0.931   4.078  0.00  0.00    +0.098 A 
ATOM      3  C   LIG    1       -2.599   1.434   5.179  0.00  0.00    +0.227 A 
ATOM      4  C   LIG    1       -2.217   2.756   5.710  0.00  0.00    +0.214 A 
ATOM      5  C   LIG    1       -1.179   3.412   5.114  0.00  0.00    +0.257 A 
ATOM      6  O   LIG    1       -3.519   0.798   5.668  0.00  0.00    -0.284 OA
ATOM      7  O   LIG    1       -0.528   2.860   4.074  0.00  0.00    -0.447 OA
ENDROOT
BRANCH   4   8
ATOM      8  O   LIG    1       -2.877   3.303   6.759  0.00  0.00    -0.501 OA
ATOM      9  H   LIG    1       -2.579   4.290   7.143  0.00  0.00    +0.292 HD
ENDBRANCH   4   8
BRANCH   5  10
ATOM     10  C   LIG    1       -0.766   4.735   5.615  0.00  0.00    +0.376 C 
ATOM     11  O   LIG    1       -1.350   5.237   6.555  0.00  0.00    -0.242 OA
BRANCH  10  12
ATOM     12  O   LIG    1        0.258   5.387   5.032  0.00  0.00    -0.475 OA
ATOM     13  H   LIG    1        0.709   5.000   4.307  0.00  0.00    +0.296 HD
ENDBRANCH  10  12
ENDBRANCH   5  10
BRANCH   1  14
ATOM     14  C   LIG    1       -0.068   1.127   2.404  0.00  0.00    +0.234 C 
BRANCH  14  15
ATOM     15  O   LIG    1       -0.682   1.547   1.184  0.00  0.00    -0.372 OA
BRANCH  15  17
ATOM     16  C   LIG    1       -0.753   1.593  -1.232  0.00  0.00    +0.034 C 
ATOM     17  C   LIG    1       -0.013   1.086   0.008  0.00  0.00    +0.157 C 
ENDBRANCH  15  17
ENDBRANCH  14  15
ENDBRANCH   1  14
TORSDOF 6
