REMARK  Name = ZINC22028948
REMARK                            x       y       z     vdW  Elec       q    Type
REMARK                         _______ _______ _______ _____ _____    ______ ____
ROOT
ATOM      1  C   LIG    1        1.485   4.631   0.013  0.00  0.00    +0.013 A 
ATOM      2  C   LIG    1        2.154   5.171  -1.047  0.00  0.00    +0.095 A 
ATOM      3  N   LIG    1        2.772   6.321  -0.661  0.00  0.00    -0.346 N 
ATOM      4  C   LIG    1        2.526   6.572   0.673  0.00  0.00    +0.050 A 
ATOM      5  C   LIG    1        2.915   7.590   1.536  0.00  0.00    +0.026 A 
ATOM      6  C   LIG    1        2.503   7.573   2.851  0.00  0.00    +0.002 A 
ATOM      7  C   LIG    1        1.700   6.546   3.327  0.00  0.00    +0.001 A 
ATOM      8  C   LIG    1        1.304   5.528   2.487  0.00  0.00    +0.010 A 
ATOM      9  C   LIG    1        1.709   5.535   1.154  0.00  0.00    +0.008 A 
ENDROOT
BRANCH   1  11
ATOM     10  C   LIG    1        1.174   2.089   0.002  0.00  0.00    +0.059 C 
ATOM     11  C   LIG    1        0.690   3.392   0.013  0.00  0.00    +0.059 C 
ATOM     12  C   LIG    1       -0.783   3.281   0.026  0.00  0.00    +0.252 C 
ATOM     13  N   LIG    1       -1.116   1.980   0.018  0.00  0.00    -0.248 N 
ATOM     14  H   LIG    1       -2.176   1.683   0.018  0.00  0.00    +0.158 HD
ATOM     15  O   LIG    1       -1.564   4.212   0.038  0.00  0.00    -0.270 OA
ATOM     16  C   LIG    1       -0.014   1.211   0.009  0.00  0.00    +0.252 C 
ATOM     17  O   LIG    1        0.002  -0.004   0.002  0.00  0.00    -0.270 OA
BRANCH  10  23
ATOM     18  C   LIG    1        3.957   0.345  -3.339  0.00  0.00    +0.001 A 
ATOM     19  C   LIG    1        5.241   0.094  -2.878  0.00  0.00    +0.002 A 
ATOM     20  C   LIG    1        5.582   0.355  -1.569  0.00  0.00    +0.026 A 
ATOM     21  C   LIG    1        4.632   0.876  -0.696  0.00  0.00    +0.047 A 
ATOM     22  C   LIG    1        3.332   1.130  -1.163  0.00  0.00    +0.008 A 
ATOM     23  C   LIG    1        2.585   1.669  -0.013  0.00  0.00    +0.013 A 
ATOM     24  C   LIG    1        3.459   1.707   1.034  0.00  0.00    +0.092 A 
ATOM     25  N   LIG    1        4.671   1.233   0.636  0.00  0.00    -0.360 N 
ATOM     26  H   LIG    1        5.601   1.113   1.211  0.00  0.00    +0.165 HD
ATOM     27  C   LIG    1        3.002   0.861  -2.490  0.00  0.00    +0.010 A 
ENDBRANCH  10  23
ENDBRANCH   1  11
BRANCH   3  28
ATOM     28  C   LIG    1        3.583   7.170  -1.537  0.00  0.00    +0.123 C 
BRANCH  28  29
ATOM     29  C   LIG    1        5.058   6.793  -1.389  0.00  0.00    +0.037 C 
BRANCH  29  30
ATOM     30  C   LIG    1        5.905   7.679  -2.304  0.00  0.00    +0.086 C 
BRANCH  30  31
ATOM     31  N   LIG    1        7.322   7.318  -2.163  0.00  0.00    -0.306 NA
ATOM     32  C   LIG    1        7.500   5.860  -2.207  0.00  0.00    +0.065 C 
ATOM     33  C   LIG    1        8.975   5.521  -1.977  0.00  0.00    -0.067 C 
ATOM     34  N   LIG    1        9.792   6.181  -3.005  0.00  0.00    +0.381 N 
ATOM     35  H   LIG    1        9.493   5.818  -3.999  0.00  0.00    -0.086 HD
ATOM     36  H   LIG    1       10.854   5.949  -2.834  0.00  0.00    -0.086 HD
ATOM     37  C   LIG    1        9.614   7.639  -2.960  0.00  0.00    -0.067 C 
ATOM     38  C   LIG    1        8.139   7.977  -3.191  0.00  0.00    +0.065 C 
ENDBRANCH  30  31
ENDBRANCH  29  30
ENDBRANCH  28  29
ENDBRANCH   3  28
TORSDOF 6
