REMARK  Name = ZINC26640858
REMARK                            x       y       z     vdW  Elec       q    Type
REMARK                         _______ _______ _______ _____ _____    ______ ____
ROOT
ATOM      1  S   LIG    1        2.897  -1.689   3.672  0.00  0.00    +0.059 S 
ATOM      2  O   LIG    1        4.149  -1.582   4.334  0.00  0.00    -0.153 OA
ATOM      3  O   LIG    1        1.942  -2.686   4.004  0.00  0.00    -0.153 OA
ENDROOT
BRANCH   1   4
ATOM      4  C   LIG    1        2.091  -0.134   3.866  0.00  0.00    +0.105 A 
ATOM      5  C   LIG    1        2.839   1.006   4.095  0.00  0.00    +0.029 A 
ATOM      6  C   LIG    1        2.212   2.227   4.249  0.00  0.00    +0.010 A 
ATOM      7  C   LIG    1        0.824   2.308   4.172  0.00  0.00    -0.018 A 
ATOM      8  C   LIG    1        0.075   1.156   3.940  0.00  0.00    +0.010 A 
ATOM      9  C   LIG    1        0.712  -0.058   3.783  0.00  0.00    +0.029 A 
BRANCH   7  10
ATOM     10  C   LIG    1        0.144   3.617   4.336  0.00  0.00    -0.018 A 
ATOM     11  C   LIG    1        0.894   4.770   4.563  0.00  0.00    +0.010 A 
ATOM     12  C   LIG    1        0.258   5.985   4.715  0.00  0.00    +0.020 A 
ATOM     13  C   LIG    1       -1.123   6.060   4.643  0.00  0.00    +0.041 A 
ATOM     14 CL   LIG    1       -1.917   7.591   4.836  0.00  0.00    -0.084 Cl
ATOM     15  C   LIG    1       -1.872   4.917   4.419  0.00  0.00    +0.020 A 
ATOM     16  C   LIG    1       -1.244   3.699   4.259  0.00  0.00    +0.010 A 
ENDBRANCH   7  10
ENDBRANCH   1   4
BRANCH   1  17
ATOM     17  N   LIG    1        3.229  -1.870   2.059  0.00  0.00    -0.176 NA
ATOM     18  H   LIG    1        2.799  -2.576   1.552  0.00  0.00    +0.149 HD
BRANCH  17  19
ATOM     19  C   LIG    1        4.171  -0.963   1.399  0.00  0.00    +0.189 C 
BRANCH  19  20
ATOM     20  C   LIG    1        5.543  -1.588   1.383  0.00  0.00    +0.324 C 
ATOM     21  O   LIG    1        6.510  -0.928   1.045  0.00  0.00    -0.249 OA
BRANCH  20  22
ATOM     22  O   LIG    1        5.684  -2.755   1.709  0.00  0.00    -0.479 OA
ATOM     23  H   LIG    1        4.941  -3.262   1.969  0.00  0.00    +0.295 HD
ENDBRANCH  20  22
ENDBRANCH  19  20
BRANCH  19  24
ATOM     24  C   LIG    1        3.711  -0.707  -0.038  0.00  0.00    +0.067 C 
BRANCH  24  28
ATOM     25  C   LIG    1       -0.017   1.378   0.010  0.00  0.00    +0.000 A 
ATOM     26  C   LIG    1        1.171   2.086   0.002  0.00  0.00    +0.000 A 
ATOM     27  C   LIG    1        2.377   1.411  -0.013  0.00  0.00    +0.004 A 
ATOM     28  C   LIG    1        2.396   0.029  -0.020  0.00  0.00    -0.045 A 
ATOM     29  C   LIG    1        1.208  -0.679  -0.012  0.00  0.00    +0.004 A 
ATOM     30  C   LIG    1        0.002  -0.004   0.002  0.00  0.00    +0.000 A 
ENDBRANCH  24  28
ENDBRANCH  19  24
ENDBRANCH  17  19
ENDBRANCH   1  17
TORSDOF 8
