REMARK  Name = ZINC28572583
REMARK                            x       y       z     vdW  Elec       q    Type
REMARK                         _______ _______ _______ _____ _____    ______ ____
ROOT
ATOM      1  C   LIG    1        2.684   5.819   0.026  0.00  0.00    +0.125 A 
ATOM      2  C   LIG    1        1.325   5.551   0.131  0.00  0.00    +0.046 A 
ATOM      3  C   LIG    1        0.874   4.249   0.122  0.00  0.00    +0.018 A 
ATOM      4  C   LIG    1        1.785   3.196   0.009  0.00  0.00    +0.053 A 
ATOM      5  C   LIG    1        3.153   3.469  -0.090  0.00  0.00    +0.137 A 
ATOM      6  F   LIG    1        4.039   2.455  -0.195  0.00  0.00    -0.205 F 
ATOM      7  C   LIG    1        3.595   4.777  -0.087  0.00  0.00    +0.084 A 
ENDROOT
BRANCH   4   8
ATOM      8  C   LIG    1        1.305   1.799   0.000  0.00  0.00    +0.145 A 
ATOM      9  N   LIG    1        2.075   0.738  -0.004  0.00  0.00    -0.227 NA
ATOM     10  C   LIG    1        1.306  -0.380  -0.011  0.00  0.00    +0.090 A 
ATOM     11  C   LIG    1        1.601  -1.743  -0.018  0.00  0.00    +0.044 A 
ATOM     12  C   LIG    1        0.562  -2.669  -0.024  0.00  0.00    +0.061 A 
ATOM     13  C   LIG    1       -0.771  -2.233  -0.023  0.00  0.00    +0.017 A 
ATOM     14  C   LIG    1       -1.062  -0.900  -0.017  0.00  0.00    +0.029 A 
ATOM     15  C   LIG    1       -0.038   0.039  -0.011  0.00  0.00    +0.069 A 
ATOM     16  N   LIG    1       -0.011   1.418  -0.004  0.00  0.00    -0.320 N 
BRANCH  16  17
ATOM     17  C   LIG    1       -1.173   2.310  -0.000  0.00  0.00    +0.089 C 
ATOM     18  C   LIG    1       -1.078   3.276  -1.182  0.00  0.00    +0.025 C 
ATOM     19  C   LIG    1       -2.292   4.207  -1.179  0.00  0.00    +0.002 C 
ATOM     20  C   LIG    1       -2.321   5.002   0.128  0.00  0.00    +0.000 C 
ATOM     21  C   LIG    1       -2.417   4.035   1.311  0.00  0.00    +0.002 C 
ATOM     22  C   LIG    1       -1.203   3.104   1.307  0.00  0.00    +0.025 C 
ENDBRANCH  16  17
BRANCH  12  23
ATOM     23  C   LIG    1        0.863  -4.114  -0.031  0.00  0.00    +0.337 C 
ATOM     24  O   LIG    1        2.017  -4.493  -0.032  0.00  0.00    -0.245 OA
BRANCH  23  25
ATOM     25  O   LIG    1       -0.141  -5.011  -0.037  0.00  0.00    -0.477 OA
ATOM     26  H   LIG    1       -1.031  -4.719  -0.036  0.00  0.00    +0.295 HD
ENDBRANCH  23  25
ENDBRANCH  12  23
ENDBRANCH   4   8
BRANCH   1  27
ATOM     27  O   LIG    1        3.123   7.104   0.034  0.00  0.00    -0.479 OA
BRANCH  27  28
ATOM     28  C   LIG    1        4.519   7.314  -0.187  0.00  0.00    +0.235 C 
BRANCH  28  32
ATOM     29  C   LIG    1        5.294   7.427  -4.387  0.00  0.00    +0.000 A 
ATOM     30  C   LIG    1        6.175   6.783  -3.538  0.00  0.00    +0.000 A 
ATOM     31  C   LIG    1        5.924   6.746  -2.179  0.00  0.00    +0.007 A 
ATOM     32  C   LIG    1        4.793   7.354  -1.669  0.00  0.00    -0.003 A 
ATOM     33  C   LIG    1        3.909   7.994  -2.518  0.00  0.00    +0.007 A 
ATOM     34  C   LIG    1        4.162   8.035  -3.876  0.00  0.00    +0.000 A 
ENDBRANCH  28  32
BRANCH  28  35
ATOM     35  C   LIG    1        4.936   8.621   0.436  0.00  0.00    +0.015 A 
ATOM     36  C   LIG    1        6.189   8.756   1.015  0.00  0.00    +0.010 A 
ATOM     37  C   LIG    1        6.530   9.978   1.572  0.00  0.00    +0.020 A 
ATOM     38  C   LIG    1        5.613  11.012   1.542  0.00  0.00    +0.111 A 
ATOM     39  N   LIG    1        4.428  10.846   0.988  0.00  0.00    -0.263 NA
ATOM     40  C   LIG    1        4.071   9.699   0.443  0.00  0.00    +0.118 A 
ENDBRANCH  28  35
ENDBRANCH  27  28
ENDBRANCH   1  27
TORSDOF 8
