REMARK  Name = ZINC27330751
REMARK                            x       y       z     vdW  Elec       q    Type
REMARK                         _______ _______ _______ _____ _____    ______ ____
ROOT
ATOM      1  C   LIG    1       -2.501   4.260   0.052  0.00  0.00    +0.031 A 
ATOM      2  C   LIG    1       -2.444   5.623   0.060  0.00  0.00    +0.111 A 
ATOM      3  N   LIG    1       -1.289   6.271   0.056  0.00  0.00    -0.261 NA
ATOM      4  C   LIG    1       -0.129   5.657   0.043  0.00  0.00    +0.139 A 
ATOM      5  C   LIG    1       -0.077   4.253   0.032  0.00  0.00    +0.091 A 
ATOM      6  N   LIG    1        1.077   3.588   0.017  0.00  0.00    -0.250 NA
ATOM      7  C   LIG    1        1.136   2.267   0.003  0.00  0.00    +0.047 A 
ATOM      8  C   LIG    1        2.510   1.645  -0.023  0.00  0.00    +0.056 C 
ATOM      9  C   LIG    1        2.444   0.179   0.398  0.00  0.00    +0.006 C 
ATOM     10  C   LIG    1        1.369  -0.520  -0.443  0.00  0.00    +0.005 C 
ATOM     11  C   LIG    1        0.002  -0.004   0.002  0.00  0.00    +0.039 C 
ATOM     12  C   LIG    1       -0.018   1.502   0.010  0.00  0.00    -0.005 A 
ATOM     13  C   LIG    1       -1.261   2.127   0.032  0.00  0.00    +0.039 A 
ATOM     14  C   LIG    1       -1.300   3.537   0.037  0.00  0.00    +0.024 A 
ENDROOT
BRANCH  13  15
ATOM     15  N   LIG    1       -2.432   1.383   0.042  0.00  0.00    -0.357 N 
ATOM     16  H   LIG    1       -3.407   1.892   0.055  0.00  0.00    +0.142 HD
ATOM     17  H   LIG    1       -2.385   0.284   0.038  0.00  0.00    +0.142 HD
ENDBRANCH  13  15
TORSDOF 1
