REMARK  Name = ZINC34804008
REMARK                            x       y       z     vdW  Elec       q    Type
REMARK                         _______ _______ _______ _____ _____    ______ ____
ROOT
ATOM      1  C   LIG    1        1.248  -2.163  -0.022  0.00  0.00    -0.001 A 
ATOM      2  C   LIG    1        0.744  -2.862  -1.118  0.00  0.00    +0.035 A 
ATOM      3  C   LIG    1        0.764  -4.250  -1.137  0.00  0.00    +0.049 A 
ATOM      4  C   LIG    1        1.298  -4.960  -0.041  0.00  0.00    +0.021 A 
ATOM      5  C   LIG    1        1.804  -4.267   1.060  0.00  0.00    +0.062 A 
ATOM      6  C   LIG    1        2.418  -4.670   2.339  0.00  0.00    +0.260 A 
ATOM      7  O   LIG    1        2.614  -5.812   2.704  0.00  0.00    -0.267 OA
ATOM      8  N   LIG    1        2.738  -3.560   3.029  0.00  0.00    -0.289 N 
ATOM      9  H   LIG    1        3.157  -3.558   3.904  0.00  0.00    +0.172 HD
ATOM     10  C   LIG    1        2.388  -2.453   2.349  0.00  0.00    +0.260 A 
ATOM     11  O   LIG    1        2.545  -1.309   2.727  0.00  0.00    -0.267 OA
ATOM     12  C   LIG    1        1.171  -6.390  -0.369  0.00  0.00    +0.012 A 
ATOM     13  C   LIG    1        1.514  -7.561   0.305  0.00  0.00    +0.056 A 
ATOM     14  C   LIG    1        1.262  -8.788  -0.280  0.00  0.00    +0.118 A 
ATOM     15  C   LIG    1        0.668  -8.853  -1.536  0.00  0.00    +0.047 A 
ATOM     16  C   LIG    1        0.327  -7.701  -2.210  0.00  0.00    +0.030 A 
ATOM     17  C   LIG    1        0.572  -6.457  -1.636  0.00  0.00    +0.048 A 
ATOM     18  N   LIG    1        0.337  -5.166  -2.079  0.00  0.00    -0.354 N 
ATOM     19  H   LIG    1       -0.071  -4.937  -2.929  0.00  0.00    +0.166 HD
ATOM     20  C   LIG    1        1.784  -2.860   1.068  0.00  0.00    +0.060 A 
ENDROOT
BRANCH   1  26
ATOM     21  C   LIG    1       -0.017   1.375   0.010  0.00  0.00    +0.001 A 
ATOM     22  C   LIG    1        1.170   2.087   0.002  0.00  0.00    +0.001 A 
ATOM     23  C   LIG    1        2.382   1.421  -0.013  0.00  0.00    +0.020 A 
ATOM     24  C   LIG    1        2.415   0.040  -0.021  0.00  0.00    +0.049 A 
ATOM     25 CL   LIG    1        3.937  -0.794  -0.042  0.00  0.00    -0.083 Cl
ATOM     26  C   LIG    1        1.221  -0.682  -0.013  0.00  0.00    +0.001 A 
ATOM     27  C   LIG    1        0.002  -0.004   0.002  0.00  0.00    +0.010 A 
ENDBRANCH   1  26
BRANCH  14  28
ATOM     28  O   LIG    1        1.594  -9.933   0.374  0.00  0.00    -0.507 OA
ATOM     29  H   LIG    1        0.892 -10.280   0.941  0.00  0.00    +0.292 HD
ENDBRANCH  14  28
TORSDOF 2
