REMARK  Name = ZINC27109670
REMARK                            x       y       z     vdW  Elec       q    Type
REMARK                         _______ _______ _______ _____ _____    ______ ____
ROOT
ATOM      1  N   LIG    1        0.090   1.163   0.202  0.00  0.00    -0.269 N 
ATOM      2  H   LIG    1       -0.056   0.142  -0.183  0.00  0.00    +0.156 HD
ATOM      3  C   LIG    1        1.332   1.608   0.477  0.00  0.00    +0.307 C 
ATOM      4  N   LIG    1        2.374   0.754   0.455  0.00  0.00    -0.282 N 
ATOM      5  C   LIG    1        2.209  -0.627  -0.024  0.00  0.00    +0.128 C 
ATOM      6  C   LIG    1        3.293  -0.904  -1.077  0.00  0.00    +0.125 C 
ATOM      7  N   LIG    1        4.612  -0.599  -0.507  0.00  0.00    -0.311 N 
ATOM      8  C   LIG    1        4.730   0.826  -0.169  0.00  0.00    +0.125 C 
ATOM      9  C   LIG    1        3.706   1.176   0.916  0.00  0.00    +0.128 C 
ATOM     10  O   LIG    1        1.512   2.780   0.746  0.00  0.00    -0.252 OA
ENDROOT
BRANCH   7  11
ATOM     11  C   LIG    1        5.631  -0.992  -1.369  0.00  0.00    +0.140 A 
ATOM     12  C   LIG    1        6.216  -2.247  -1.218  0.00  0.00    +0.081 A 
ATOM     13 CL   LIG    1        5.683  -3.321   0.037  0.00  0.00    -0.080 Cl
ATOM     14  C   LIG    1        7.229  -2.624  -2.082  0.00  0.00    +0.025 A 
ATOM     15  C   LIG    1        7.622  -1.733  -3.071  0.00  0.00    +0.021 A 
ATOM     16  C   LIG    1        6.998  -0.505  -3.163  0.00  0.00    +0.113 A 
ATOM     17  N   LIG    1        6.031  -0.173  -2.328  0.00  0.00    -0.239 NA
ENDBRANCH   7  11
BRANCH   1  21
ATOM     18  C   LIG    1       -3.197   3.650   0.807  0.00  0.00    -0.042 A 
ATOM     19  C   LIG    1       -3.366   2.277   0.780  0.00  0.00    +0.006 A 
ATOM     20  C   LIG    1       -2.278   1.450   0.580  0.00  0.00    +0.023 A 
ATOM     21  C   LIG    1       -1.014   1.998   0.405  0.00  0.00    +0.035 A 
ATOM     22  C   LIG    1       -0.847   3.376   0.438  0.00  0.00    +0.023 A 
ATOM     23  C   LIG    1       -1.940   4.198   0.633  0.00  0.00    +0.006 A 
BRANCH  18  25
ATOM     24  C   LIG    1       -5.027   4.228   2.378  0.00  0.00    +0.015 C 
ATOM     25  C   LIG    1       -4.386   4.549   1.026  0.00  0.00    -0.013 C 
ATOM     26  C   LIG    1       -5.409   4.324  -0.089  0.00  0.00    +0.015 C 
ATOM     27  C   LIG    1       -3.930   6.010   1.013  0.00  0.00    +0.015 C 
ENDBRANCH  18  25
ENDBRANCH   1  21
TORSDOF 3
