REMARK  Name = ZINC19853794
REMARK                            x       y       z     vdW  Elec       q    Type
REMARK                         _______ _______ _______ _____ _____    ______ ____
ROOT
ATOM      1  C   LIG    1        4.561   2.171   0.186  0.00  0.00    +0.046 C 
ATOM      2  C   LIG    1        3.788   0.902   0.432  0.00  0.00    -0.020 A 
ATOM      3  C   LIG    1        4.427  -0.342   0.422  0.00  0.00    +0.095 A 
ATOM      4  C   LIG    1        3.668  -1.506   0.656  0.00  0.00    +0.135 A 
ATOM      5  N   LIG    1        2.369  -1.436   0.883  0.00  0.00    -0.230 NA
ATOM      6  C   LIG    1        1.723  -0.273   0.902  0.00  0.00    +0.092 A 
ATOM      7  C   LIG    1        0.312   0.080   1.126  0.00  0.00    +0.081 C 
ATOM      8  C   LIG    1        0.176   1.454   1.034  0.00  0.00    -0.023 C 
ATOM      9  C   LIG    1       -1.114   2.215   1.197  0.00  0.00    +0.046 C 
ATOM     10  C   LIG    1        1.432   2.028   0.760  0.00  0.00    -0.008 C 
ATOM     11  C   LIG    1        1.695   3.384   0.599  0.00  0.00    +0.055 C 
ATOM     12  C   LIG    1        2.420   0.935   0.675  0.00  0.00    +0.013 A 
ENDROOT
BRANCH  11  13
ATOM     13  C   LIG    1        0.685   4.328   0.838  0.00  0.00    +0.129 A 
ATOM     14  C   LIG    1        0.811   5.480   1.605  0.00  0.00    +0.050 A 
ATOM     15  C   LIG    1       -0.425   6.121   1.575  0.00  0.00    +0.050 A 
ATOM     16  C   LIG    1       -1.263   5.347   0.797  0.00  0.00    +0.136 A 
ATOM     17  O   LIG    1       -0.576   4.278   0.359  0.00  0.00    -0.455 OA
BRANCH  16  18
ATOM     18  C   LIG    1       -2.674   5.647   0.492  0.00  0.00    +0.019 A 
ATOM     19  C   LIG    1       -3.273   6.799   1.013  0.00  0.00    +0.012 A 
ATOM     20  C   LIG    1       -4.578   7.082   0.729  0.00  0.00    +0.017 A 
ATOM     21  C   LIG    1       -5.325   6.216  -0.075  0.00  0.00    +0.077 A 
ATOM     22  C   LIG    1       -4.734   5.059  -0.595  0.00  0.00    +0.056 A 
ATOM     23 CL   LIG    1       -5.660   3.982  -1.594  0.00  0.00    -0.083 Cl
ATOM     24  C   LIG    1       -3.416   4.776  -0.312  0.00  0.00    +0.032 A 
BRANCH  21  25
ATOM     25  C   LIG    1       -6.737   6.522  -0.376  0.00  0.00    +0.338 C 
ATOM     26  O   LIG    1       -7.386   5.770  -1.075  0.00  0.00    -0.245 OA
BRANCH  25  27
ATOM     27  O   LIG    1       -7.306   7.637   0.124  0.00  0.00    -0.477 OA
ATOM     28  H   LIG    1       -6.805   8.217   0.663  0.00  0.00    +0.295 HD
ENDBRANCH  25  27
ENDBRANCH  21  25
ENDBRANCH  16  18
ENDBRANCH  11  13
BRANCH   4  29
ATOM     29  N   LIG    1        4.293  -2.741   0.649  0.00  0.00    -0.342 N 
ATOM     30  H   LIG    1        5.375  -2.809   0.461  0.00  0.00    +0.144 HD
ATOM     31  H   LIG    1        3.708  -3.655   0.831  0.00  0.00    +0.144 HD
ENDBRANCH   4  29
BRANCH   3  32
ATOM     32  C   LIG    1        5.835  -0.432   0.176  0.00  0.00    +0.103 C 
ATOM     33  N   LIG    1        6.952  -0.504  -0.019  0.00  0.00    -0.191 NA
ENDBRANCH   3  32
BRANCH   7  34
ATOM     34  C   LIG    1       -0.747  -0.847   1.394  0.00  0.00    +0.102 C 
ATOM     35  N   LIG    1       -1.586  -1.582   1.607  0.00  0.00    -0.191 NA
ENDBRANCH   7  34
TORSDOF 7
