REMARK  Name = ZINC19624679
REMARK                            x       y       z     vdW  Elec       q    Type
REMARK                         _______ _______ _______ _____ _____    ______ ____
ROOT
ATOM      1  C   LIG    1       -1.218   1.752   0.017  0.00  0.00    +0.000 A 
ATOM      2  C   LIG    1       -0.013   1.076   0.008  0.00  0.00    +0.000 A 
ATOM      3  C   LIG    1        1.172   1.783   0.000  0.00  0.00    +0.006 A 
ATOM      4  C   LIG    1        1.161   3.171   0.006  0.00  0.00    -0.023 A 
ATOM      5  C   LIG    1       -0.041   3.844   0.018  0.00  0.00    -0.041 A 
ATOM      6  C   LIG    1       -0.105   5.350   0.018  0.00  0.00    +0.050 C 
ATOM      7  C   LIG    1        1.252   5.929   0.421  0.00  0.00    +0.086 C 
ATOM      8  N   LIG    1        2.294   5.296  -0.403  0.00  0.00    -0.305 NA
ATOM      9  H   LIG    1        1.995   5.327  -1.461  0.00  0.00    +0.123 HD
ATOM     10  C   LIG    1        2.480   3.898   0.001  0.00  0.00    +0.115 C 
ATOM     11  C   LIG    1       -1.231   3.132   0.028  0.00  0.00    +0.004 A 
ENDROOT
BRANCH  10  12
ATOM     12  C   LIG    1        3.419   3.222  -0.964  0.00  0.00    -0.026 A 
ATOM     13  C   LIG    1        3.310   3.466  -2.320  0.00  0.00    +0.007 A 
ATOM     14  C   LIG    1        4.175   2.850  -3.205  0.00  0.00    +0.020 A 
ATOM     15  C   LIG    1        5.142   1.980  -2.734  0.00  0.00    +0.041 A 
ATOM     16 CL   LIG    1        6.224   1.201  -3.846  0.00  0.00    -0.084 Cl
ATOM     17  C   LIG    1        5.247   1.732  -1.377  0.00  0.00    +0.020 A 
ATOM     18  C   LIG    1        4.385   2.352  -0.493  0.00  0.00    +0.007 A 
ENDBRANCH  10  12
TORSDOF 1
