REMARK  Name = ZINC18046173
REMARK                            x       y       z     vdW  Elec       q    Type
REMARK                         _______ _______ _______ _____ _____    ______ ____
ROOT
ATOM      1  C   LIG    1       -0.021  -2.769  -7.102  0.00  0.00    +0.086 A 
ATOM      2  C   LIG    1       -0.013  -4.166  -7.114  0.00  0.00    +0.031 A 
ATOM      3  C   LIG    1       -0.015  -4.842  -8.316  0.00  0.00    +0.031 A 
ATOM      4  C   LIG    1       -0.025  -4.141  -9.508  0.00  0.00    +0.111 A 
ATOM      5  C   LIG    1       -0.032  -2.757  -9.505  0.00  0.00    +0.031 A 
ATOM      6  C   LIG    1       -0.037  -2.067  -8.310  0.00  0.00    +0.031 A 
ENDROOT
BRANCH   4   7
ATOM      7  S   LIG    1       -0.026  -5.013 -11.039  0.00  0.00    +0.095 S 
ATOM      8  O   LIG    1        0.533  -6.293 -10.777  0.00  0.00    -0.148 OA
ATOM      9  O   LIG    1        0.515  -4.129 -12.011  0.00  0.00    -0.148 OA
BRANCH   7  10
ATOM     10  N   LIG    1       -1.609  -5.265 -11.457  0.00  0.00    -0.108 N 
ATOM     11  H   LIG    1       -2.330  -4.937 -10.873  0.00  0.00    +0.211 HD
BRANCH  10  12
ATOM     12  N   LIG    1       -1.921  -5.943 -12.643  0.00  0.00    -0.173 N 
ATOM     13  H   LIG    1       -1.210  -6.266 -13.218  0.00  0.00    +0.289 HD
ATOM     14  C   LIG    1       -3.162  -6.140 -12.971  0.00  0.00    +0.362 C 
BRANCH  14  15
ATOM     15  N   LIG    1       -3.471  -6.812 -14.145  0.00  0.00    -0.290 N 
ATOM     16  H   LIG    1       -4.398  -6.960 -14.390  0.00  0.00    +0.255 HD
ATOM     17  H   LIG    1       -2.760  -7.135 -14.721  0.00  0.00    +0.255 HD
ENDBRANCH  14  15
BRANCH  14  18
ATOM     18  N   LIG    1       -4.179  -5.679 -12.147  0.00  0.00    -0.290 N 
ATOM     19  H   LIG    1       -5.106  -5.826 -12.392  0.00  0.00    +0.255 HD
ATOM     20  H   LIG    1       -3.963  -5.209 -11.326  0.00  0.00    +0.255 HD
ENDBRANCH  14  18
ENDBRANCH  10  12
ENDBRANCH   7  10
ENDBRANCH   4   7
BRANCH   1  22
ATOM     21  N   LIG    1       -0.006  -2.742  -4.801  0.00  0.00    -0.149 NA
ATOM     22  N   LIG    1       -0.020  -2.091  -5.915  0.00  0.00    -0.149 NA
BRANCH  21  26
ATOM     23  C   LIG    1        0.000  -0.694  -1.208  0.00  0.00    +0.029 A 
ATOM     24  C   LIG    1        0.013  -2.086  -1.213  0.00  0.00    +0.025 A 
ATOM     25  C   LIG    1        0.011  -2.771  -2.407  0.00  0.00    +0.031 A 
ATOM     26  C   LIG    1       -0.004  -2.067  -3.616  0.00  0.00    +0.086 A 
ATOM     27  C   LIG    1       -0.017  -0.667  -3.606  0.00  0.00    +0.031 A 
ATOM     28  C   LIG    1       -0.021   0.011  -2.408  0.00  0.00    +0.025 A 
BRANCH  23  30
ATOM     29  C   LIG    1       -0.018   1.461   0.010  0.00  0.00    +0.129 C 
ATOM     30  N   LIG    1        0.002  -0.004   0.002  0.00  0.00    -0.336 N 
ATOM     31  C   LIG    1        0.024  -0.743   1.267  0.00  0.00    +0.129 C 
ENDBRANCH  23  30
ENDBRANCH  21  26
ENDBRANCH   1  22
TORSDOF 8
