REMARK  Name = ZINC00016827
REMARK                            x       y       z     vdW  Elec       q    Type
REMARK                         _______ _______ _______ _____ _____    ______ ____
ROOT
ATOM      1  C   LIG    1       -2.259  -4.173   0.727  0.00  0.00    +0.000 C 
ATOM      2  C   LIG    1       -1.101  -4.845   0.341  0.00  0.00    +0.002 C 
ATOM      3  C   LIG    1        0.018  -4.163  -0.024  0.00  0.00    +0.019 C 
ATOM      4  C   LIG    1        0.013  -2.757  -0.015  0.00  0.00    +0.058 C 
ATOM      5  N   LIG    1        1.164  -2.101  -0.390  0.00  0.00    -0.310 NA
ATOM      6  H   LIG    1        2.010  -2.609  -0.673  0.00  0.00    +0.122 HD
ATOM      7  C   LIG    1        1.117  -0.736  -0.365  0.00  0.00    +0.058 C 
ATOM      8  C   LIG    1        2.412  -0.075  -0.770  0.00  0.00    +0.019 C 
ATOM      9  C   LIG    1        2.176   1.387  -1.142  0.00  0.00    +0.002 C 
ATOM     10  C   LIG    1        1.404   2.058  -0.000  0.00  0.00    +0.000 C 
ATOM     11  C   LIG    1       -0.018   1.502   0.010  0.00  0.00    +0.006 C 
ATOM     12  C   LIG    1        0.002  -0.004   0.002  0.00  0.00    +0.023 C 
ATOM     13  C   LIG    1       -1.162  -0.665   0.382  0.00  0.00    +0.060 C 
ATOM     14  C   LIG    1       -1.166  -2.078   0.377  0.00  0.00    +0.023 C 
ATOM     15  C   LIG    1       -2.301  -2.812   0.747  0.00  0.00    +0.006 C 
ENDROOT
BRANCH  13  16
ATOM     16  N   LIG    1       -2.292   0.046   0.756  0.00  0.00    -0.327 NA
ATOM     17  H   LIG    1       -3.098  -0.426   1.019  0.00  0.00    +0.118 HD
ATOM     18  H   LIG    1       -2.277   1.016   0.756  0.00  0.00    +0.118 HD
ENDBRANCH  13  16
TORSDOF 1
