REMARK  Name = ZINC34173976
REMARK                            x       y       z     vdW  Elec       q    Type
REMARK                         _______ _______ _______ _____ _____    ______ ____
ROOT
ATOM      1  C   LIG    1       -0.013   1.086   0.008  0.00  0.00    +0.172 C 
ATOM      2  C   LIG    1       -0.641   1.627  -1.301  0.00  0.00    +0.172 C 
ATOM      3  C   LIG    1        0.535   1.540  -2.305  0.00  0.00    +0.134 C 
ATOM      4  C   LIG    1        1.773   1.934  -1.473  0.00  0.00    -0.012 C 
ATOM      5  C   LIG    1        1.425   1.645  -0.003  0.00  0.00    +0.134 C 
ENDROOT
BRANCH   4   6
ATOM      6  N   LIG    1        2.932   1.129  -1.883  0.00  0.00    +0.383 N 
ATOM      7  H   LIG    1        2.731   0.152  -1.736  0.00  0.00    -0.089 HD
ATOM      8  H   LIG    1        3.736   1.394  -1.335  0.00  0.00    -0.089 HD
ATOM      9  H   LIG    1        3.124   1.290  -2.861  0.00  0.00    -0.089 HD
ENDBRANCH   4   6
BRANCH   1  10
ATOM     10  O   LIG    1       -0.729   1.569   1.146  0.00  0.00    -0.387 OA
ATOM     11  H   LIG    1       -1.648   1.271   1.188  0.00  0.00    +0.210 HD
ENDBRANCH   1  10
BRANCH   2  12
ATOM     12  O   LIG    1       -1.730   0.802  -1.718  0.00  0.00    -0.387 OA
ATOM     13  H   LIG    1       -2.458   0.761  -1.083  0.00  0.00    +0.210 HD
ENDBRANCH   2  12
BRANCH   3  14
ATOM     14  O   LIG    1        0.669   0.208  -2.805  0.00  0.00    -0.391 OA
ATOM     15  H   LIG    1       -0.107  -0.111  -3.287  0.00  0.00    +0.210 HD
ENDBRANCH   3  14
BRANCH   5  16
ATOM     16  O   LIG    1        2.330   0.679   0.534  0.00  0.00    -0.391 OA
ATOM     17  H   LIG    1        2.150   0.439   1.453  0.00  0.00    +0.210 HD
ENDBRANCH   5  16
TORSDOF 5
