REMARK  Name = ZINC22448696
REMARK                            x       y       z     vdW  Elec       q    Type
REMARK                         _______ _______ _______ _____ _____    ______ ____
ROOT
ATOM      1  C   LIG    1       -4.843  -0.018  -0.061  0.00  0.00    +0.129 C 
ENDROOT
BRANCH   1   2
ATOM      2  O   LIG    1       -5.637  -0.493  -1.151  0.00  0.00    -0.391 OA
ATOM      3  H   LIG    1       -5.655  -1.567  -1.390  0.00  0.00    +0.210 HD
ENDBRANCH   1   2
BRANCH   1   4
ATOM      4  C   LIG    1       -4.995   1.500   0.055  0.00  0.00    +0.116 C 
BRANCH   4  10
ATOM      5  C   LIG    1       -7.344   1.335  -0.512  0.00  0.00    +0.157 C 
ATOM      6  C   LIG    1       -8.750   1.762  -0.085  0.00  0.00    +0.113 C 
ATOM      7  N   LIG    1       -9.037   1.225   1.253  0.00  0.00    -0.295 NA
ATOM      8  C   LIG    1       -8.059   1.715   2.235  0.00  0.00    +0.100 C 
ATOM      9  C   LIG    1       -6.653   1.288   1.808  0.00  0.00    +0.100 C 
ATOM     10  N   LIG    1       -6.366   1.825   0.470  0.00  0.00    -0.287 NA
BRANCH   5  13
ATOM     11  N   LIG    1       -7.413   1.269  -2.984  0.00  0.00    -0.309 N 
ATOM     12  H   LIG    1       -7.953   0.313  -2.907  0.00  0.00    +0.149 HD
ATOM     13  C   LIG    1       -7.031   1.918  -1.866  0.00  0.00    +0.232 C 
ATOM     14  O   LIG    1       -6.436   2.971  -1.950  0.00  0.00    -0.274 OA
BRANCH  11  16
ATOM     15  C   LIG    1       -5.594   1.979  -4.456  0.00  0.00    +0.031 C 
ATOM     16  C   LIG    1       -7.109   1.835  -4.300  0.00  0.00    +0.026 C 
ATOM     17  C   LIG    1       -7.769   3.210  -4.428  0.00  0.00    +0.031 C 
ATOM     18  C   LIG    1       -7.649   0.908  -5.391  0.00  0.00    +0.031 C 
ENDBRANCH  11  16
ENDBRANCH   5  13
BRANCH   7  19
ATOM     19  C   LIG    1      -10.408   1.550   1.668  0.00  0.00    +0.121 C 
BRANCH  19  20
ATOM     20  C   LIG    1      -10.747   0.787   2.923  0.00  0.00    -0.015 A 
ATOM     21  C   LIG    1      -11.325  -0.471   2.845  0.00  0.00    +0.008 A 
ATOM     22  C   LIG    1      -11.616  -1.138   4.025  0.00  0.00    +0.020 A 
ATOM     23  C   LIG    1      -11.331  -0.526   5.232  0.00  0.00    +0.111 A 
ATOM     24  N   LIG    1      -10.785   0.673   5.268  0.00  0.00    -0.263 NA
ATOM     25  C   LIG    1      -10.491   1.335   4.165  0.00  0.00    +0.115 A 
ENDBRANCH  19  20
ENDBRANCH   7  19
ENDBRANCH   4  10
ENDBRANCH   1   4
BRANCH   1  26
ATOM     26  C   LIG    1       -3.375  -0.366  -0.310  0.00  0.00    +0.045 C 
BRANCH  26  27
ATOM     27  C   LIG    1       -3.191  -1.883  -0.236  0.00  0.00    +0.082 C 
BRANCH  27  28
ATOM     28  C   LIG    1       -1.722  -2.214  -0.295  0.00  0.00    +0.217 C 
ATOM     29  N   LIG    1       -1.029  -2.416   0.843  0.00  0.00    -0.306 N 
ATOM     30  H   LIG    1       -1.551  -2.416   1.812  0.00  0.00    +0.149 HD
ATOM     31  O   LIG    1       -1.162  -2.299  -1.368  0.00  0.00    -0.275 OA
BRANCH  29  32
ATOM     32  C   LIG    1        0.418  -2.634   0.791  0.00  0.00    +0.132 C 
ATOM     33  C   LIG    1        1.150  -1.309   0.778  0.00  0.00    -0.022 A 
ATOM     34  C   LIG    1        1.360  -0.410  -0.255  0.00  0.00    +0.006 A 
ATOM     35  C   LIG    1        2.068   0.754  -0.030  0.00  0.00    +0.000 A 
ATOM     36  C   LIG    1        2.569   1.024   1.230  0.00  0.00    +0.000 A 
ATOM     37  C   LIG    1        2.361   0.129   2.261  0.00  0.00    +0.004 A 
ATOM     38  C   LIG    1        1.651  -1.039   2.037  0.00  0.00    -0.040 A 
ATOM     39  C   LIG    1        1.291  -2.164   2.983  0.00  0.00    +0.069 C 
ATOM     40  C   LIG    1        0.899  -3.347   2.073  0.00  0.00    +0.143 C 
BRANCH  40  41
ATOM     41  O   LIG    1       -0.160  -4.109   2.658  0.00  0.00    -0.389 OA
ATOM     42  H   LIG    1        0.018  -4.680   3.581  0.00  0.00    +0.210 HD
ENDBRANCH  40  41
ENDBRANCH  29  32
ENDBRANCH  27  28
BRANCH  27  43
ATOM     43  C   LIG    1       -3.910  -2.543  -1.413  0.00  0.00    +0.048 C 
BRANCH  43  44
ATOM     44  C   LIG    1       -3.773  -4.040  -1.311  0.00  0.00    -0.047 A 
ATOM     45  C   LIG    1       -2.792  -4.695  -2.033  0.00  0.00    +0.003 A 
ATOM     46  C   LIG    1       -2.663  -6.068  -1.936  0.00  0.00    +0.000 A 
ATOM     47  C   LIG    1       -3.520  -6.787  -1.124  0.00  0.00    +0.000 A 
ATOM     48  C   LIG    1       -4.504  -6.133  -0.407  0.00  0.00    +0.000 A 
ATOM     49  C   LIG    1       -4.631  -4.759  -0.500  0.00  0.00    +0.003 A 
ENDBRANCH  43  44
ENDBRANCH  27  43
ENDBRANCH  26  27
ENDBRANCH   1  26
TORSDOF 14
