REMARK  Name = ZINC19418777
REMARK                            x       y       z     vdW  Elec       q    Type
REMARK                         _______ _______ _______ _____ _____    ______ ____
ROOT
ATOM      1  N   LIG    1       -4.021  -4.841   0.016  0.00  0.00    -0.298 NA
ATOM      2  C   LIG    1       -4.699  -4.502   1.275  0.00  0.00    +0.091 C 
ATOM      3  C   LIG    1       -6.212  -4.696   1.112  0.00  0.00    +0.069 C 
ATOM      4  C   LIG    1       -6.447  -6.062   0.510  0.00  0.00    +0.023 A 
ATOM      5  C   LIG    1       -5.467  -6.776  -0.090  0.00  0.00    -0.005 A 
ATOM      6  C   LIG    1       -6.059  -8.018  -0.536  0.00  0.00    +0.007 A 
ATOM      7  C   LIG    1       -5.540  -9.130  -1.208  0.00  0.00    +0.048 A 
ATOM      8  C   LIG    1       -6.421 -10.164  -1.477  0.00  0.00    +0.124 A 
ATOM      9  F   LIG    1       -5.968 -11.260  -2.124  0.00  0.00    -0.205 F 
ATOM     10  C   LIG    1       -7.755 -10.106  -1.101  0.00  0.00    +0.040 A 
ATOM     11  C   LIG    1       -8.288  -9.016  -0.437  0.00  0.00    +0.029 A 
ATOM     12  C   LIG    1       -7.424  -7.961  -0.153  0.00  0.00    +0.047 A 
ATOM     13  N   LIG    1       -7.620  -6.763   0.476  0.00  0.00    -0.358 N 
ATOM     14  H   LIG    1       -8.464  -6.457   0.843  0.00  0.00    +0.166 HD
ATOM     15  C   LIG    1       -4.046  -6.293  -0.230  0.00  0.00    +0.122 C 
ENDROOT
BRANCH   1  16
ATOM     16  C   LIG    1       -2.644  -4.329   0.005  0.00  0.00    +0.085 C 
BRANCH  16  17
ATOM     17  C   LIG    1       -2.669  -2.800   0.013  0.00  0.00    +0.023 C 
BRANCH  17  18
ATOM     18  C   LIG    1       -1.235  -2.266   0.002  0.00  0.00    +0.081 C 
BRANCH  18  19
ATOM     19  C   LIG    1       -1.259  -0.760   0.011  0.00  0.00    +0.163 C 
ATOM     20  O   LIG    1       -2.319  -0.170   0.024  0.00  0.00    -0.292 OA
BRANCH  19  27
ATOM     21  C   LIG    1       -0.017   1.395   0.010  0.00  0.00    +0.014 A 
ATOM     22  C   LIG    1        1.168   2.097   0.002  0.00  0.00    +0.039 A 
ATOM     23  C   LIG    1        2.379   1.420  -0.013  0.00  0.00    +0.123 A 
ATOM     24  F   LIG    1        3.538   2.114  -0.020  0.00  0.00    -0.205 F 
ATOM     25  C   LIG    1        2.405   0.033  -0.021  0.00  0.00    +0.039 A 
ATOM     26  C   LIG    1        1.227  -0.681  -0.014  0.00  0.00    +0.014 A 
ATOM     27  C   LIG    1        0.002  -0.004   0.002  0.00  0.00    +0.018 A 
ENDBRANCH  19  27
ENDBRANCH  18  19
ENDBRANCH  17  18
ENDBRANCH  16  17
ENDBRANCH   1  16
TORSDOF 5
