REMARK  Name = ZINC28246018
REMARK                            x       y       z     vdW  Elec       q    Type
REMARK                         _______ _______ _______ _____ _____    ______ ____
ROOT
ATOM      1  C   LIG    1        2.253   3.757   0.937  0.00  0.00    +0.001 C 
ATOM      2  C   LIG    1        2.486   3.756  -0.575  0.00  0.00    -0.001 C 
ATOM      3  C   LIG    1        1.235   3.094   0.007  0.00  0.00    +0.032 C 
ENDROOT
BRANCH   3   4
ATOM      4  N   LIG    1       -0.050   3.779  -0.191  0.00  0.00    +0.389 N 
ATOM      5  H   LIG    1       -0.563   3.882   0.776  0.00  0.00    -0.088 HD
ATOM      6  H   LIG    1        0.129   4.777  -0.619  0.00  0.00    -0.088 HD
ATOM      7  H   LIG    1       -0.676   3.192  -0.878  0.00  0.00    -0.088 HD
ENDBRANCH   3   4
BRANCH   3   8
ATOM      8  C   LIG    1        1.177   1.588  -0.001  0.00  0.00    +0.293 C 
ATOM      9  O   LIG    1        2.199   0.944  -0.014  0.00  0.00    -0.253 OA
BRANCH   8  10
ATOM     10  O   LIG    1       -0.011   0.963   0.007  0.00  0.00    -0.482 OA
ATOM     11  H   LIG    1       -0.804   1.462   0.018  0.00  0.00    +0.295 HD
ENDBRANCH   8  10
ENDBRANCH   3   8
BRANCH   2  12
ATOM     12  C   LIG    1        3.582   2.837  -1.121  0.00  0.00    +0.129 C 
BRANCH  12  13
ATOM     13  P   LIG    1        4.736   3.810  -2.143  0.00  0.00    +0.328 P 
ATOM     14  O   LIG    1        5.258   4.947  -1.352  0.00  0.00    -0.259 OA
BRANCH  13  15
ATOM     15  O   LIG    1        3.964   4.369  -3.440  0.00  0.00    -0.324 OA
ATOM     16  H   LIG    1        4.502   4.982  -4.179  0.00  0.00    +0.220 HD
ENDBRANCH  13  15
BRANCH  13  17
ATOM     17  O   LIG    1        5.960   2.873  -2.609  0.00  0.00    -0.324 OA
ATOM     18  H   LIG    1        6.425   2.536  -1.827  0.00  0.00    +0.220 HD
ENDBRANCH  13  17
ENDBRANCH  12  13
ENDBRANCH   2  12
TORSDOF 7
