REMARK  Name = ZINC36951929
REMARK                            x       y       z     vdW  Elec       q    Type
REMARK                         _______ _______ _______ _____ _____    ______ ____
ROOT
ATOM      1  N   LIG    1        4.907  -2.666  -0.058  0.00  0.00    -0.340 N 
ATOM      2  H   LIG    1        5.738  -2.166  -0.063  0.00  0.00    +0.146 HD
ENDROOT
BRANCH   1   8
ATOM      3  C   LIG    1       -0.016   1.357   0.009  0.00  0.00    +0.001 A 
ATOM      4  C   LIG    1        1.168   2.091   0.002  0.00  0.00    +0.001 A 
ATOM      5  C   LIG    1        2.378   1.468  -0.013  0.00  0.00    +0.008 A 
ATOM      6  C   LIG    1        2.437   0.063  -0.021  0.00  0.00    -0.016 A 
ATOM      7  C   LIG    1        3.668  -0.613  -0.036  0.00  0.00    +0.031 A 
ATOM      8  C   LIG    1        3.685  -1.990  -0.043  0.00  0.00    +0.028 A 
ATOM      9  C   LIG    1        2.490  -2.720  -0.036  0.00  0.00    +0.023 A 
ATOM     10  C   LIG    1        1.287  -2.088  -0.022  0.00  0.00    +0.010 A 
ATOM     11  C   LIG    1        1.232  -0.683  -0.013  0.00  0.00    -0.018 A 
ATOM     12  C   LIG    1        0.002  -0.004   0.002  0.00  0.00    +0.008 A 
ENDBRANCH   1   8
BRANCH   1  13
ATOM     13  C   LIG    1        4.934  -4.131  -0.065  0.00  0.00    +0.137 C 
BRANCH  13  14
ATOM     14  C   LIG    1        6.364  -4.607  -0.081  0.00  0.00    -0.027 A 
ATOM     15  C   LIG    1        7.009  -4.813  -1.286  0.00  0.00    +0.009 A 
ATOM     16  C   LIG    1        8.320  -5.250  -1.306  0.00  0.00    +0.049 A 
ATOM     17  C   LIG    1        8.991  -5.481  -0.116  0.00  0.00    +0.158 A 
ATOM     18  C   LIG    1        8.342  -5.273   1.097  0.00  0.00    +0.159 A 
ATOM     19  C   LIG    1        7.029  -4.831   1.110  0.00  0.00    +0.054 A 
BRANCH  17  20
ATOM     20  O   LIG    1       10.281  -5.911  -0.133  0.00  0.00    -0.503 OA
ATOM     21  H   LIG    1       10.934  -5.197  -0.133  0.00  0.00    +0.292 HD
ENDBRANCH  17  20
BRANCH  18  22
ATOM     22  O   LIG    1        8.997  -5.499   2.268  0.00  0.00    -0.503 OA
ATOM     23  H   LIG    1        9.465  -4.726   2.612  0.00  0.00    +0.292 HD
ENDBRANCH  18  22
ENDBRANCH  13  14
ENDBRANCH   1  13
TORSDOF 5
