REMARK  Name = ZINC21658943
REMARK                            x       y       z     vdW  Elec       q    Type
REMARK                         _______ _______ _______ _____ _____    ______ ____
ROOT
ATOM      1  C   LIG    1       -1.591  -2.342  -1.478  0.00  0.00    +0.154 C 
ATOM      2  N   LIG    1       -0.741  -2.822  -2.569  0.00  0.00    -0.294 N 
ATOM      3  C   LIG    1        0.648  -2.944  -2.414  0.00  0.00    +0.082 A 
ATOM      4  C   LIG    1        1.455  -3.440  -3.557  0.00  0.00    +0.089 A 
ATOM      5  C   LIG    1        0.781  -3.785  -4.813  0.00  0.00    +0.266 A 
ATOM      6  N   LIG    1       -0.566  -3.615  -4.817  0.00  0.00    -0.263 N 
ATOM      7  C   LIG    1       -1.300  -3.940  -6.043  0.00  0.00    +0.157 C 
ATOM      8  O   LIG    1        1.387  -4.195  -5.785  0.00  0.00    -0.267 OA
ATOM      9  C   LIG    1        2.761  -3.462  -3.134  0.00  0.00    +0.069 A 
ATOM     10  N   LIG    1        2.781  -3.030  -1.844  0.00  0.00    -0.306 N 
ATOM     11  C   LIG    1        3.881  -2.906  -0.983  0.00  0.00    +0.068 A 
ATOM     12  C   LIG    1        5.178  -2.980  -1.450  0.00  0.00    +0.028 A 
ATOM     13  C   LIG    1        6.234  -2.797  -0.575  0.00  0.00    +0.002 A 
ATOM     14  C   LIG    1        5.993  -2.542   0.763  0.00  0.00    +0.002 A 
ATOM     15  C   LIG    1        4.696  -2.478   1.240  0.00  0.00    +0.025 A 
ATOM     16  C   LIG    1        3.631  -2.668   0.373  0.00  0.00    +0.052 A 
ATOM     17  N   LIG    1        2.315  -2.628   0.845  0.00  0.00    -0.330 N 
ATOM     18  H   LIG    1        2.094  -2.938   1.877  0.00  0.00    +0.147 HD
ATOM     19  C   LIG    1        1.227  -2.174  -0.035  0.00  0.00    +0.150 C 
ATOM     20  C   LIG    1        1.498  -2.708  -1.425  0.00  0.00    +0.073 A 
ATOM     21  C   LIG    1       -1.262  -3.167  -3.768  0.00  0.00    +0.332 A 
ATOM     22  O   LIG    1       -2.466  -3.061  -3.902  0.00  0.00    -0.246 OA
ENDROOT
BRANCH   9  23
ATOM     23  C   LIG    1        3.930  -3.877  -3.933  0.00  0.00    -0.000 A 
ATOM     24  C   LIG    1        4.753  -4.913  -3.485  0.00  0.00    +0.010 A 
ATOM     25  C   LIG    1        5.842  -5.300  -4.239  0.00  0.00    +0.001 A 
ATOM     26  C   LIG    1        6.125  -4.657  -5.431  0.00  0.00    +0.000 A 
ATOM     27  C   LIG    1        5.317  -3.627  -5.878  0.00  0.00    +0.001 A 
ATOM     28  C   LIG    1        4.222  -3.233  -5.137  0.00  0.00    +0.010 A 
ENDBRANCH   9  23
BRANCH  19  29
ATOM     29  C   LIG    1        1.193  -0.667  -0.065  0.00  0.00    -0.021 A 
ATOM     30  C   LIG    1       -0.020  -0.004  -0.058  0.00  0.00    +0.006 A 
ATOM     31  C   LIG    1       -0.052   1.378  -0.085  0.00  0.00    +0.000 A 
ATOM     32  C   LIG    1        1.129   2.096  -0.121  0.00  0.00    +0.000 A 
ATOM     33  C   LIG    1        2.342   1.432  -0.129  0.00  0.00    +0.000 A 
ATOM     34  C   LIG    1        2.373   0.051  -0.101  0.00  0.00    +0.006 A 
ENDBRANCH  19  29
TORSDOF 2
