REMARK  Name = ZINC13763794
REMARK                            x       y       z     vdW  Elec       q    Type
REMARK                         _______ _______ _______ _____ _____    ______ ____
ROOT
ATOM      1  C   LIG    1        2.264   4.025   0.003  0.00  0.00    +0.136 A 
ATOM      2  C   LIG    1        3.518   3.377  -0.012  0.00  0.00    +0.023 A 
ATOM      3  C   LIG    1        3.569   1.992  -0.021  0.00  0.00    +0.025 A 
ATOM      4  C   LIG    1        2.354   1.288  -0.013  0.00  0.00    +0.038 A 
ATOM      5  C   LIG    1        2.309  -0.117  -0.021  0.00  0.00    +0.126 A 
ATOM      6  N   LIG    1        1.132  -0.708  -0.013  0.00  0.00    -0.222 NA
ATOM      7  C   LIG    1        0.002  -0.004   0.002  0.00  0.00    +0.214 A 
ATOM      8  N   LIG    1       -0.016   1.315   0.009  0.00  0.00    -0.195 NA
ATOM      9  C   LIG    1        1.130   2.008   0.002  0.00  0.00    +0.167 A 
ATOM     10  N   LIG    1        1.137   3.342   0.009  0.00  0.00    -0.212 NA
ENDROOT
BRANCH   1  14
ATOM     11  N   LIG    1        0.981   7.392   0.034  0.00  0.00    -0.294 N 
ATOM     12  H   LIG    1        1.804   7.905   0.029  0.00  0.00    +0.151 HD
ATOM     13  C   LIG    1        1.027   6.045   0.026  0.00  0.00    +0.305 C 
ATOM     14  N   LIG    1        2.217   5.411   0.011  0.00  0.00    -0.254 N 
ATOM     15  H   LIG    1        3.040   5.925   0.006  0.00  0.00    +0.158 HD
ATOM     16  O   LIG    1       -0.004   5.402   0.032  0.00  0.00    -0.252 OA
BRANCH  11  18
ATOM     17  C   LIG    1       -1.089   7.677   1.304  0.00  0.00    +0.031 C 
ATOM     18  C   LIG    1       -0.311   8.081   0.050  0.00  0.00    +0.028 C 
ATOM     19  C   LIG    1       -1.112   7.691  -1.194  0.00  0.00    +0.031 C 
ATOM     20  C   LIG    1       -0.083   9.594   0.056  0.00  0.00    +0.031 C 
ENDBRANCH  11  18
ENDBRANCH   1  14
BRANCH   2  21
ATOM     21  C   LIG    1        4.769   4.172  -0.019  0.00  0.00    -0.015 A 
ATOM     22  C   LIG    1        4.939   5.203  -0.942  0.00  0.00    +0.008 A 
ATOM     23  C   LIG    1        6.104   5.943  -0.940  0.00  0.00    +0.001 A 
ATOM     24  C   LIG    1        7.107   5.656  -0.031  0.00  0.00    +0.000 A 
ATOM     25  C   LIG    1        6.946   4.630   0.883  0.00  0.00    +0.001 A 
ATOM     26  C   LIG    1        5.783   3.887   0.894  0.00  0.00    +0.008 A 
ENDBRANCH   2  21
BRANCH   7  27
ATOM     27  N   LIG    1       -1.202  -0.683   0.009  0.00  0.00    -0.327 N 
ATOM     28  H   LIG    1       -1.211  -1.653   0.004  0.00  0.00    +0.145 HD
ATOM     29  H   LIG    1       -2.037  -0.190   0.020  0.00  0.00    +0.145 HD
ENDBRANCH   7  27
TORSDOF 4
