REMARK  Name = ZINC43122151
REMARK                            x       y       z     vdW  Elec       q    Type
REMARK                         _______ _______ _______ _____ _____    ______ ____
ROOT
ATOM      1  N   LIG    1        2.420   0.269   4.130  0.00  0.00    -0.280 N 
ATOM      2  H   LIG    1        2.834   1.121   3.922  0.00  0.00    +0.155 HD
ATOM      3  C   LIG    1        2.399  -0.179   5.401  0.00  0.00    +0.267 C 
ATOM      4  O   LIG    1        1.956  -1.284   5.649  0.00  0.00    -0.268 OA
ENDROOT
BRANCH   1   7
ATOM      5  C   LIG    1        0.637  -0.630   1.039  0.00  0.00    +0.140 A 
ATOM      6  C   LIG    1        1.205   0.130   2.048  0.00  0.00    +0.070 A 
ATOM      7  C   LIG    1        1.845  -0.496   3.109  0.00  0.00    +0.037 A 
ATOM      8  C   LIG    1        1.913  -1.883   3.157  0.00  0.00    +0.025 A 
ATOM      9  C   LIG    1        1.345  -2.638   2.149  0.00  0.00    +0.025 A 
ATOM     10  C   LIG    1        0.703  -2.016   1.093  0.00  0.00    +0.083 A 
ATOM     11 CL   LIG    1       -0.015  -2.969  -0.167  0.00  0.00    -0.080 Cl
BRANCH   5  13
ATOM     12  C   LIG    1       -0.021   1.409   0.007  0.00  0.00    +0.277 C 
ATOM     13  O   LIG    1        0.009  -0.020  -0.001  0.00  0.00    -0.494 OA
ENDBRANCH   5  13
ENDBRANCH   1   7
BRANCH   3  14
ATOM     14  C   LIG    1        2.916   0.674   6.495  0.00  0.00    +0.126 A 
ATOM     15  C   LIG    1        2.897   0.203   7.806  0.00  0.00    +0.033 A 
ATOM     16  C   LIG    1        3.384   1.014   8.820  0.00  0.00    +0.004 A 
ATOM     17  C   LIG    1        3.873   2.267   8.487  0.00  0.00    +0.020 A 
ATOM     18  C   LIG    1        3.861   2.671   7.161  0.00  0.00    +0.111 A 
ATOM     19  N   LIG    1        3.398   1.879   6.218  0.00  0.00    -0.250 NA
ENDBRANCH   3  14
TORSDOF 3
