REMARK  Name = ZINC19632628
REMARK                            x       y       z     vdW  Elec       q    Type
REMARK                         _______ _______ _______ _____ _____    ______ ____
ROOT
ATOM      1  C   LIG    1       -0.422   1.148   0.603  0.00  0.00    +0.001 A 
ATOM      2  C   LIG    1        0.660   2.011   0.603  0.00  0.00    +0.001 A 
ATOM      3  C   LIG    1        1.937   1.521   0.396  0.00  0.00    +0.016 A 
ATOM      4  C   LIG    1        2.134   0.165   0.191  0.00  0.00    +0.028 A 
ATOM      5  C   LIG    1        1.045  -0.717   0.193  0.00  0.00    +0.079 A 
ATOM      6  C   LIG    1        1.225  -2.156  -0.012  0.00  0.00    +0.322 C 
ATOM      7  N   LIG    1        2.097  -2.936   0.479  0.00  0.00    -0.040 NA
ATOM      8  C   LIG    1        3.109  -2.711   1.354  0.00  0.00    +0.190 A 
ATOM      9  C   LIG    1        3.295  -3.606   2.414  0.00  0.00    +0.056 A 
ATOM     10  C   LIG    1        4.318  -3.412   3.319  0.00  0.00    +0.004 A 
ATOM     11  C   LIG    1        5.170  -2.331   3.189  0.00  0.00    +0.001 A 
ATOM     12  C   LIG    1        4.998  -1.435   2.147  0.00  0.00    +0.019 A 
ATOM     13  C   LIG    1        3.973  -1.618   1.235  0.00  0.00    +0.063 A 
ATOM     14  S   LIG    1        3.760  -0.461  -0.078  0.00  0.00    -0.084 S 
ATOM     15  C   LIG    1       -0.239  -0.204   0.400  0.00  0.00    +0.017 A 
ENDROOT
BRANCH   6  16
ATOM     16  N   LIG    1        0.316  -2.747  -0.860  0.00  0.00    -0.218 N 
ATOM     17  C   LIG    1       -0.650  -1.936  -1.615  0.00  0.00    +0.241 C 
ATOM     18  C   LIG    1       -0.573  -2.338  -3.092  0.00  0.00    +0.128 C 
ATOM     19  N   LIG    1       -0.755  -3.792  -3.211  0.00  0.00    -0.293 NA
ATOM     20  C   LIG    1        0.326  -4.520  -2.533  0.00  0.00    +0.128 C 
ATOM     21  C   LIG    1        0.290  -4.207  -1.038  0.00  0.00    +0.241 C 
BRANCH  19  22
ATOM     22  C   LIG    1       -0.860  -4.196  -4.619  0.00  0.00    +0.112 C 
BRANCH  22  23
ATOM     23  C   LIG    1       -1.294  -5.661  -4.698  0.00  0.00    +0.175 C 
BRANCH  23  24
ATOM     24  O   LIG    1       -2.613  -5.796  -4.167  0.00  0.00    -0.376 OA
BRANCH  24  25
ATOM     25  C   LIG    1       -3.116  -7.133  -4.194  0.00  0.00    +0.187 C 
BRANCH  25  26
ATOM     26  C   LIG    1       -4.528  -7.159  -3.604  0.00  0.00    +0.184 C 
BRANCH  26  27
ATOM     27  O   LIG    1       -5.408  -6.407  -4.442  0.00  0.00    -0.393 OA
ATOM     28  H   LIG    1       -6.322  -6.380  -4.128  0.00  0.00    +0.209 HD
ENDBRANCH  26  27
ENDBRANCH  25  26
ENDBRANCH  24  25
ENDBRANCH  23  24
ENDBRANCH  22  23
ENDBRANCH  19  22
ENDBRANCH   6  16
TORSDOF 7
