REMARK  Name = ZINC53166256
REMARK                            x       y       z     vdW  Elec       q    Type
REMARK                         _______ _______ _______ _____ _____    ______ ____
ROOT
ATOM      1  C   LIG    1        1.906  -3.636  -0.105  0.00  0.00    +0.324 C 
ATOM      2  N   LIG    1        2.187  -4.148  -1.257  0.00  0.00    -0.040 NA
ATOM      3  C   LIG    1        2.953  -5.231  -1.558  0.00  0.00    +0.197 A 
ATOM      4  C   LIG    1        2.483  -6.119  -2.534  0.00  0.00    +0.057 A 
ATOM      5  C   LIG    1        3.233  -7.219  -2.899  0.00  0.00    +0.004 A 
ATOM      6  C   LIG    1        4.458  -7.458  -2.309  0.00  0.00    +0.002 A 
ATOM      7  C   LIG    1        4.934  -6.595  -1.333  0.00  0.00    +0.027 A 
ATOM      8  C   LIG    1        4.185  -5.500  -0.949  0.00  0.00    +0.083 A 
ATOM      9  N   LIG    1        4.660  -4.675   0.097  0.00  0.00    -0.305 N 
ATOM     10  H   LIG    1        5.520  -4.229   0.046  0.00  0.00    +0.153 HD
ATOM     11  C   LIG    1        3.831  -4.538   1.199  0.00  0.00    +0.085 A 
ATOM     12  S   LIG    1        4.154  -4.861   2.800  0.00  0.00    -0.075 S 
ATOM     13  C   LIG    1        2.569  -4.506   3.508  0.00  0.00    +0.018 A 
ATOM     14  C   LIG    1        1.838  -4.111   2.449  0.00  0.00    +0.031 A 
ATOM     15  C   LIG    1        2.517  -4.089   1.167  0.00  0.00    +0.094 A 
ENDROOT
BRANCH   1  20
ATOM     16  C   LIG    1       -0.065   1.441  -0.373  0.00  0.00    +0.105 C 
ATOM     17  N   LIG    1       -0.022  -0.016  -0.193  0.00  0.00    -0.298 NA
ATOM     18  C   LIG    1        0.388  -0.688  -1.433  0.00  0.00    +0.128 C 
ATOM     19  C   LIG    1        0.246  -2.204  -1.259  0.00  0.00    +0.241 C 
ATOM     20  N   LIG    1        0.991  -2.608  -0.057  0.00  0.00    -0.218 N 
ATOM     21  C   LIG    1        0.733  -1.886   1.197  0.00  0.00    +0.241 C 
ATOM     22  C   LIG    1        0.856  -0.382   0.927  0.00  0.00    +0.128 C 
ENDBRANCH   1  20
BRANCH  13  23
ATOM     23  C   LIG    1        2.140  -4.625   4.948  0.00  0.00    +0.198 C 
BRANCH  23  24
ATOM     24  O   LIG    1        1.630  -5.938   5.186  0.00  0.00    -0.390 OA
ATOM     25  H   LIG    1        1.335  -6.087   6.095  0.00  0.00    +0.210 HD
ENDBRANCH  23  24
ENDBRANCH  13  23
TORSDOF 3
