REMARK  Name = ZINC00009308
REMARK                            x       y       z     vdW  Elec       q    Type
REMARK                         _______ _______ _______ _____ _____    ______ ____
ROOT
ATOM      1  C   LIG    1        3.216   3.357  -0.010  0.00  0.00    +0.228 A 
ATOM      2  N   LIG    1        2.440   4.412   0.003  0.00  0.00    -0.209 NA
ATOM      3  C   LIG    1        1.146   4.001   0.012  0.00  0.00    +0.114 A 
ATOM      4  C   LIG    1       -0.079   4.674   0.026  0.00  0.00    +0.077 A 
ATOM      5  C   LIG    1       -1.256   3.952   0.034  0.00  0.00    +0.120 A 
ATOM      6  C   LIG    1       -1.228   2.561   0.022  0.00  0.00    +0.064 A 
ATOM      7  C   LIG    1       -0.024   1.887   0.012  0.00  0.00    +0.066 A 
ATOM      8 BR   LIG    1        0.002  -0.004   0.002  0.00  0.00    -0.046 Br
ATOM      9  C   LIG    1        1.168   2.597   0.005  0.00  0.00    +0.170 A 
ATOM     10  O   LIG    1        2.471   2.236  -0.009  0.00  0.00    -0.434 OA
ENDROOT
BRANCH   1  16
ATOM     11  C   LIG    1        5.364   4.618  -0.027  0.00  0.00    +0.017 A 
ATOM     12  C   LIG    1        6.741   4.646  -0.034  0.00  0.00    +0.046 A 
ATOM     13  C   LIG    1        7.463   3.459  -0.046  0.00  0.00    +0.117 A 
ATOM     14  C   LIG    1        6.799   2.239  -0.046  0.00  0.00    +0.046 A 
ATOM     15  C   LIG    1        5.422   2.201  -0.034  0.00  0.00    +0.017 A 
ATOM     16  C   LIG    1        4.693   3.393  -0.022  0.00  0.00    +0.037 A 
BRANCH  13  17
ATOM     17  O   LIG    1        8.820   3.492  -0.059  0.00  0.00    -0.507 OA
ATOM     18  H   LIG    1        9.205   3.506  -0.946  0.00  0.00    +0.292 HD
ENDBRANCH  13  17
ENDBRANCH   1  16
BRANCH   5  19
ATOM     19  O   LIG    1       -2.449   4.604   0.048  0.00  0.00    -0.507 OA
ATOM     20  H   LIG    1       -2.802   4.797  -0.832  0.00  0.00    +0.292 HD
ENDBRANCH   5  19
TORSDOF 3
