REMARK  Name = ZINC22066528
REMARK                            x       y       z     vdW  Elec       q    Type
REMARK                         _______ _______ _______ _____ _____    ______ ____
ROOT
ATOM      1  C   LIG    1       -3.771  -6.013   5.330  0.00  0.00    +0.162 A 
ATOM      2  C   LIG    1       -2.529  -5.817   4.751  0.00  0.00    +0.053 A 
ATOM      3  C   LIG    1       -2.186  -4.579   4.231  0.00  0.00    -0.038 A 
ATOM      4  C   LIG    1       -3.080  -3.531   4.288  0.00  0.00    -0.023 A 
ATOM      5  C   LIG    1       -2.758  -2.166   3.740  0.00  0.00    +0.092 C 
ATOM      6  C   LIG    1       -3.942  -1.681   2.899  0.00  0.00    +0.059 C 
ATOM      7  C   LIG    1       -3.581  -0.405   2.185  0.00  0.00    -0.037 A 
ATOM      8  C   LIG    1       -4.604   0.382   1.677  0.00  0.00    +0.008 A 
ATOM      9  C   LIG    1       -4.319   1.555   1.007  0.00  0.00    +0.049 A 
ATOM     10  C   LIG    1       -3.001   1.952   0.843  0.00  0.00    +0.159 A 
ATOM     11  C   LIG    1       -1.976   1.163   1.348  0.00  0.00    +0.166 A 
ATOM     12  C   LIG    1       -2.268  -0.016   2.026  0.00  0.00    +0.015 A 
ATOM     13  C   LIG    1       -1.126  -0.827   2.577  0.00  0.00    +0.124 C 
ATOM     14  N   LIG    1       -1.561  -2.195   2.893  0.00  0.00    -0.291 NA
ATOM     15  C   LIG    1       -0.468  -2.927   3.553  0.00  0.00    +0.090 C 
ATOM     16  C   LIG    1       -4.327  -3.724   4.868  0.00  0.00    +0.054 A 
ATOM     17  C   LIG    1       -0.824  -4.412   3.607  0.00  0.00    +0.051 C 
ATOM     18  C   LIG    1       -4.676  -4.957   5.388  0.00  0.00    +0.159 A 
ENDROOT
BRANCH   1  20
ATOM     19  C   LIG    1       -3.123  -8.263   5.744  0.00  0.00    +0.277 C 
ATOM     20  O   LIG    1       -4.104  -7.229   5.840  0.00  0.00    -0.491 OA
ENDBRANCH   1  20
BRANCH  10  21
ATOM     21  O   LIG    1       -2.713   3.108   0.186  0.00  0.00    -0.503 OA
ATOM     22  H   LIG    1       -1.667   3.421   0.058  0.00  0.00    +0.292 HD
ENDBRANCH  10  21
BRANCH  11  23
ATOM     23  O   LIG    1       -0.682   1.547   1.184  0.00  0.00    -0.491 OA
ATOM     24  C   LIG    1       -0.013   1.086   0.008  0.00  0.00    +0.277 C 
ENDBRANCH  11  23
BRANCH  18  25
ATOM     25  O   LIG    1       -5.899  -5.138   5.955  0.00  0.00    -0.503 OA
ATOM     26  H   LIG    1       -6.613  -4.302   6.000  0.00  0.00    +0.292 HD
ENDBRANCH  18  25
TORSDOF 4
