REMARK  Name = ZINC27618719
REMARK                            x       y       z     vdW  Elec       q    Type
REMARK                         _______ _______ _______ _____ _____    ______ ____
ROOT
ATOM      1  CA  ILE A  1       -0.341   1.926   0.211  0.00  0.00    +0.165 C 
ENDROOT
BRANCH   1   2
ATOM      2  N   ILE A  1        0.169   2.288   1.536  0.00  0.00    -0.270 N 
ATOM      3  H   ILE A  1       -0.026   1.633   2.398  0.00  0.00    +0.153 HD
ATOM      4  C   UNK A  0        0.876   3.423   1.699  0.00  0.00    +0.401 C 
ATOM      5  O   UNK A  0        1.012   4.193   0.769  0.00  0.00    -0.226 OA
BRANCH   4   6
ATOM      6  O   UNK A  0        1.432   3.705   2.893  0.00  0.00    -0.446 OA
BRANCH   6   7
ATOM      7  C   UNK A  0        2.180   4.945   2.996  0.00  0.00    +0.269 C 
BRANCH   7   8
ATOM      8  C   UNK A  0        2.724   5.089   4.394  0.00  0.00    -0.010 A 
ATOM      9  C   UNK A  0        1.978   5.734   5.363  0.00  0.00    +0.007 A 
ATOM     10  C   UNK A  0        2.475   5.862   6.646  0.00  0.00    +0.000 A 
ATOM     11  C   UNK A  0        3.722   5.353   6.958  0.00  0.00    +0.000 A 
ATOM     12  C   UNK A  0        4.470   4.713   5.988  0.00  0.00    +0.000 A 
ATOM     13  C   UNK A  0        3.971   4.581   4.706  0.00  0.00    +0.007 A 
ENDBRANCH   7   8
ENDBRANCH   6   7
ENDBRANCH   4   6
ENDBRANCH   1   2
BRANCH   1  14
ATOM     14  C   ILE A  1       -1.567   1.064   0.363  0.00  0.00    +0.234 C 
ATOM     15  N   LEU A  2       -2.389   0.870  -0.688  0.00  0.00    -0.304 N 
ATOM     16  H   LEU A  2       -2.128   1.283  -1.674  0.00  0.00    +0.149 HD
ATOM     17  O   ILE A  1       -1.815   0.544   1.430  0.00  0.00    -0.274 OA
BRANCH  15  18
ATOM     18  CA  LEU A  2       -3.630   0.111  -0.517  0.00  0.00    +0.136 C 
BRANCH  18  19
ATOM     19  C   LEU A  2       -3.341  -1.361  -0.656  0.00  0.00    +0.245 C 
ATOM     20  O   LEU A  2       -2.215  -1.738  -0.876  0.00  0.00    -0.299 OA
ENDBRANCH  18  19
BRANCH  18  21
ATOM     21  CB  LEU A  2       -4.639   0.536  -1.585  0.00  0.00    +0.032 C 
BRANCH  21  22
ATOM     22  CG  LEU A  2       -5.026   2.000  -1.368  0.00  0.00    -0.015 C 
ATOM     23  CD2 LEU A  2       -5.776   2.139  -0.041  0.00  0.00    +0.007 C 
ATOM     24  CD1 LEU A  2       -5.927   2.466  -2.514  0.00  0.00    +0.007 C 
ENDBRANCH  21  22
ENDBRANCH  18  21
ENDBRANCH  15  18
ENDBRANCH   1  14
BRANCH   1  25
ATOM     25  CB  ILE A  1        0.734   1.153  -0.555  0.00  0.00    +0.015 C 
ATOM     26  CG2 ILE A  1        1.038  -0.157   0.174  0.00  0.00    +0.010 C 
BRANCH  25  28
ATOM     27  CD1 ILE A  1        0.082   2.152  -2.751  0.00  0.00    +0.004 C 
ATOM     28  CG1 ILE A  1        0.233   0.846  -1.968  0.00  0.00    +0.002 C 
ENDBRANCH  25  28
ENDBRANCH   1  25
TORSDOF 11
