REMARK  Name = ZINC40940077
REMARK                            x       y       z     vdW  Elec       q    Type
REMARK                         _______ _______ _______ _____ _____    ______ ____
ROOT
ATOM      1  N   LIG    1        2.567  -2.502   4.216  0.00  0.00    -0.184 N 
ATOM      2  C   LIG    1        2.529  -3.824   4.470  0.00  0.00    +0.272 C 
ATOM      3  C   LIG    1        3.466  -4.073   5.582  0.00  0.00    +0.102 C 
ATOM      4  C   LIG    1        4.026  -2.749   5.916  0.00  0.00    +0.266 C 
ATOM      5  O   LIG    1        4.843  -2.505   6.783  0.00  0.00    -0.268 OA
ATOM      6  C   LIG    1        3.755  -5.281   6.180  0.00  0.00    +0.026 C 
ATOM      7  O   LIG    1        1.851  -4.654   3.893  0.00  0.00    -0.268 OA
ATOM      8  N   LIG    1        3.462  -1.863   5.073  0.00  0.00    -0.223 N 
ATOM      9  H   LIG    1        3.651  -0.911   5.065  0.00  0.00    +0.174 HD
ENDROOT
BRANCH   1  13
ATOM     10  C   LIG    1        0.331  -0.588   1.263  0.00  0.00    +0.120 A 
ATOM     11  C   LIG    1        1.195   0.145   2.063  0.00  0.00    +0.047 A 
ATOM     12  C   LIG    1        1.935  -0.488   3.042  0.00  0.00    +0.029 A 
ATOM     13  C   LIG    1        1.816  -1.859   3.224  0.00  0.00    +0.057 A 
ATOM     14  C   LIG    1        0.951  -2.593   2.422  0.00  0.00    +0.029 A 
ATOM     15  C   LIG    1        0.207  -1.957   1.448  0.00  0.00    +0.047 A 
BRANCH  10  17
ATOM     16  C   LIG    1       -0.220   1.448   0.164  0.00  0.00    +0.277 C 
ATOM     17  O   LIG    1       -0.398   0.036   0.299  0.00  0.00    -0.495 OA
ENDBRANCH  10  17
ENDBRANCH   1  13
BRANCH   6  18
ATOM     18  C   LIG    1        4.588  -5.322   7.383  0.00  0.00    -0.020 A 
ATOM     19  C   LIG    1        4.444  -4.338   8.373  0.00  0.00    +0.012 A 
ATOM     20  C   LIG    1        5.228  -4.379   9.502  0.00  0.00    +0.050 A 
ATOM     21  C   LIG    1        6.165  -5.393   9.666  0.00  0.00    +0.158 A 
ATOM     22  C   LIG    1        6.316  -6.375   8.687  0.00  0.00    +0.162 A 
ATOM     23  C   LIG    1        5.530  -6.347   7.553  0.00  0.00    +0.057 A 
BRANCH  21  24
ATOM     24  O   LIG    1        6.936  -5.427  10.783  0.00  0.00    -0.503 OA
ATOM     25  H   LIG    1        6.551  -5.934  11.511  0.00  0.00    +0.292 HD
ENDBRANCH  21  24
BRANCH  22  26
ATOM     26  O   LIG    1        7.234  -7.365   8.852  0.00  0.00    -0.491 OA
ATOM     27  C   LIG    1        7.335  -8.337   7.810  0.00  0.00    +0.277 C 
ENDBRANCH  22  26
ENDBRANCH   6  18
TORSDOF 5
