REMARK  Name = ZINC16186508
REMARK                            x       y       z     vdW  Elec       q    Type
REMARK                         _______ _______ _______ _____ _____    ______ ____
ROOT
ATOM      1  C   LIG    1       -0.005  -2.798  -4.899  0.00  0.00    +0.141 A 
ATOM      2  N   LIG    1       -0.014  -2.216  -6.137  0.00  0.00    -0.337 N 
ATOM      3  C   LIG    1       -0.011  -3.240  -7.065  0.00  0.00    +0.087 A 
ATOM      4  C   LIG    1       -0.016  -3.288  -8.452  0.00  0.00    +0.051 A 
ATOM      5  C   LIG    1       -0.010  -4.531  -9.065  0.00  0.00    +0.061 A 
ATOM      6 CL   LIG    1       -0.016  -4.654 -10.796  0.00  0.00    -0.082 Cl
ATOM      7  C   LIG    1        0.001  -5.676  -8.282  0.00  0.00    +0.133 A 
ATOM      8  N   LIG    1        0.005  -5.609  -6.969  0.00  0.00    -0.233 NA
ATOM      9  C   LIG    1        0.000  -4.440  -6.330  0.00  0.00    +0.178 A 
ATOM     10  H   LIG    1       -0.020  -1.265  -6.328  0.00  0.00    +0.167 HD
ATOM     11  N   LIG    1        0.008  -4.104  -5.024  0.00  0.00    -0.208 NA
ENDROOT
BRANCH   1  15
ATOM     12  C   LIG    1        0.000  -0.694  -1.208  0.00  0.00    +0.029 A 
ATOM     13  C   LIG    1        0.013  -2.085  -1.214  0.00  0.00    +0.024 A 
ATOM     14  C   LIG    1        0.012  -2.770  -2.409  0.00  0.00    +0.013 A 
ATOM     15  C   LIG    1       -0.004  -2.067  -3.616  0.00  0.00    +0.017 A 
ATOM     16  C   LIG    1       -0.017  -0.670  -3.606  0.00  0.00    +0.013 A 
ATOM     17  C   LIG    1       -0.021   0.009  -2.408  0.00  0.00    +0.024 A 
BRANCH  12  19
ATOM     18  C   LIG    1       -0.018   1.461   0.010  0.00  0.00    +0.129 C 
ATOM     19  N   LIG    1        0.002  -0.004   0.002  0.00  0.00    -0.336 N 
ATOM     20  C   LIG    1        0.024  -0.743   1.267  0.00  0.00    +0.129 C 
ENDBRANCH  12  19
ENDBRANCH   1  15
TORSDOF 2
