REMARK  Name = ZINC68815599
REMARK                            x       y       z     vdW  Elec       q    Type
REMARK                         _______ _______ _______ _____ _____    ______ ____
ROOT
ATOM      1  S   LIG    1        1.897  -6.434  -3.235  0.00  0.00    -0.078 S 
ENDROOT
BRANCH   1   2
ATOM      2  C   LIG    1        2.677  -7.230  -4.600  0.00  0.00    +0.192 A 
ATOM      3  N   LIG    1        2.709  -8.555  -4.643  0.00  0.00    -0.227 NA
ATOM      4  C   LIG    1        3.286  -9.188  -5.653  0.00  0.00    +0.046 A 
ATOM      5  C   LIG    1        3.316 -10.694  -5.690  0.00  0.00    +0.066 C 
ATOM      6  C   LIG    1        3.860  -8.451  -6.673  0.00  0.00    +0.090 A 
ATOM      7  C   LIG    1        3.811  -7.060  -6.599  0.00  0.00    +0.216 A 
ATOM      8  N   LIG    1        3.212  -6.490  -5.560  0.00  0.00    -0.187 NA
BRANCH   7   9
ATOM      9  O   LIG    1        4.361  -6.300  -7.576  0.00  0.00    -0.492 OA
ATOM     10  H   LIG    1        4.782  -6.709  -8.307  0.00  0.00    +0.294 HD
ENDBRANCH   7   9
ENDBRANCH   1   2
BRANCH   1  11
ATOM     11  C   LIG    1        2.082  -4.665  -3.594  0.00  0.00    +0.152 C 
BRANCH  11  12
ATOM     12  C   LIG    1        1.450  -3.859  -2.489  0.00  0.00    +0.154 C 
ATOM     13  O   LIG    1        0.928  -4.420  -1.556  0.00  0.00    -0.296 OA
BRANCH  12  14
ATOM     14  C   LIG    1        1.468  -2.353  -2.550  0.00  0.00    +0.195 C 
BRANCH  14  15
ATOM     15  C   LIG    1        0.775  -1.794  -1.334  0.00  0.00    +0.314 C 
ATOM     16  O   LIG    1        0.314  -2.540  -0.504  0.00  0.00    -0.250 OA
BRANCH  15  17
ATOM     17  O   LIG    1        0.671  -0.465  -1.174  0.00  0.00    -0.465 OA
BRANCH  17  19
ATOM     18  C   LIG    1       -0.019   1.526   0.010  0.00  0.00    +0.048 C 
ATOM     19  C   LIG    1        0.002  -0.004   0.002  0.00  0.00    +0.229 C 
ENDBRANCH  17  19
ENDBRANCH  15  17
ENDBRANCH  14  15
ENDBRANCH  12  14
ENDBRANCH  11  12
ENDBRANCH   1  11
TORSDOF 8
