REMARK  Name = ZINC14488849
REMARK                            x       y       z     vdW  Elec       q    Type
REMARK                         _______ _______ _______ _____ _____    ______ ____
ROOT
ATOM      1  C   LIG    1       -1.292  -0.777   0.011  0.00  0.00    +0.051 C 
ATOM      2  C   LIG    1        0.002  -0.004   0.002  0.00  0.00    +0.035 A 
ATOM      3  C   LIG    1       -0.016   1.354   0.009  0.00  0.00    +0.022 A 
ATOM      4  C   LIG    1        1.265   2.064   0.001  0.00  0.00    +0.018 A 
ATOM      5  C   LIG    1        1.314   3.462   0.008  0.00  0.00    +0.015 A 
ATOM      6  C   LIG    1        2.521   4.098   0.000  0.00  0.00    +0.046 A 
ATOM      7  C   LIG    1        3.706   3.364  -0.014  0.00  0.00    +0.120 A 
ATOM      8  C   LIG    1        3.676   1.979  -0.022  0.00  0.00    +0.092 A 
ATOM      9  C   LIG    1        2.457   1.317  -0.014  0.00  0.00    +0.143 A 
ATOM     10  O   LIG    1        2.405  -0.032  -0.021  0.00  0.00    -0.422 OA
ATOM     11  C   LIG    1        1.235  -0.689  -0.013  0.00  0.00    +0.340 A 
ATOM     12  O   LIG    1        1.237  -1.907  -0.020  0.00  0.00    -0.245 OA
ENDROOT
BRANCH   7  13
ATOM     13  O   LIG    1        4.899   4.011  -0.022  0.00  0.00    -0.507 OA
ATOM     14  H   LIG    1        5.237   4.204  -0.907  0.00  0.00    +0.292 HD
ENDBRANCH   7  13
TORSDOF 1
