REMARK  Name = ZINC14946464
REMARK                            x       y       z     vdW  Elec       q    Type
REMARK                         _______ _______ _______ _____ _____    ______ ____
ROOT
ATOM      1  C   LIG    1        0.002  -0.004   0.002  0.00  0.00    +0.119 C 
ATOM      2  C   LIG    1        1.227  -0.678  -0.019  0.00  0.00    +0.032 C 
ATOM      3  C   LIG    1        1.272  -2.038  -0.022  0.00  0.00    +0.009 C 
ATOM      4  C   LIG    1        0.080  -2.776  -0.014  0.00  0.00    +0.023 C 
ATOM      5  C   LIG    1       -1.166  -2.105   0.002  0.00  0.00    +0.061 C 
ATOM      6  N   LIG    1       -2.373  -2.768   0.011  0.00  0.00    -0.310 NA
ATOM      7  H   LIG    1       -3.268  -2.265   0.025  0.00  0.00    +0.122 HD
ATOM      8  C   LIG    1       -2.314  -4.133   0.002  0.00  0.00    +0.061 C 
ATOM      9  C   LIG    1       -1.136  -4.857  -0.016  0.00  0.00    +0.051 C 
ATOM     10  C   LIG    1       -1.105  -6.363  -0.035  0.00  0.00    +0.121 C 
ATOM     11  C   LIG    1       -2.453  -6.934   0.399  0.00  0.00    +0.032 C 
ATOM     12  C   LIG    1       -3.552  -6.257  -0.429  0.00  0.00    +0.004 C 
ATOM     13  C   LIG    1       -3.666  -4.801   0.019  0.00  0.00    +0.019 C 
ATOM     14  C   LIG    1        0.086  -4.188  -0.022  0.00  0.00    +0.062 C 
ATOM     15  C   LIG    1       -1.185  -0.700   0.010  0.00  0.00    +0.050 C 
ENDROOT
BRANCH  14  16
ATOM     16  N   LIG    1        1.280  -4.893  -0.035  0.00  0.00    -0.327 NA
ATOM     17  H   LIG    1        2.124  -4.415  -0.039  0.00  0.00    +0.118 HD
ATOM     18  H   LIG    1        1.271  -5.862  -0.041  0.00  0.00    +0.118 HD
ENDBRANCH  14  16
BRANCH   1  20
ATOM     19  C   LIG    1        1.248   2.020   0.001  0.00  0.00    +0.194 C 
ATOM     20  O   LIG    1       -0.016   1.354   0.009  0.00  0.00    -0.380 OA
ENDBRANCH   1  20
BRANCH  10  21
ATOM     21  O   LIG    1       -0.807  -6.811  -1.359  0.00  0.00    -0.391 OA
ATOM     22  H   LIG    1       -0.753  -7.773  -1.445  0.00  0.00    +0.210 HD
ENDBRANCH  10  21
TORSDOF 3
