REMARK  Name = ZINC13819003
REMARK                            x       y       z     vdW  Elec       q    Type
REMARK                         _______ _______ _______ _____ _____    ______ ____
ROOT
ATOM      1  C   LIG    1        1.593  -6.671  -0.513  0.00  0.00    +0.203 A 
ATOM      2  N   LIG    1        0.339  -6.336  -0.429  0.00  0.00    -0.231 NA
ATOM      3  C   LIG    1        0.237  -4.988  -0.334  0.00  0.00    +0.147 A 
ATOM      4  C   LIG    1       -0.835  -4.085  -0.221  0.00  0.00    +0.149 A 
ATOM      5  N   LIG    1       -0.566  -2.787  -0.141  0.00  0.00    -0.196 NA
ATOM      6  C   LIG    1        0.684  -2.341  -0.177  0.00  0.00    +0.239 A 
ATOM      7  N   LIG    1        1.722  -3.156  -0.283  0.00  0.00    -0.193 NA
ATOM      8  C   LIG    1        1.543  -4.471  -0.362  0.00  0.00    +0.169 A 
ATOM      9  N   LIG    1        2.377  -5.555  -0.476  0.00  0.00    -0.285 N 
ENDROOT
BRANCH   9  10
ATOM     10  C1* LIG    1        3.840  -5.520  -0.546  0.00  0.00    +0.253 C 
ATOM     11  C2* LIG    1        4.453  -5.477   0.877  0.00  0.00    +0.195 C 
ATOM     12  C3* LIG    1        5.862  -6.074   0.641  0.00  0.00    +0.178 C 
ATOM     13  C4* LIG    1        5.722  -6.862  -0.676  0.00  0.00    +0.177 C 
ATOM     14  O4* LIG    1        4.352  -6.752  -1.097  0.00  0.00    -0.346 OA
BRANCH  11  15
ATOM     15  O2* LIG    1        4.542  -4.133   1.354  0.00  0.00    -0.385 OA
ATOM     16  H2* LIG    1        4.920  -4.055   2.240  0.00  0.00    +0.210 HD
ENDBRANCH  11  15
BRANCH  12  17
ATOM     17  O3* LIG    1        6.829  -5.032   0.500  0.00  0.00    -0.386 OA
ATOM     18  H3* LIG    1        7.730  -5.350   0.350  0.00  0.00    +0.210 HD
ENDBRANCH  12  17
BRANCH  13  19
ATOM     19  C5* LIG    1        6.078  -8.332  -0.443  0.00  0.00    +0.190 C 
BRANCH  19  20
ATOM     20  O5* LIG    1        6.059  -9.030  -1.690  0.00  0.00    -0.392 OA
ATOM     21  H5* LIG    1        6.276  -9.970  -1.618  0.00  0.00    +0.210 HD
ENDBRANCH  19  20
ENDBRANCH  13  19
ENDBRANCH   9  10
BRANCH   4  22
ATOM     22  N   LIG    1       -2.141  -4.539  -0.188  0.00  0.00    -0.341 N 
ATOM     23  H   LIG    1       -2.873  -3.907  -0.110  0.00  0.00    +0.144 HD
ATOM     24  H   LIG    1       -2.342  -5.038  -1.031  0.00  0.00    +0.144 HD
ENDBRANCH   4  22
BRANCH   6  25
ATOM     25  N   LIG    1        0.911  -0.977  -0.096  0.00  0.00    -0.205 N 
ATOM     26  H   LIG    1        1.818  -0.634  -0.117  0.00  0.00    +0.177 HD
BRANCH  25  27
ATOM     27  N   LIG    1       -0.170  -0.092   0.016  0.00  0.00    -0.192 NA
ATOM     28  C   LIG    1        0.032   1.171  -0.011  0.00  0.00    +0.106 C 
BRANCH  28  29
ATOM     29  C   LIG    1        1.439   1.710  -0.044  0.00  0.00    +0.032 C 
ATOM     30  C   LIG    1        1.722   2.478   1.248  0.00  0.00    +0.009 C 
ATOM     31  C   LIG    1        3.150   3.024   1.215  0.00  0.00    +0.001 C 
ATOM     32  C   LIG    1        3.309   3.964   0.018  0.00  0.00    +0.000 C 
ATOM     33  C   LIG    1        3.027   3.195  -1.275  0.00  0.00    +0.001 C 
ATOM     34  C   LIG    1        1.598   2.649  -1.241  0.00  0.00    +0.009 C 
ENDBRANCH  28  29
ENDBRANCH  25  27
ENDBRANCH   6  25
TORSDOF 9
