REMARK  Name = ZINC40861535
REMARK                            x       y       z     vdW  Elec       q    Type
REMARK                         _______ _______ _______ _____ _____    ______ ____
ROOT
ATOM      1  C   LIG    1       -0.179   1.459   0.014  0.00  0.00    +0.132 C 
ATOM      2  N   LIG    1       -0.061  -0.002   0.004  0.00  0.00    -0.299 N 
ATOM      3  C   LIG    1       -0.102  -0.673  -1.163  0.00  0.00    +0.263 C 
ATOM      4  O   LIG    1       -0.119  -1.889  -1.165  0.00  0.00    -0.268 OA
ENDROOT
BRANCH   3   5
ATOM      5  C   LIG    1       -0.124   0.065  -2.435  0.00  0.00    +0.103 A 
ATOM      6  C   LIG    1       -0.326  -0.485  -3.661  0.00  0.00    +0.040 A 
ATOM      7  C   LIG    1       -0.273   0.559  -4.616  0.00  0.00    +0.000 A 
ATOM      8  C   LIG    1       -0.407   0.597  -6.010  0.00  0.00    +0.010 A 
ATOM      9  C   LIG    1       -0.303   1.786  -6.670  0.00  0.00    +0.001 A 
ATOM     10  C   LIG    1       -0.063   2.964  -5.974  0.00  0.00    +0.002 A 
ATOM     11  C   LIG    1        0.073   2.953  -4.604  0.00  0.00    +0.026 A 
ATOM     12  C   LIG    1       -0.030   1.752  -3.907  0.00  0.00    +0.047 A 
ATOM     13  N   LIG    1        0.051   1.428  -2.573  0.00  0.00    -0.351 N 
ATOM     14  H   LIG    1        0.209   2.054  -1.849  0.00  0.00    +0.166 HD
ENDBRANCH   3   5
BRANCH   2  15
ATOM     15  C   LIG    1        0.099  -0.732   1.264  0.00  0.00    +0.108 C 
BRANCH  15  16
ATOM     16  C   LIG    1       -1.278  -1.102   1.819  0.00  0.00    +0.024 C 
BRANCH  16  17
ATOM     17  C   LIG    1       -1.110  -1.865   3.134  0.00  0.00    +0.036 C 
BRANCH  17  18
ATOM     18  C   LIG    1       -2.467  -2.229   3.680  0.00  0.00    -0.047 A 
ATOM     19  C   LIG    1       -3.126  -1.361   4.530  0.00  0.00    +0.003 A 
ATOM     20  C   LIG    1       -4.370  -1.695   5.030  0.00  0.00    +0.000 A 
ATOM     21  C   LIG    1       -4.955  -2.898   4.681  0.00  0.00    +0.000 A 
ATOM     22  C   LIG    1       -4.296  -3.766   3.831  0.00  0.00    +0.000 A 
ATOM     23  C   LIG    1       -3.054  -3.430   3.327  0.00  0.00    +0.003 A 
ENDBRANCH  17  18
ENDBRANCH  16  17
ENDBRANCH  15  16
ENDBRANCH   2  15
TORSDOF 5
