REMARK  Name = ZINC28371962
REMARK                            x       y       z     vdW  Elec       q    Type
REMARK                         _______ _______ _______ _____ _____    ______ ____
ROOT
ATOM      1  C   LIG    1        2.264   0.702  -0.435  0.00  0.00    +0.044 C 
ATOM      2  C   LIG    1        1.334   1.859  -0.001  0.00  0.00    +0.237 C 
ATOM      3  N   LIG    1       -0.015   1.283   0.009  0.00  0.00    -0.279 N 
ATOM      4  H   LIG    1       -0.975   1.820   0.021  0.00  0.00    +0.303 HD
ATOM      5  C   LIG    1        0.002  -0.004   0.002  0.00  0.00    +0.239 C 
ATOM      6  C   LIG    1        1.421  -0.527  -0.017  0.00  0.00    +0.103 C 
ATOM      7  C   LIG    1        1.833  -1.013   1.374  0.00  0.00    +0.020 C 
ENDROOT
BRANCH   5   8
ATOM      8  N   LIG    1       -1.116  -0.795   0.011  0.00  0.00    -0.254 N 
ATOM      9  H   LIG    1       -2.115  -0.335   0.025  0.00  0.00    +0.288 HD
ATOM     10  H   LIG    1       -1.015  -1.891   0.004  0.00  0.00    +0.288 HD
ENDBRANCH   5   8
BRANCH   1  12
ATOM     11  C   LIG    1        4.445   1.899  -0.203  0.00  0.00    +0.004 C 
ATOM     12  C   LIG    1        3.591   0.745   0.326  0.00  0.00    +0.005 C 
ENDBRANCH   1  12
TORSDOF 2
