REMARK  Name = ZINC49019848
REMARK                            x       y       z     vdW  Elec       q    Type
REMARK                         _______ _______ _______ _____ _____    ______ ____
ROOT
ATOM      1  C   LIG    1        0.657  -2.014   1.298  0.00  0.00    -0.049 A 
ATOM      2  C   LIG    1       -0.397  -2.621   1.956  0.00  0.00    +0.004 A 
ATOM      3  C   LIG    1       -0.479  -3.999   2.010  0.00  0.00    +0.015 A 
ATOM      4  C   LIG    1        0.500  -4.775   1.401  0.00  0.00    +0.008 A 
ATOM      5  C   LIG    1        1.558  -4.162   0.740  0.00  0.00    +0.015 A 
ATOM      6  C   LIG    1        1.630  -2.784   0.686  0.00  0.00    +0.004 A 
ENDROOT
BRANCH   1   7
ATOM      7  C   LIG    1        0.742  -0.511   1.242  0.00  0.00    +0.018 C 
BRANCH   7   9
ATOM      8  C   LIG    1       -0.019   1.526   0.010  0.00  0.00    -0.014 C 
ATOM      9  C   LIG    1        0.002  -0.004   0.002  0.00  0.00    -0.074 C 
BRANCH   9  10
ATOM     10  N   LIG    1        0.690  -0.478  -1.207  0.00  0.00    +0.380 N 
ATOM     11  H   LIG    1        0.202  -0.144  -2.024  0.00  0.00    -0.090 HD
ATOM     12  H   LIG    1        0.703  -1.487  -1.212  0.00  0.00    -0.090 HD
ATOM     13  H   LIG    1        1.636  -0.129  -1.214  0.00  0.00    -0.090 HD
ENDBRANCH   9  10
ENDBRANCH   7   9
ENDBRANCH   1   7
BRANCH   4  14
ATOM     14  S   LIG    1        0.401  -6.533   1.468  0.00  0.00    -0.121 S 
BRANCH  14  15
ATOM     15  C   LIG    1        1.866  -7.090   0.555  0.00  0.00    +0.109 C 
BRANCH  15  16
ATOM     16  C   LIG    1        1.903  -8.597   0.536  0.00  0.00    -0.037 A 
ATOM     17  C   LIG    1        2.549  -9.285   1.546  0.00  0.00    +0.004 A 
ATOM     18  C   LIG    1        2.584 -10.667   1.529  0.00  0.00    +0.000 A 
ATOM     19  C   LIG    1        1.971 -11.360   0.502  0.00  0.00    +0.000 A 
ATOM     20  C   LIG    1        1.325 -10.672  -0.508  0.00  0.00    +0.000 A 
ATOM     21  C   LIG    1        1.287  -9.290  -0.488  0.00  0.00    +0.004 A 
ENDBRANCH  15  16
ENDBRANCH  14  15
ENDBRANCH   4  14
TORSDOF 6
