REMARK  Name = ZINC36025433
REMARK                            x       y       z     vdW  Elec       q    Type
REMARK                         _______ _______ _______ _____ _____    ______ ____
ROOT
ATOM      1  C   LIG    1        0.436  -1.920  -1.238  0.00  0.00    +0.169 C 
ATOM      2  C   LIG    1        1.456  -2.673  -0.373  0.00  0.00    +0.067 C 
ATOM      3  C   LIG    1        2.811  -2.530  -1.019  0.00  0.00    -0.015 A 
ATOM      4  C   LIG    1        4.123  -2.777  -0.463  0.00  0.00    +0.003 A 
ATOM      5  C   LIG    1        4.556  -3.210   0.794  0.00  0.00    +0.010 A 
ATOM      6  C   LIG    1        5.911  -3.336   0.974  0.00  0.00    +0.001 A 
ATOM      7  C   LIG    1        6.818  -3.051  -0.034  0.00  0.00    +0.002 A 
ATOM      8  C   LIG    1        6.417  -2.621  -1.287  0.00  0.00    +0.026 A 
ATOM      9  C   LIG    1        5.047  -2.483  -1.499  0.00  0.00    +0.047 A 
ATOM     10  N   LIG    1        4.325  -2.089  -2.590  0.00  0.00    -0.356 N 
ATOM     11  H   LIG    1        4.703  -1.828  -3.444  0.00  0.00    +0.166 HD
ATOM     12  C   LIG    1        2.989  -2.120  -2.296  0.00  0.00    +0.042 A 
ATOM     13  C   LIG    1        1.843  -1.765  -3.214  0.00  0.00    +0.133 C 
ATOM     14  N   LIG    1        0.602  -2.314  -2.644  0.00  0.00    -0.292 NA
ATOM     15  H   LIG    1        0.572  -3.318  -2.745  0.00  0.00    +0.124 HD
ENDROOT
BRANCH  13  16
ATOM     16  C   LIG    1        2.085  -2.358  -4.578  0.00  0.00    -0.011 A 
ATOM     17  C   LIG    1        1.575  -3.604  -4.891  0.00  0.00    +0.006 A 
ATOM     18  C   LIG    1        1.796  -4.147  -6.143  0.00  0.00    +0.000 A 
ATOM     19  C   LIG    1        2.528  -3.445  -7.082  0.00  0.00    +0.001 A 
ATOM     20  C   LIG    1        3.039  -2.199  -6.770  0.00  0.00    +0.015 A 
ATOM     21  C   LIG    1        2.813  -1.653  -5.519  0.00  0.00    +0.023 A 
ATOM     22 BR   LIG    1        3.506   0.055  -5.094  0.00  0.00    -0.050 Br
ENDBRANCH  13  16
BRANCH   1  23
ATOM     23  C   LIG    1        0.660  -0.436  -1.103  0.00  0.00    +0.324 C 
ATOM     24  O   LIG    1        1.030   0.025  -0.049  0.00  0.00    -0.249 OA
BRANCH  23  26
ATOM     25  C   LIG    1        0.681   1.769  -1.952  0.00  0.00    +0.280 C 
ATOM     26  O   LIG    1        0.449   0.373  -2.152  0.00  0.00    -0.467 OA
ENDBRANCH  23  26
ENDBRANCH   1  23
TORSDOF 3
