REMARK  Name = ZINC00007455
REMARK                            x       y       z     vdW  Elec       q    Type
REMARK                         _______ _______ _______ _____ _____    ______ ____
ROOT
ATOM      1  C   LIG    1        2.875  -1.479  -5.057  0.00  0.00    +0.011 C 
ATOM      2  C   LIG    1        3.786  -0.721  -5.728  0.00  0.00    +0.073 C 
ATOM      3  C   LIG    1        4.233  -1.469  -6.909  0.00  0.00    +0.340 C 
ATOM      4  O   LIG    1        3.609  -2.659  -6.961  0.00  0.00    -0.456 OA
ATOM      5  O   LIG    1        5.046  -1.072  -7.720  0.00  0.00    -0.245 OA
ATOM      6  C   LIG    1        2.735  -2.767  -5.834  0.00  0.00    +0.269 C 
ENDROOT
BRANCH   1  10
ATOM      7  C   LIG    1        0.845  -0.437  -1.483  0.00  0.00    +0.088 A 
ATOM      8  C   LIG    1        0.130  -0.612  -2.655  0.00  0.00    +0.027 A 
ATOM      9  C   LIG    1        0.782  -0.950  -3.821  0.00  0.00    +0.010 A 
ATOM     10  C   LIG    1        2.172  -1.118  -3.818  0.00  0.00    -0.018 A 
ATOM     11  C   LIG    1        2.888  -0.939  -2.629  0.00  0.00    +0.010 A 
ATOM     12  C   LIG    1        2.221  -0.596  -1.473  0.00  0.00    +0.027 A 
BRANCH   7  14
ATOM     13  C   LIG    1       -0.022   1.810   0.012  0.00  0.00    +0.200 C 
ATOM     14  S   LIG    1        0.002  -0.004   0.002  0.00  0.00    -0.006 S 
ATOM     15  O   LIG    1       -1.315  -0.510  -0.168  0.00  0.00    -0.170 OA
ATOM     16  O   LIG    1        0.835  -0.488   1.046  0.00  0.00    -0.170 OA
ENDBRANCH   7  14
ENDBRANCH   1  10
BRANCH   2  17
ATOM     17  C   LIG    1        4.249   0.629  -5.333  0.00  0.00    -0.011 A 
ATOM     18  C   LIG    1        3.354   1.700  -5.322  0.00  0.00    +0.009 A 
ATOM     19  C   LIG    1        3.791   2.956  -4.953  0.00  0.00    +0.001 A 
ATOM     20  C   LIG    1        5.113   3.155  -4.596  0.00  0.00    +0.000 A 
ATOM     21  C   LIG    1        6.004   2.097  -4.606  0.00  0.00    +0.001 A 
ATOM     22  C   LIG    1        5.578   0.835  -4.966  0.00  0.00    +0.009 A 
ENDBRANCH   2  17
TORSDOF 3
