REMARK  Name = ZINC64539753
REMARK                            x       y       z     vdW  Elec       q    Type
REMARK                         _______ _______ _______ _____ _____    ______ ____
ROOT
ATOM      1  C   LIG    1        3.667   2.202  -0.237  0.00  0.00    +0.076 A 
ATOM      2  C   LIG    1        3.655   3.591  -0.132  0.00  0.00    +0.072 A 
ATOM      3  C   LIG    1        4.866   4.246   0.084  0.00  0.00    +0.127 A 
ATOM      4  N   LIG    1        5.981   3.526   0.182  0.00  0.00    -0.221 NA
ATOM      5  C   LIG    1        5.951   2.213   0.077  0.00  0.00    +0.223 A 
ATOM      6  N   LIG    1        4.827   1.556  -0.122  0.00  0.00    -0.235 NA
ENDROOT
BRANCH   1   9
ATOM      7  C   LIG    1        0.041   1.448  -0.905  0.00  0.00    +0.001 A 
ATOM      8  C   LIG    1        1.216   2.143  -0.690  0.00  0.00    +0.010 A 
ATOM      9  C   LIG    1        2.407   1.454  -0.467  0.00  0.00    +0.001 A 
ATOM     10  C   LIG    1        2.413   0.062  -0.461  0.00  0.00    +0.023 A 
ATOM     11  C   LIG    1        1.225  -0.634  -0.679  0.00  0.00    +0.037 A 
ATOM     12  C   LIG    1        0.038   0.068  -0.901  0.00  0.00    +0.013 A 
BRANCH  11  13
ATOM     13  C   LIG    1        1.222  -2.113  -0.675  0.00  0.00    +0.244 C 
ATOM     14  N   LIG    1        0.073  -2.784  -0.885  0.00  0.00    -0.309 N 
ATOM     15  H   LIG    1       -0.752  -2.298  -1.039  0.00  0.00    +0.149 HD
ATOM     16  O   LIG    1        2.256  -2.722  -0.482  0.00  0.00    -0.270 OA
BRANCH  14  17
ATOM     17  C   LIG    1        0.070  -4.250  -0.881  0.00  0.00    +0.132 C 
BRANCH  17  18
ATOM     18  C   LIG    1       -1.350  -4.757  -1.142  0.00  0.00    +0.174 C 
BRANCH  18  19
ATOM     19  O   LIG    1       -1.756  -4.382  -2.460  0.00  0.00    -0.393 OA
ATOM     20  H   LIG    1       -2.648  -4.671  -2.694  0.00  0.00    +0.209 HD
ENDBRANCH  18  19
ENDBRANCH  17  18
ENDBRANCH  14  17
ENDBRANCH  11  13
ENDBRANCH   1   9
BRANCH   3  21
ATOM     21  N   LIG    1        4.909   5.628   0.195  0.00  0.00    -0.299 N 
ATOM     22  H   LIG    1        4.085   6.139   0.211  0.00  0.00    +0.154 HD
BRANCH  21  23
ATOM     23  C   LIG    1        6.142   6.285   0.286  0.00  0.00    +0.033 A 
ATOM     24  C   LIG    1        7.239   5.804  -0.417  0.00  0.00    +0.027 A 
ATOM     25  C   LIG    1        8.454   6.453  -0.327  0.00  0.00    +0.048 A 
ATOM     26  C   LIG    1        8.580   7.585   0.465  0.00  0.00    +0.130 A 
ATOM     27  C   LIG    1        7.485   8.066   1.167  0.00  0.00    +0.048 A 
ATOM     28  C   LIG    1        6.267   7.422   1.074  0.00  0.00    +0.027 A 
BRANCH  26  29
ATOM     29  O   LIG    1        9.778   8.223   0.553  0.00  0.00    -0.406 OA
BRANCH  29  30
ATOM     30  C   LIG    1        9.835   9.382   1.387  0.00  0.00    +0.575 C 
ATOM     31  F   LIG    1        8.932  10.341   0.915  0.00  0.00    -0.133 F 
ATOM     32  F   LIG    1       11.131   9.910   1.363  0.00  0.00    -0.133 F 
ATOM     33  F   LIG    1        9.499   9.030   2.699  0.00  0.00    -0.133 F 
ENDBRANCH  29  30
ENDBRANCH  26  29
ENDBRANCH  21  23
ENDBRANCH   3  21
TORSDOF 9
