REMARK  Name = ZINC17921108
REMARK                            x       y       z     vdW  Elec       q    Type
REMARK                         _______ _______ _______ _____ _____    ______ ____
ROOT
ATOM      1  C   LIG    1        1.852  -6.479   2.812  0.00  0.00    +0.289 C 
ATOM      2  C   LIG    1        1.977  -7.979   2.886  0.00  0.00    +0.145 C 
ATOM      3  N   LIG    1        2.467  -5.730   3.681  0.00  0.00    -0.047 NA
ENDROOT
BRANCH   3   4
ATOM      4  C   LIG    1        3.330  -6.296   4.586  0.00  0.00    +0.176 A 
ATOM      5  C   LIG    1        4.411  -7.057   4.140  0.00  0.00    +0.059 A 
ATOM      6  C   LIG    1        5.276  -7.624   5.053  0.00  0.00    +0.050 A 
ATOM      7  C   LIG    1        5.071  -7.439   6.413  0.00  0.00    +0.121 A 
ATOM      8  C   LIG    1        3.996  -6.684   6.861  0.00  0.00    +0.050 A 
ATOM      9  C   LIG    1        3.131  -6.108   5.954  0.00  0.00    +0.059 A 
BRANCH   7  10
ATOM     10  O   LIG    1        5.925  -8.000   7.310  0.00  0.00    -0.492 OA
BRANCH  10  11
ATOM     11  C   LIG    1        5.656  -7.770   8.694  0.00  0.00    +0.225 C 
ATOM     12  C   LIG    1        6.716  -8.474   9.544  0.00  0.00    +0.048 C 
ENDBRANCH  10  11
ENDBRANCH   7  10
ENDBRANCH   3   4
BRANCH   1  13
ATOM     13  N   LIG    1        1.090  -5.904   1.829  0.00  0.00    -0.204 N 
ATOM     14  H   LIG    1        0.699  -6.455   1.133  0.00  0.00    +0.298 HD
BRANCH  13  18
ATOM     15  C   LIG    1        0.451  -1.784   1.831  0.00  0.00    +0.121 A 
ATOM     16  C   LIG    1        0.607  -2.461   0.630  0.00  0.00    +0.049 A 
ATOM     17  C   LIG    1        0.819  -3.825   0.629  0.00  0.00    +0.052 A 
ATOM     18  C   LIG    1        0.875  -4.520   1.830  0.00  0.00    +0.119 A 
ATOM     19  C   LIG    1        0.719  -3.842   3.031  0.00  0.00    +0.052 A 
ATOM     20  C   LIG    1        0.512  -2.477   3.031  0.00  0.00    +0.049 A 
BRANCH  15  21
ATOM     21  O   LIG    1        0.242  -0.441   1.831  0.00  0.00    -0.492 OA
BRANCH  21  23
ATOM     22  C   LIG    1       -0.050   1.706   0.760  0.00  0.00    +0.048 C 
ATOM     23  C   LIG    1        0.190   0.208   0.559  0.00  0.00    +0.225 C 
ENDBRANCH  21  23
ENDBRANCH  15  21
ENDBRANCH  13  18
ENDBRANCH   1  13
TORSDOF 7
