REMARK  Name = ZINC66251571
REMARK                            x       y       z     vdW  Elec       q    Type
REMARK                         _______ _______ _______ _____ _____    ______ ____
ROOT
ATOM      1  C   LIG    1       -0.644  -1.326   2.614  0.00  0.00    +0.032 A 
ATOM      2  C   LIG    1        0.471  -1.652   3.288  0.00  0.00    +0.085 A 
ATOM      3  N   LIG    1        1.511  -1.819   2.410  0.00  0.00    -0.346 N 
ATOM      4  C   LIG    1        1.083  -1.601   1.130  0.00  0.00    +0.143 A 
ATOM      5  N   LIG    1        1.671  -1.632  -0.065  0.00  0.00    -0.218 NA
ATOM      6  C   LIG    1        0.986  -1.371  -1.158  0.00  0.00    +0.225 A 
ATOM      7  N   LIG    1       -0.300  -1.068  -1.139  0.00  0.00    -0.220 NA
ATOM      8  C   LIG    1       -0.974  -1.012   0.006  0.00  0.00    +0.134 A 
ATOM      9  H   LIG    1        2.418  -2.056   2.661  0.00  0.00    +0.167 HD
ATOM     10  C   LIG    1       -0.286  -1.283   1.198  0.00  0.00    +0.059 A 
ENDROOT
BRANCH   8  11
ATOM     11  N   LIG    1       -2.321  -0.695   0.021  0.00  0.00    -0.315 N 
ATOM     12  C   LIG    1       -2.759   0.703   0.137  0.00  0.00    +0.106 C 
ATOM     13  C   LIG    1       -3.717   1.017  -1.016  0.00  0.00    +0.019 C 
ATOM     14  C   LIG    1       -4.859  -0.003  -1.018  0.00  0.00    +0.003 C 
ATOM     15  C   LIG    1       -4.290  -1.407  -1.230  0.00  0.00    +0.019 C 
ATOM     16  C   LIG    1       -3.339  -1.748  -0.085  0.00  0.00    +0.106 C 
ENDBRANCH   8  11
TORSDOF 1
