REMARK  Name = ZINC58631551
REMARK                            x       y       z     vdW  Elec       q    Type
REMARK                         _______ _______ _______ _____ _____    ______ ____
ROOT
ATOM      1  C   LIG    1        0.030  -3.090  -2.925  0.00  0.00    +0.148 A 
ATOM      2  C   LIG    1        0.035  -4.212  -3.758  0.00  0.00    +0.099 A 
ATOM      3 CL   LIG    1        0.054  -5.814  -3.091  0.00  0.00    -0.078 Cl
ATOM      4  C   LIG    1        0.025  -4.016  -5.126  0.00  0.00    +0.137 A 
ATOM      5  N   LIG    1        0.011  -2.780  -5.604  0.00  0.00    -0.221 NA
ATOM      6  C   LIG    1        0.006  -1.735  -4.790  0.00  0.00    +0.217 A 
ATOM      7  N   LIG    1        0.010  -1.879  -3.473  0.00  0.00    -0.198 NA
ENDROOT
BRANCH   1   8
ATOM      8  N   LIG    1        0.039  -3.238  -1.546  0.00  0.00    -0.283 N 
ATOM      9  H   LIG    1        0.054  -4.125  -1.153  0.00  0.00    +0.155 HD
BRANCH   8  13
ATOM     10  C   LIG    1       -0.018   1.503   0.010  0.00  0.00    +0.067 C 
ATOM     11  C   LIG    1        0.002  -0.004   0.002  0.00  0.00    +0.062 A 
ATOM     12  C   LIG    1        0.008  -0.815  -1.136  0.00  0.00    +0.068 A 
ATOM     13  C   LIG    1        0.028  -2.112  -0.724  0.00  0.00    +0.120 A 
ATOM     14  N   LIG    1        0.035  -2.109   0.634  0.00  0.00    -0.264 N 
ATOM     15  H   LIG    1        0.049  -2.891   1.207  0.00  0.00    +0.190 HD
ATOM     16  N   LIG    1        0.023  -0.775   1.059  0.00  0.00    -0.178 NA
ENDBRANCH   8  13
ENDBRANCH   1   8
BRANCH   6  17
ATOM     17  N   LIG    1       -0.008  -0.460  -5.329  0.00  0.00    -0.304 N 
ATOM     18  H   LIG    1       -0.011   0.314  -4.744  0.00  0.00    +0.150 HD
BRANCH  17  19
ATOM     19  C   LIG    1       -0.018  -0.279  -6.782  0.00  0.00    +0.138 C 
ATOM     20  C   LIG    1       -1.457  -0.353  -7.296  0.00  0.00    +0.036 C 
BRANCH  19  21
ATOM     21  C   LIG    1        0.569   1.066  -7.125  0.00  0.00    +0.149 A 
ATOM     22  N   LIG    1        0.199   2.123  -6.429  0.00  0.00    -0.236 NA
ATOM     23  C   LIG    1        0.693   3.320  -6.700  0.00  0.00    +0.152 A 
ATOM     24  C   LIG    1        1.611   3.454  -7.733  0.00  0.00    +0.159 A 
ATOM     25  F   LIG    1        2.136   4.659  -8.040  0.00  0.00    -0.202 F 
ATOM     26  C   LIG    1        1.974   2.317  -8.443  0.00  0.00    +0.152 A 
ATOM     27  N   LIG    1        1.441   1.153  -8.109  0.00  0.00    -0.236 NA
ENDBRANCH  19  21
ENDBRANCH  17  19
ENDBRANCH   6  17
TORSDOF 5
