REMARK  Name = ZINC26574710
REMARK                            x       y       z     vdW  Elec       q    Type
REMARK                         _______ _______ _______ _____ _____    ______ ____
ROOT
ATOM      1  C   LIG    1       -0.019   1.526   0.010  0.00  0.00    +0.008 C 
ATOM      2  C   LIG    1        0.002  -0.004   0.002  0.00  0.00    -0.000 C 
ATOM      3  C   LIG    1        0.742  -0.512   1.242  0.00  0.00    -0.077 C 
ATOM      4  N   LIG    1        0.744  -1.980   1.245  0.00  0.00    +0.381 N 
ATOM      5  H   LIG    1        1.303  -2.344   2.119  0.00  0.00    -0.086 HD
ATOM      6  H   LIG    1        1.222  -2.348   0.325  0.00  0.00    -0.086 HD
ATOM      7  C   LIG    1       -0.623  -2.513   1.308  0.00  0.00    -0.048 C 
ATOM      8  C   LIG    1       -1.404  -2.065   0.070  0.00  0.00    +0.126 C 
ATOM      9  C   LIG    1       -1.434  -0.535   0.018  0.00  0.00    +0.142 C 
ENDROOT
BRANCH   8  10
ATOM     10  O   LIG    1       -0.766  -2.570  -1.105  0.00  0.00    -0.391 OA
ATOM     11  H   LIG    1       -1.187  -2.349  -2.097  0.00  0.00    +0.210 HD
ENDBRANCH   8  10
BRANCH   9  12
ATOM     12  O   LIG    1       -2.113  -0.111  -1.166  0.00  0.00    -0.389 OA
ATOM     13  H   LIG    1       -3.162  -0.398  -1.331  0.00  0.00    +0.210 HD
ENDBRANCH   9  12
TORSDOF 2
