REMARK  Name = ZINC21991227
REMARK                            x       y       z     vdW  Elec       q    Type
REMARK                         _______ _______ _______ _____ _____    ______ ____
ROOT
ATOM      1  C   LIG    1       -0.337   1.166   0.656  0.00  0.00    +0.005 C 
ATOM      2  C   LIG    1       -0.399   0.216  -0.542  0.00  0.00    +0.021 C 
ATOM      3  C   LIG    1       -1.111   1.569  -0.602  0.00  0.00    +0.055 C 
ENDROOT
BRANCH   3   4
ATOM      4  C   LIG    1       -0.506   2.635  -1.479  0.00  0.00    +0.309 C 
ATOM      5  O   LIG    1       -0.261   3.726  -1.021  0.00  0.00    -0.250 OA
BRANCH   4   6
ATOM      6  O   LIG    1       -0.239   2.373  -2.768  0.00  0.00    -0.480 OA
ATOM      7  H   LIG    1       -0.429   1.526  -3.123  0.00  0.00    +0.295 HD
ENDBRANCH   4   6
ENDBRANCH   3   4
BRANCH   1   8
ATOM      8  C   LIG    1        0.990   1.876   0.927  0.00  0.00    +0.007 C 
BRANCH   8  10
ATOM      9  C   LIG    1        1.884  -0.062   2.225  0.00  0.00    +0.007 C 
ATOM     10  C   LIG    1        1.542   1.428   2.282  0.00  0.00    -0.017 C 
ATOM     11  C   LIG    1        2.803   2.229   2.610  0.00  0.00    +0.007 C 
ENDBRANCH   8  10
ENDBRANCH   1   8
BRANCH   3  12
ATOM     12  C   LIG    1       -2.639   1.567  -0.524  0.00  0.00    -0.068 C 
BRANCH  12  13
ATOM     13  N   LIG    1       -3.189   0.899  -1.711  0.00  0.00    +0.379 N 
ATOM     14  H   LIG    1       -2.869   1.437  -2.616  0.00  0.00    -0.090 HD
ATOM     15  H   LIG    1       -2.823  -0.137  -1.751  0.00  0.00    -0.090 HD
ATOM     16  H   LIG    1       -4.287   0.898  -1.655  0.00  0.00    -0.090 HD
ENDBRANCH  12  13
ENDBRANCH   3  12
TORSDOF 6
