REMARK  Name = ZINC22454243
REMARK                            x       y       z     vdW  Elec       q    Type
REMARK                         _______ _______ _______ _____ _____    ______ ____
ROOT
ATOM      1  C   LIG    1        4.039  -1.248  -6.623  0.00  0.00    +0.118 C 
ENDROOT
BRANCH   1   2
ATOM      2  N   LIG    1        3.604  -2.241  -7.613  0.00  0.00    -0.286 NA
ATOM      3  C   LIG    1        4.209  -1.976  -8.926  0.00  0.00    +0.104 C 
ATOM      4  C   LIG    1        3.670  -2.982  -9.946  0.00  0.00    +0.068 C 
ATOM      5  C   LIG    1        4.327  -2.734 -11.305  0.00  0.00    +0.025 C 
ATOM      6  N   LIG    1        3.977  -4.346  -9.494  0.00  0.00    -0.293 NA
ATOM      7  C   LIG    1        3.372  -4.611  -8.181  0.00  0.00    +0.103 C 
ATOM      8  C   LIG    1        3.911  -3.605  -7.161  0.00  0.00    +0.069 C 
ATOM      9  C   LIG    1        3.253  -3.853  -5.802  0.00  0.00    +0.025 C 
BRANCH   6  10
ATOM     10  C   LIG    1        3.542  -5.340 -10.484  0.00  0.00    +0.111 C 
BRANCH  10  11
ATOM     11  C   LIG    1        4.086  -6.694 -10.110  0.00  0.00    -0.019 C 
ATOM     12  C   LIG    1        3.272  -7.710  -9.966  0.00  0.00    +0.005 C 
ENDBRANCH  10  11
ENDBRANCH   6  10
ENDBRANCH   1   2
BRANCH   1  16
ATOM     13  C   LIG    1        1.234  -1.125  -3.398  0.00  0.00    +0.037 A 
ATOM     14  C   LIG    1        2.602  -1.022  -3.141  0.00  0.00    +0.013 A 
ATOM     15  C   LIG    1        3.502  -1.063  -4.186  0.00  0.00    +0.006 A 
ATOM     16  C   LIG    1        3.051  -1.204  -5.486  0.00  0.00    -0.026 A 
ATOM     17  C   LIG    1        1.696  -1.307  -5.748  0.00  0.00    +0.006 A 
ATOM     18  C   LIG    1        0.786  -1.274  -4.712  0.00  0.00    +0.013 A 
BRANCH  13  20
ATOM     19  N   LIG    1        0.443  -0.217  -1.266  0.00  0.00    -0.298 N 
ATOM     20  C   LIG    1        0.264  -1.083  -2.283  0.00  0.00    +0.247 C 
ATOM     21  O   LIG    1       -0.696  -1.829  -2.284  0.00  0.00    -0.270 OA
BRANCH  19  23
ATOM     22  C   LIG    1       -1.636   0.740  -0.405  0.00  0.00    +0.024 C 
ATOM     23  C   LIG    1       -0.479  -0.222  -0.128  0.00  0.00    +0.104 C 
ENDBRANCH  19  23
BRANCH  19  24
ATOM     24  C   LIG    1        1.561   0.729  -1.298  0.00  0.00    +0.104 C 
ATOM     25  C   LIG    1        2.658   0.255  -0.342  0.00  0.00    +0.024 C 
ENDBRANCH  19  24
ENDBRANCH  13  20
ENDBRANCH   1  16
BRANCH   1  26
ATOM     26  C   LIG    1        4.117   0.110  -7.273  0.00  0.00    -0.022 A 
ATOM     27  C   LIG    1        3.064   0.566  -8.046  0.00  0.00    +0.006 A 
ATOM     28  C   LIG    1        3.132   1.811  -8.643  0.00  0.00    +0.004 A 
ATOM     29  C   LIG    1        4.252   2.602  -8.471  0.00  0.00    +0.045 A 
ATOM     30  C   LIG    1        5.309   2.146  -7.696  0.00  0.00    +0.117 A 
ATOM     31  C   LIG    1        5.236   0.899  -7.092  0.00  0.00    +0.051 A 
BRANCH  30  32
ATOM     32  O   LIG    1        6.411   2.922  -7.525  0.00  0.00    -0.507 OA
ATOM     33  H   LIG    1        6.363   3.510  -6.759  0.00  0.00    +0.292 HD
ENDBRANCH  30  32
ENDBRANCH   1  26
TORSDOF 9
