REMARK  Name = ZINC19796041
REMARK                            x       y       z     vdW  Elec       q    Type
REMARK                         _______ _______ _______ _____ _____    ______ ____
ROOT
ATOM      1  C   LIG    1        0.815  -1.825   1.290  0.00  0.00    +0.285 C 
ATOM      2  C   LIG    1        1.459  -2.343   2.392  0.00  0.00    +0.068 C 
ATOM      3  C   LIG    1        1.832  -3.813   2.474  0.00  0.00    +0.098 C 
ATOM      4  C   LIG    1        2.538  -4.247   3.745  0.00  0.00    +0.069 C 
ATOM      5  C   LIG    1        2.774  -3.294   4.694  0.00  0.00    +0.049 C 
ATOM      6  C   LIG    1        3.474  -3.695   5.967  0.00  0.00    +0.066 C 
ATOM      7  N   LIG    1        2.412  -2.030   4.536  0.00  0.00    -0.253 NA
ATOM      8  C   LIG    1        1.802  -1.540   3.481  0.00  0.00    +0.078 C 
ENDROOT
BRANCH   3   9
ATOM      9  C   LIG    1        0.571  -4.627   2.339  0.00  0.00    -0.017 A 
ATOM     10  C   LIG    1       -0.455  -4.468   3.251  0.00  0.00    +0.006 A 
ATOM     11  C   LIG    1       -1.612  -5.215   3.127  0.00  0.00    +0.000 A 
ATOM     12  C   LIG    1       -1.743  -6.121   2.091  0.00  0.00    +0.001 A 
ATOM     13  C   LIG    1       -0.717  -6.281   1.179  0.00  0.00    +0.020 A 
ATOM     14  C   LIG    1        0.438  -5.530   1.299  0.00  0.00    +0.045 A 
ATOM     15 CL   LIG    1        1.724  -5.725   0.149  0.00  0.00    -0.083 Cl
ENDBRANCH   3   9
BRANCH   1  16
ATOM     16  O   LIG    1        0.497  -2.628   0.256  0.00  0.00    -0.480 OA
ATOM     17  H   LIG    1        0.059  -2.276  -0.494  0.00  0.00    +0.295 HD
ENDBRANCH   1  16
BRANCH   4  18
ATOM     18  C   LIG    1        2.934  -5.582   3.939  0.00  0.00    +0.338 C 
ATOM     19  O   LIG    1        3.600  -5.884   4.913  0.00  0.00    -0.245 OA
BRANCH  18  20
ATOM     20  O   LIG    1        2.576  -6.529   3.046  0.00  0.00    -0.465 OA
ATOM     21  C   LIG    1        3.013  -7.865   3.306  0.00  0.00    +0.280 C 
ENDBRANCH  18  20
ENDBRANCH   4  18
BRANCH   1  22
ATOM     22  O   LIG    1        0.502  -0.515   1.247  0.00  0.00    -0.464 OA
BRANCH  22  24
ATOM     23  C   LIG    1       -0.435   1.454   0.206  0.00  0.00    +0.048 C 
ATOM     24  C   LIG    1       -0.165  -0.046   0.074  0.00  0.00    +0.229 C 
ENDBRANCH  22  24
ENDBRANCH   1  22
BRANCH   8  25
ATOM     25  C   LIG    1        1.459  -0.072   3.447  0.00  0.00    +0.215 C 
BRANCH  25  26
ATOM     26  O   LIG    1        1.901   0.548   4.656  0.00  0.00    -0.376 OA
BRANCH  26  27
ATOM     27  C   LIG    1        1.623   1.948   4.726  0.00  0.00    +0.141 C 
BRANCH  27  28
ATOM     28  C   LIG    1        2.137   2.504   6.055  0.00  0.00    -0.058 C 
BRANCH  28  29
ATOM     29  N   LIG    1        3.601   2.396   6.098  0.00  0.00    +0.380 N 
ATOM     30  H   LIG    1        3.940   2.763   6.975  0.00  0.00    -0.090 HD
ATOM     31  H   LIG    1        4.000   2.924   5.336  0.00  0.00    -0.090 HD
ATOM     32  H   LIG    1        3.870   1.427   6.012  0.00  0.00    -0.090 HD
ENDBRANCH  28  29
ENDBRANCH  27  28
ENDBRANCH  26  27
ENDBRANCH  25  26
ENDBRANCH   8  25
TORSDOF 11
