REMARK  Name = ZINC00020252
REMARK                            x       y       z     vdW  Elec       q    Type
REMARK                         _______ _______ _______ _____ _____    ______ ____
ROOT
ATOM      1  N   LIG    1        0.690  -0.478  -1.207  0.00  0.00    +0.383 N 
ATOM      2  H   LIG    1        0.776  -1.482  -1.172  0.00  0.00    -0.085 HD
ATOM      3  H   LIG    1        1.608  -0.063  -1.256  0.00  0.00    -0.085 HD
ENDROOT
BRANCH   1   5
ATOM      4  C   LIG    1       -0.019   1.526   0.010  0.00  0.00    -0.013 C 
ATOM      5  C   LIG    1        0.002  -0.004   0.002  0.00  0.00    -0.071 C 
BRANCH   5   6
ATOM      6  C   LIG    1        0.742  -0.511   1.242  0.00  0.00    +0.019 C 
BRANCH   6   7
ATOM      7  C   LIG    1        0.657  -2.014   1.298  0.00  0.00    -0.049 A 
ATOM      8  C   LIG    1       -0.397  -2.622   1.956  0.00  0.00    +0.007 A 
ATOM      9  C   LIG    1       -0.477  -4.000   2.009  0.00  0.00    +0.045 A 
ATOM     10  C   LIG    1        0.500  -4.774   1.401  0.00  0.00    +0.117 A 
ATOM     11  C   LIG    1        1.556  -4.163   0.741  0.00  0.00    +0.045 A 
ATOM     12  C   LIG    1        1.629  -2.784   0.686  0.00  0.00    +0.007 A 
BRANCH  10  13
ATOM     13  O   LIG    1        0.424  -6.130   1.453  0.00  0.00    -0.507 OA
ATOM     14  H   LIG    1       -0.066  -6.525   0.718  0.00  0.00    +0.292 HD
ENDBRANCH  10  13
ENDBRANCH   6   7
ENDBRANCH   5   6
ENDBRANCH   1   5
BRANCH   1  15
ATOM     15  C   LIG    1       -0.086  -0.093  -2.394  0.00  0.00    -0.046 C 
BRANCH  15  16
ATOM     16  C   LIG    1        0.630  -0.587  -3.652  0.00  0.00    +0.128 C 
BRANCH  16  17
ATOM     17  C   LIG    1       -0.098  -0.087  -4.873  0.00  0.00    -0.014 A 
ATOM     18  C   LIG    1       -1.242  -0.732  -5.306  0.00  0.00    +0.051 A 
ATOM     19  C   LIG    1       -1.915  -0.274  -6.430  0.00  0.00    +0.121 A 
ATOM     20  C   LIG    1       -1.439   0.831  -7.119  0.00  0.00    +0.090 A 
ATOM     21  C   LIG    1       -0.292   1.476  -6.683  0.00  0.00    +0.121 A 
ATOM     22  C   LIG    1        0.374   1.018  -5.555  0.00  0.00    +0.051 A 
BRANCH  19  23
ATOM     23  O   LIG    1       -3.038  -0.909  -6.855  0.00  0.00    -0.507 OA
ATOM     24  H   LIG    1       -3.855  -0.564  -6.468  0.00  0.00    +0.292 HD
ENDBRANCH  19  23
BRANCH  21  25
ATOM     25  O   LIG    1        0.177   2.559  -7.357  0.00  0.00    -0.507 OA
ATOM     26  H   LIG    1       -0.178   3.402  -7.042  0.00  0.00    +0.292 HD
ENDBRANCH  21  25
ENDBRANCH  16  17
BRANCH  16  27
ATOM     27  O   LIG    1        0.650  -2.015  -3.660  0.00  0.00    -0.389 OA
ATOM     28  H   LIG    1       -0.228  -2.421  -3.654  0.00  0.00    +0.210 HD
ENDBRANCH  16  27
ENDBRANCH  15  16
ENDBRANCH   1  15
TORSDOF 10
