REMARK  Name = ZINC18847046
REMARK                            x       y       z     vdW  Elec       q    Type
REMARK                         _______ _______ _______ _____ _____    ______ ____
ROOT
ATOM      1  C   LIG    1       -0.018   1.503   0.010  0.00  0.00    +0.026 C 
ATOM      2  C   LIG    1        0.002  -0.004   0.002  0.00  0.00    +0.071 C 
ATOM      3  C   LIG    1        0.006  -0.686  -1.208  0.00  0.00    +0.094 C 
ATOM      4  C   LIG    1        0.025  -2.092  -1.186  0.00  0.00    +0.044 C 
ATOM      5  C   LIG    1        0.024  -2.535  -2.588  0.00  0.00    -0.021 A 
ATOM      6  C   LIG    1        0.037  -3.787  -3.200  0.00  0.00    +0.009 A 
ATOM      7  C   LIG    1        0.031  -3.881  -4.573  0.00  0.00    +0.046 A 
ATOM      8  C   LIG    1        0.011  -2.728  -5.354  0.00  0.00    +0.122 A 
ATOM      9  C   LIG    1       -0.003  -1.480  -4.759  0.00  0.00    +0.068 A 
ATOM     10  C   LIG    1        0.003  -1.370  -3.372  0.00  0.00    +0.034 A 
ATOM     11  C   LIG    1        0.041  -2.743   0.047  0.00  0.00    +0.025 C 
ATOM     12  C   LIG    1        0.036  -1.984   1.198  0.00  0.00    +0.082 C 
ATOM     13  N   LIG    1       -0.007  -0.274  -2.528  0.00  0.00    -0.339 N 
ATOM     14  H   LIG    1       -0.022   0.651  -2.820  0.00  0.00    +0.146 HD
ATOM     15  N   LIG    1        0.022  -0.663   1.142  0.00  0.00    -0.312 NA
ATOM     16  H   LIG    1        0.023  -0.161   1.972  0.00  0.00    +0.122 HD
ENDROOT
BRANCH   8  17
ATOM     17  O   LIG    1        0.006  -2.830  -6.709  0.00  0.00    -0.495 OA
ATOM     18  C   LIG    1        0.021  -4.149  -7.260  0.00  0.00    +0.277 C 
ENDBRANCH   8  17
TORSDOF 1
