REMARK  Name = ZINC49069480
REMARK                            x       y       z     vdW  Elec       q    Type
REMARK                         _______ _______ _______ _____ _____    ______ ____
ROOT
ATOM      1  C   LIG    1       -0.706   1.432   0.199  0.00  0.00    +0.029 C 
ATOM      2  C   LIG    1       -0.357  -0.054   0.102  0.00  0.00    +0.090 C 
ATOM      3  C   LIG    1       -1.641  -0.889   0.155  0.00  0.00    +0.103 C 
ATOM      4  N   LIG    1       -1.293  -2.315   0.217  0.00  0.00    -0.312 NA
ATOM      5  H   LIG    1       -2.116  -2.892   0.134  0.00  0.00    +0.122 HD
ATOM      6  C   LIG    1       -0.551  -2.629   1.446  0.00  0.00    +0.103 C 
ATOM      7  C   LIG    1        0.777  -1.865   1.446  0.00  0.00    +0.090 C 
ATOM      8  C   LIG    1        1.484  -2.063   2.789  0.00  0.00    +0.029 C 
ATOM      9  N   LIG    1        0.499  -0.436   1.235  0.00  0.00    -0.259 N 
ATOM     10  C   LIG    1        1.012   0.498   2.060  0.00  0.00    +0.404 C 
ATOM     11  O   LIG    1        0.686   1.663   1.937  0.00  0.00    -0.226 OA
ENDROOT
BRANCH  10  12
ATOM     12  O   LIG    1        1.885   0.142   3.021  0.00  0.00    -0.445 OA
BRANCH  12  13
ATOM     13  C   LIG    1        2.388   1.184   3.859  0.00  0.00    +0.269 C 
BRANCH  13  14
ATOM     14  C   LIG    1        3.345   0.601   4.867  0.00  0.00    -0.010 A 
ATOM     15  C   LIG    1        2.874   0.154   6.088  0.00  0.00    +0.007 A 
ATOM     16  C   LIG    1        3.752  -0.382   7.013  0.00  0.00    +0.000 A 
ATOM     17  C   LIG    1        5.099  -0.471   6.716  0.00  0.00    +0.000 A 
ATOM     18  C   LIG    1        5.569  -0.025   5.495  0.00  0.00    +0.000 A 
ATOM     19  C   LIG    1        4.691   0.507   4.569  0.00  0.00    +0.007 A 
ENDBRANCH  13  14
ENDBRANCH  12  13
ENDBRANCH  10  12
TORSDOF 3
