REMARK  Name = ZINC29053046
REMARK                            x       y       z     vdW  Elec       q    Type
REMARK                         _______ _______ _______ _____ _____    ______ ____
ROOT
ATOM      1  C   LIG    1        1.662   4.755  -0.447  0.00  0.00    +0.061 A 
ATOM      2  C   LIG    1        1.132   6.046  -0.522  0.00  0.00    +0.128 A 
ATOM      3  N   LIG    1        1.846   7.061  -0.068  0.00  0.00    -0.222 NA
ATOM      4  C   LIG    1        3.055   6.874   0.444  0.00  0.00    +0.216 A 
ATOM      5  N   LIG    1        3.603   5.672   0.531  0.00  0.00    -0.214 NA
ATOM      6  C   LIG    1        2.950   4.595   0.103  0.00  0.00    +0.088 A 
ENDROOT
BRANCH   6   7
ATOM      7  C   LIG    1        3.566   3.252   0.204  0.00  0.00    +0.020 A 
ATOM      8  C   LIG    1        2.971   2.266   0.992  0.00  0.00    +0.013 A 
ATOM      9  C   LIG    1        3.549   1.017   1.082  0.00  0.00    +0.021 A 
ATOM     10  C   LIG    1        4.717   0.739   0.391  0.00  0.00    +0.042 A 
ATOM     11 CL   LIG    1        5.437  -0.836   0.510  0.00  0.00    -0.083 Cl
ATOM     12  C   LIG    1        5.312   1.712  -0.392  0.00  0.00    +0.040 A 
ATOM     13  C   LIG    1        4.740   2.965  -0.495  0.00  0.00    +0.052 A 
ATOM     14 CL   LIG    1        5.482   4.182  -1.485  0.00  0.00    -0.083 Cl
ENDBRANCH   6   7
BRANCH   1  19
ATOM     15  C   LIG    1        0.490   0.092  -1.778  0.00  0.00    +0.067 C 
ATOM     16  C   LIG    1        0.376   1.572  -1.517  0.00  0.00    +0.056 A 
ATOM     17  C   LIG    1       -0.718   2.329  -1.734  0.00  0.00    +0.107 A 
ATOM     18  N   LIG    1       -0.400   3.609  -1.363  0.00  0.00    -0.344 N 
ATOM     19  C   LIG    1        0.896   3.591  -0.936  0.00  0.00    +0.142 A 
ATOM     20  H   LIG    1       -1.151   4.408  -1.447  0.00  0.00    +0.167 HD
ATOM     21  N   LIG    1        1.346   2.359  -1.036  0.00  0.00    -0.233 NA
ENDBRANCH   1  19
BRANCH   4  22
ATOM     22  N   LIG    1        3.766   7.969   0.900  0.00  0.00    -0.312 N 
ATOM     23  H   LIG    1        4.771   7.833   1.329  0.00  0.00    +0.149 HD
BRANCH  22  24
ATOM     24  C   LIG    1        3.182   9.309   0.814  0.00  0.00    +0.123 C 
BRANCH  24  25
ATOM     25  C   LIG    1        4.167  10.333   1.383  0.00  0.00    +0.121 C 
BRANCH  25  26
ATOM     26  N   LIG    1        3.583  11.673   1.297  0.00  0.00    -0.328 N 
ATOM     27  H   LIG    1        2.578  11.809   0.869  0.00  0.00    +0.148 HD
BRANCH  26  28
ATOM     28  C   LIG    1        4.295  12.771   1.755  0.00  0.00    +0.119 A 
ATOM     29  C   LIG    1        5.564  12.587   2.300  0.00  0.00    +0.045 A 
ATOM     30  C   LIG    1        6.267  13.673   2.746  0.00  0.00    +0.024 A 
ATOM     31  C   LIG    1        5.674  14.941   2.646  0.00  0.00    +0.070 A 
ATOM     32  C   LIG    1        4.397  15.051   2.094  0.00  0.00    +0.131 A 
ATOM     33  N   LIG    1        3.757  13.979   1.672  0.00  0.00    -0.239 NA
BRANCH  31  34
ATOM     34  C   LIG    1        6.370  16.107   3.104  0.00  0.00    +0.101 C 
ATOM     35  N   LIG    1        6.921  17.031   3.467  0.00  0.00    -0.191 NA
ENDBRANCH  31  34
ENDBRANCH  26  28
ENDBRANCH  25  26
ENDBRANCH  24  25
ENDBRANCH  22  24
ENDBRANCH   4  22
TORSDOF 8
