REMARK  Name = ZINC43202870
REMARK                            x       y       z     vdW  Elec       q    Type
REMARK                         _______ _______ _______ _____ _____    ______ ____
ROOT
ATOM      1  N   LIG    1        2.445  -2.362  -1.438  0.00  0.00    -0.185 NA
ATOM      2  H   LIG    1        3.159  -1.659  -1.245  0.00  0.00    +0.148 HD
ENDROOT
BRANCH   1   6
ATOM      3  C   LIG    1       -0.019   1.526   0.010  0.00  0.00    +0.027 C 
ATOM      4  C   LIG    1        0.002  -0.004   0.002  0.00  0.00    +0.063 C 
ATOM      5  C   LIG    1        0.788  -0.526  -1.227  0.00  0.00    +0.043 C 
ATOM      6  C   LIG    1        1.229  -1.932  -0.742  0.00  0.00    +0.094 C 
ATOM      7  C   LIG    1        1.505  -1.712   0.760  0.00  0.00    +0.115 C 
ATOM      8  N   LIG    1        0.746  -0.515   1.173  0.00  0.00    -0.335 NA
ATOM      9  H   LIG    1        0.097  -0.759   1.907  0.00  0.00    +0.137 HD
BRANCH   8  10
ATOM     10  C   LIG    1        1.649   0.488   1.645  0.00  0.00    +0.151 C 
ATOM     11  N   LIG    1        2.366   1.285   2.020  0.00  0.00    -0.176 NA
ENDBRANCH   8  10
ENDBRANCH   1   6
BRANCH   1  12
ATOM     12  S   LIG    1        3.118  -3.835  -1.095  0.00  0.00    +0.060 S 
ATOM     13  O   LIG    1        2.190  -4.818  -1.533  0.00  0.00    -0.153 OA
ATOM     14  O   LIG    1        3.580  -3.768   0.247  0.00  0.00    -0.153 OA
BRANCH  12  15
ATOM     15  C   LIG    1        4.548  -4.004  -2.112  0.00  0.00    +0.120 A 
ATOM     16  C   LIG    1        5.802  -4.074  -1.534  0.00  0.00    +0.045 A 
ATOM     17  C   LIG    1        6.924  -4.207  -2.332  0.00  0.00    +0.020 A 
ATOM     18 BR   LIG    1        8.639  -4.303  -1.543  0.00  0.00    -0.050 Br
ATOM     19  C   LIG    1        6.791  -4.268  -3.708  0.00  0.00    +0.016 A 
ATOM     20  C   LIG    1        5.537  -4.198  -4.285  0.00  0.00    +0.018 A 
ATOM     21  C   LIG    1        4.414  -4.071  -3.487  0.00  0.00    +0.044 A 
ATOM     22 BR   LIG    1        2.698  -3.982  -4.276  0.00  0.00    -0.048 Br
ENDBRANCH  12  15
ENDBRANCH   1  12
TORSDOF 4
