REMARK  Name = ZINC40835973
REMARK                            x       y       z     vdW  Elec       q    Type
REMARK                         _______ _______ _______ _____ _____    ______ ____
ROOT
ATOM      1  C   LIG    1        0.742  -0.511   1.242  0.00  0.00    +0.195 C 
ENDROOT
BRANCH   1   2
ATOM      2  C   LIG    1        0.870  -2.011   1.172  0.00  0.00    -0.005 A 
ATOM      3  C   LIG    1       -0.201  -2.813   1.519  0.00  0.00    +0.007 A 
ATOM      4  C   LIG    1       -0.084  -4.189   1.456  0.00  0.00    +0.000 A 
ATOM      5  C   LIG    1        1.105  -4.763   1.044  0.00  0.00    +0.000 A 
ATOM      6  C   LIG    1        2.175  -3.961   0.695  0.00  0.00    +0.000 A 
ATOM      7  C   LIG    1        2.057  -2.585   0.755  0.00  0.00    +0.007 A 
ENDBRANCH   1   2
BRANCH   1   9
ATOM      8  C   LIG    1       -0.019   1.526   0.010  0.00  0.00    +0.008 C 
ATOM      9  C   LIG    1        0.002  -0.004   0.002  0.00  0.00    +0.049 C 
ENDBRANCH   1   9
BRANCH   1  10
ATOM     10  N   LIG    1       -0.008  -0.140   2.444  0.00  0.00    -0.234 N 
ATOM     11  H   LIG    1       -0.629  -0.770   2.842  0.00  0.00    +0.291 HD
BRANCH  10  12
ATOM     12  C   LIG    1        0.167   1.097   3.006  0.00  0.00    +0.233 C 
ATOM     13  C   LIG    1       -0.605   1.478   4.243  0.00  0.00    +0.139 C 
ATOM     14  N   LIG    1        0.995   1.937   2.476  0.00  0.00    -0.293 N 
ATOM     15  H   LIG    1        1.119   2.813   2.874  0.00  0.00    +0.301 HD
ATOM     16  H   LIG    1        1.492   1.691   1.680  0.00  0.00    +0.301 HD
ENDBRANCH  10  12
ENDBRANCH   1  10
TORSDOF 4
