REMARK  Name = ZINC00056588
REMARK                            x       y       z     vdW  Elec       q    Type
REMARK                         _______ _______ _______ _____ _____    ______ ____
ROOT
ATOM      1  C   LIG    1        0.680  -2.088   1.091  0.00  0.00    +0.085 A 
ATOM      2  C   LIG    1        0.101  -2.854   0.077  0.00  0.00    +0.017 A 
ATOM      3  C   LIG    1        0.160  -4.231   0.138  0.00  0.00    +0.001 A 
ATOM      4  C   LIG    1        0.791  -4.853   1.200  0.00  0.00    +0.002 A 
ATOM      5  C   LIG    1        1.366  -4.100   2.209  0.00  0.00    +0.029 A 
ATOM      6  C   LIG    1        1.320  -2.722   2.157  0.00  0.00    +0.119 A 
ENDROOT
BRANCH   6   7
ATOM      7  S   LIG    1        2.060  -1.765   3.438  0.00  0.00    +0.057 S 
ATOM      8  O   LIG    1        2.644  -2.687   4.348  0.00  0.00    -0.153 OA
ATOM      9  O   LIG    1        1.091  -0.807   3.841  0.00  0.00    -0.153 OA
BRANCH   7  10
ATOM     10  N   LIG    1        3.308  -0.917   2.757  0.00  0.00    -0.203 NA
ATOM     11  H   LIG    1        3.847  -0.325   3.304  0.00  0.00    +0.144 HD
ATOM     12  H   LIG    1        3.501  -1.014   1.811  0.00  0.00    +0.144 HD
ENDBRANCH   7  10
ENDBRANCH   6   7
BRANCH   1  13
ATOM     13  C   LIG    1        0.620  -0.613   1.032  0.00  0.00    +0.341 C 
ATOM     14  O   LIG    1        1.129   0.051   1.913  0.00  0.00    -0.245 OA
BRANCH  13  16
ATOM     15  C   LIG    1       -0.017   1.425   0.010  0.00  0.00    +0.280 C 
ATOM     16  O   LIG    1        0.002  -0.004   0.002  0.00  0.00    -0.464 OA
ENDBRANCH  13  16
ENDBRANCH   1  13
TORSDOF 4
