REMARK  Name = ZINC19796130
REMARK                            x       y       z     vdW  Elec       q    Type
REMARK                         _______ _______ _______ _____ _____    ______ ____
ROOT
ATOM      1  C   LIG    1       -0.017   1.387   0.010  0.00  0.00    +0.046 A 
ATOM      2  C   LIG    1        1.169   2.091   0.002  0.00  0.00    +0.044 A 
ATOM      3 CL   LIG    1        1.138   3.826   0.012  0.00  0.00    -0.083 Cl
ATOM      4  C   LIG    1        2.389   1.425  -0.013  0.00  0.00    +0.040 A 
ATOM      5  C   LIG    1        2.432   0.049  -0.022  0.00  0.00    +0.055 A 
ATOM      6 CL   LIG    1        3.959  -0.778  -0.043  0.00  0.00    -0.083 Cl
ATOM      7  C   LIG    1        1.238  -0.678  -0.014  0.00  0.00    +0.063 A 
ATOM      8  C   LIG    1        1.239  -2.149  -0.022  0.00  0.00    +0.192 A 
ATOM      9  O   LIG    1        2.284  -2.778  -0.036  0.00  0.00    -0.287 OA
ATOM     10  C   LIG    1       -0.019  -2.815  -0.014  0.00  0.00    +0.084 A 
ATOM     11  CA  LIG    1       -1.166  -2.092   0.001  0.00  0.00    +0.128 A 
ATOM     12  N   LIG    1       -1.168  -0.727   0.009  0.00  0.00    -0.349 N 
ATOM     13  H   LIG    1       -2.015  -0.255   0.019  0.00  0.00    +0.166 HD
ATOM     14  C   LIG    1        0.002  -0.004   0.002  0.00  0.00    +0.053 A 
ENDROOT
BRANCH  11  15
ATOM     15  C   LIG    1       -2.463  -2.809   0.008  0.00  0.00    +0.353 C 
ATOM     16  O   LIG    1       -2.486  -4.031   0.001  0.00  0.00    -0.243 OA
BRANCH  15  17
ATOM     17  OXT LIG    1       -3.510  -2.178   0.021  0.00  0.00    -0.476 OA
ATOM     18  HXT LIG    1       -3.492  -1.242   0.027  0.00  0.00    +0.295 HD
ENDBRANCH  15  17
ENDBRANCH  11  15
TORSDOF 2
