REMARK  Name = ZINC71297123
REMARK                            x       y       z     vdW  Elec       q    Type
REMARK                         _______ _______ _______ _____ _____    ______ ____
ROOT
ATOM      1  C   LIG    1       -3.785   0.314  -5.317  0.00  0.00    +0.090 A 
ATOM      2  C   LIG    1       -4.477   1.505  -5.561  0.00  0.00    +0.141 A 
ATOM      3  N   LIG    1       -4.995   1.739  -6.750  0.00  0.00    -0.236 NA
ATOM      4  C   LIG    1       -4.861   0.844  -7.723  0.00  0.00    +0.147 A 
ATOM      5  C   LIG    1       -4.167  -0.353  -7.482  0.00  0.00    +0.166 A 
ATOM      6  N   LIG    1       -3.642  -0.582  -6.283  0.00  0.00    -0.237 NA
ENDROOT
BRANCH   1  10
ATOM      7  C   LIG    1       -2.122  -0.426  -1.474  0.00  0.00    +0.088 A 
ATOM      8  C   LIG    1       -2.898   0.700  -1.684  0.00  0.00    +0.027 A 
ATOM      9  C   LIG    1       -3.440   0.945  -2.929  0.00  0.00    +0.012 A 
ATOM     10  C   LIG    1       -3.204   0.056  -3.976  0.00  0.00    +0.002 A 
ATOM     11  C   LIG    1       -2.421  -1.076  -3.759  0.00  0.00    +0.012 A 
ATOM     12  C   LIG    1       -1.880  -1.309  -2.511  0.00  0.00    +0.027 A 
BRANCH   7  13
ATOM     13  S   LIG    1       -1.433  -0.733   0.119  0.00  0.00    -0.002 S 
ATOM     14  O   LIG    1       -2.310  -0.077   1.025  0.00  0.00    -0.169 OA
ATOM     15  O   LIG    1       -1.257  -2.142   0.172  0.00  0.00    -0.169 OA
BRANCH  13  17
ATOM     16  C   LIG    1       -0.023   1.597  -0.135  0.00  0.00    +0.030 C 
ATOM     17  C   LIG    1        0.179   0.098   0.097  0.00  0.00    +0.116 C 
BRANCH  17  18
ATOM     18  C   LIG    1        0.883  -0.120   1.438  0.00  0.00    -0.053 C 
BRANCH  18  19
ATOM     19  N   LIG    1        1.018  -1.560   1.692  0.00  0.00    +0.377 N 
ATOM     20  H   LIG    1        0.107  -1.993   1.667  0.00  0.00    -0.083 HD
ATOM     21  C   LIG    1        1.625  -1.770   3.013  0.00  0.00    -0.097 C 
ATOM     22  C   LIG    1        1.874  -2.161   0.659  0.00  0.00    -0.097 C 
ENDBRANCH  18  19
ENDBRANCH  17  18
ENDBRANCH  13  17
ENDBRANCH   7  13
ENDBRANCH   1  10
BRANCH   5  23
ATOM     23  C   LIG    1       -4.015  -1.351  -8.560  0.00  0.00    +0.270 C 
ATOM     24  N   LIG    1       -3.448  -2.545  -8.298  0.00  0.00    -0.280 N 
ATOM     25  H   LIG    1       -3.199  -2.775  -7.389  0.00  0.00    +0.155 HD
ATOM     26  O   LIG    1       -4.402  -1.096  -9.684  0.00  0.00    -0.268 OA
BRANCH  24  27
ATOM     27  C   LIG    1       -3.218  -3.453  -9.336  0.00  0.00    +0.034 A 
ATOM     28  C   LIG    1       -3.334  -4.818  -9.106  0.00  0.00    +0.023 A 
ATOM     29  C   LIG    1       -3.107  -5.712 -10.133  0.00  0.00    +0.002 A 
ATOM     30  C   LIG    1       -2.764  -5.250 -11.391  0.00  0.00    +0.000 A 
ATOM     31  C   LIG    1       -2.648  -3.892 -11.624  0.00  0.00    +0.002 A 
ATOM     32  C   LIG    1       -2.879  -2.992 -10.602  0.00  0.00    +0.023 A 
ENDBRANCH  24  27
ENDBRANCH   5  23
BRANCH   4  33
ATOM     33  N   LIG    1       -5.405   1.090  -8.970  0.00  0.00    -0.341 N 
ATOM     34  H   LIG    1       -5.387   0.401  -9.652  0.00  0.00    +0.144 HD
ATOM     35  H   LIG    1       -5.804   1.953  -9.163  0.00  0.00    +0.144 HD
ENDBRANCH   4  33
TORSDOF 8
