REMARK  Name = ZINC71294692
REMARK                            x       y       z     vdW  Elec       q    Type
REMARK                         _______ _______ _______ _____ _____    ______ ____
ROOT
ATOM      1  C   LIG    1        3.699   1.406  -0.852  0.00  0.00    +0.247 C 
ATOM      2  N   LIG    1        4.406   2.400  -1.361  0.00  0.00    -0.292 N 
ATOM      3  H   LIG    1        5.361   2.448  -1.200  0.00  0.00    +0.301 HD
ATOM      4  H   LIG    1        3.969   3.082  -1.895  0.00  0.00    +0.301 HD
ENDROOT
BRANCH   1   7
ATOM      5  C   LIG    1       -0.019   1.544   0.011  0.00  0.00    +0.012 C 
ATOM      6  C   LIG    1        1.419   2.087  -0.000  0.00  0.00    +0.027 C 
ATOM      7  C   LIG    1        2.215   1.332  -1.103  0.00  0.00    +0.157 C 
ATOM      8  S   LIG    1        1.582  -0.382  -0.860  0.00  0.00    -0.145 S 
ATOM      9  C   LIG    1        0.002  -0.004   0.002  0.00  0.00    +0.070 C 
ENDBRANCH   1   7
BRANCH   1  10
ATOM     10  N   LIG    1        4.293   0.477  -0.124  0.00  0.00    -0.253 N 
ATOM     11  H   LIG    1        5.249   0.525   0.038  0.00  0.00    +0.288 HD
ATOM     12  H   LIG    1        3.775  -0.252   0.250  0.00  0.00    +0.288 HD
ENDBRANCH   1  10
TORSDOF 2
