REMARK  Name = ZINC19861699
REMARK                            x       y       z     vdW  Elec       q    Type
REMARK                         _______ _______ _______ _____ _____    ______ ____
ROOT
ATOM      1  C   LIG    1        3.031   3.783  -0.500  0.00  0.00    +0.166 C 
ENDROOT
BRANCH   1   4
ATOM      2  N   LIG    1        1.356   2.033   0.000  0.00  0.00    -0.302 N 
ATOM      3  H   LIG    1        2.174   1.411   0.392  0.00  0.00    +0.150 HD
ATOM      4  C   LIG    1        1.617   3.261  -0.489  0.00  0.00    +0.234 C 
ATOM      5  O   LIG    1        0.715   3.947  -0.921  0.00  0.00    -0.274 OA
BRANCH   2   6
ATOM      6  C   LIG    1       -0.019   1.526   0.010  0.00  0.00    +0.163 C 
BRANCH   6   7
ATOM      7  C   LIG    1       -0.724   2.012   1.250  0.00  0.00    +0.231 C 
ATOM      8  N   LIG    1       -2.008   1.667   1.474  0.00  0.00    -0.328 N 
ATOM      9  H   LIG    1       -2.541   1.032   0.751  0.00  0.00    +0.145 HD
ATOM     10  H   LIG    1       -2.523   2.022   2.379  0.00  0.00    +0.145 HD
ATOM     11  O   LIG    1       -0.137   2.713   2.047  0.00  0.00    -0.274 OA
ENDBRANCH   6   7
BRANCH   6  12
ATOM     12  C   LIG    1        0.002  -0.004   0.002  0.00  0.00    +0.067 C 
BRANCH  12  16
ATOM     13  C   LIG    1        1.688  -1.386  -3.671  0.00  0.00    +0.000 A 
ATOM     14  C   LIG    1        2.505  -1.150  -2.582  0.00  0.00    +0.000 A 
ATOM     15  C   LIG    1        1.960  -0.703  -1.393  0.00  0.00    +0.004 A 
ATOM     16  C   LIG    1        0.597  -0.491  -1.294  0.00  0.00    -0.045 A 
ATOM     17  C   LIG    1       -0.221  -0.732  -2.382  0.00  0.00    +0.004 A 
ATOM     18  C   LIG    1        0.326  -1.174  -3.573  0.00  0.00    +0.000 A 
ENDBRANCH  12  16
ENDBRANCH   6  12
ENDBRANCH   2   6
ENDBRANCH   1   4
BRANCH   1  19
ATOM     19  N   LIG    1        3.050   5.129  -1.077  0.00  0.00    -0.269 N 
ATOM     20  H   LIG    1        2.147   5.756  -1.040  0.00  0.00    +0.153 HD
ATOM     21  C   LIG    1        4.175   5.600  -1.651  0.00  0.00    +0.401 C 
ATOM     22  O   LIG    1        5.173   4.908  -1.691  0.00  0.00    -0.226 OA
BRANCH  21  23
ATOM     23  O   LIG    1        4.192   6.838  -2.181  0.00  0.00    -0.446 OA
BRANCH  23  24
ATOM     24  C   LIG    1        5.438   7.279  -2.784  0.00  0.00    +0.269 C 
BRANCH  24  25
ATOM     25  C   LIG    1        5.269   8.677  -3.320  0.00  0.00    -0.010 A 
ATOM     26  C   LIG    1        4.845   8.872  -4.621  0.00  0.00    +0.007 A 
ATOM     27  C   LIG    1        4.685  10.155  -5.111  0.00  0.00    +0.000 A 
ATOM     28  C   LIG    1        4.959  11.243  -4.303  0.00  0.00    +0.000 A 
ATOM     29  C   LIG    1        5.388  11.048  -3.003  0.00  0.00    +0.000 A 
ATOM     30  C   LIG    1        5.543   9.765  -2.512  0.00  0.00    +0.007 A 
ENDBRANCH  24  25
ENDBRANCH  23  24
ENDBRANCH  21  23
ENDBRANCH   1  19
BRANCH   1  31
ATOM     31  C   LIG    1        3.567   3.834   0.932  0.00  0.00    +0.069 C 
BRANCH  31  32
ATOM     32  C   LIG    1        5.018   4.238   0.912  0.00  0.00    -0.020 A 
ATOM     33  C   LIG    1        6.077   3.413   0.924  0.00  0.00    +0.087 A 
ATOM     34  N   LIG    1        7.236   4.140   0.897  0.00  0.00    -0.360 N 
ATOM     35  C   LIG    1        6.944   5.485   0.866  0.00  0.00    +0.047 A 
ATOM     36  C   LIG    1        7.726   6.634   0.832  0.00  0.00    +0.026 A 
ATOM     37  C   LIG    1        7.122   7.872   0.792  0.00  0.00    +0.002 A 
ATOM     38  C   LIG    1        5.739   7.986   0.798  0.00  0.00    +0.001 A 
ATOM     39  C   LIG    1        4.951   6.870   0.835  0.00  0.00    +0.010 A 
ATOM     40  H   LIG    1        8.208   3.626   0.902  0.00  0.00    +0.165 HD
ATOM     41  C   LIG    1        5.542   5.605   0.868  0.00  0.00    +0.003 A 
ENDBRANCH  31  32
ENDBRANCH   1  31
TORSDOF 11
