REMARK  Name = ZINC29133439
REMARK                            x       y       z     vdW  Elec       q    Type
REMARK                         _______ _______ _______ _____ _____    ______ ____
ROOT
ATOM      1  C   LIG    1       -4.037  -2.957   0.049  0.00  0.00    +0.025 C 
ATOM      2  C   LIG    1       -4.354  -2.026   1.220  0.00  0.00    +0.068 C 
ATOM      3  C   LIG    1       -3.741  -2.562   2.515  0.00  0.00    +0.025 C 
ATOM      4  C   LIG    1       -3.853  -0.628   0.936  0.00  0.00    -0.008 A 
ATOM      5  C   LIG    1       -2.598  -0.117   0.703  0.00  0.00    +0.016 A 
ATOM      6  C   LIG    1       -2.438   1.250   0.464  0.00  0.00    +0.002 A 
ATOM      7  C   LIG    1       -3.557   2.087   0.470  0.00  0.00    +0.050 A 
ATOM      8  C   LIG    1       -4.811   1.565   0.699  0.00  0.00    +0.145 A 
ATOM      9  F   LIG    1       -5.889   2.379   0.699  0.00  0.00    -0.204 F 
ATOM     10  C   LIG    1       -4.972   0.197   0.938  0.00  0.00    +0.073 A 
ATOM     11  N   LIG    1       -6.121  -0.551   1.195  0.00  0.00    -0.282 N 
ATOM     12  H   LIG    1       -7.102  -0.057   1.234  0.00  0.00    +0.155 HD
ATOM     13  C   LIG    1       -5.851  -1.856   1.372  0.00  0.00    +0.227 C 
ATOM     14  O   LIG    1       -6.655  -2.732   1.609  0.00  0.00    -0.275 OA
ENDROOT
BRANCH   6  15
ATOM     15  C   LIG    1       -1.093   1.808   0.213  0.00  0.00    +0.050 A 
ATOM     16  C   LIG    1       -0.724   3.127   0.372  0.00  0.00    +0.029 A 
ATOM     17  C   LIG    1        0.625   3.232   0.037  0.00  0.00    +0.039 A 
ATOM     18  C   LIG    1        1.061   1.973  -0.327  0.00  0.00    +0.120 A 
ATOM     19  N   LIG    1       -0.003   1.106  -0.219  0.00  0.00    -0.335 N 
ATOM     20  C   LIG    1        0.029  -0.329  -0.512  0.00  0.00    +0.150 C 
BRANCH  18  21
ATOM     21  C   LIG    1        2.387   1.629  -0.745  0.00  0.00    +0.117 C 
ATOM     22  N   LIG    1        3.439   1.357  -1.075  0.00  0.00    -0.189 NA
ENDBRANCH  18  21
ENDBRANCH   6  15
TORSDOF 2
