REMARK  Name = ZINC13763987
REMARK                            x       y       z     vdW  Elec       q    Type
REMARK                         _______ _______ _______ _____ _____    ______ ____
ROOT
ATOM      1  C   LIG    1        0.028  -2.746  -4.886  0.00  0.00    -0.004 C 
ATOM      2  C   LIG    1       -1.132  -2.634  -5.772  0.00  0.00    -0.017 C 
ATOM      3  C   LIG    1       -2.216  -1.815  -5.413  0.00  0.00    +0.010 C 
ATOM      4  C   LIG    1       -3.293  -1.712  -6.240  0.00  0.00    +0.026 C 
ATOM      5  C   LIG    1       -3.322  -2.422  -7.446  0.00  0.00    +0.037 C 
ATOM      6  C   LIG    1       -2.244  -3.238  -7.806  0.00  0.00    +0.026 C 
ATOM      7  N   LIG    1       -4.408  -2.317  -8.275  0.00  0.00    -0.377 N 
ATOM      8  C   LIG    1       -4.383  -2.947  -9.598  0.00  0.00    +0.142 C 
ATOM      9  C   LIG    1       -5.593  -1.575  -7.840  0.00  0.00    +0.142 C 
ATOM     10  C   LIG    1       -1.161  -3.340  -6.986  0.00  0.00    +0.010 C 
ENDROOT
BRANCH   1  14
ATOM     11  C   LIG    1        0.113  -0.617  -1.233  0.00  0.00    +0.029 A 
ATOM     12  C   LIG    1        0.091  -2.016  -1.225  0.00  0.00    +0.024 A 
ATOM     13  C   LIG    1        0.063  -2.705  -2.401  0.00  0.00    +0.010 A 
ATOM     14  C   LIG    1        0.057  -2.009  -3.621  0.00  0.00    -0.017 A 
ATOM     15  C   LIG    1        0.079  -0.604  -3.625  0.00  0.00    +0.010 A 
ATOM     16  C   LIG    1        0.102   0.079  -2.446  0.00  0.00    +0.024 A 
BRANCH  11  18
ATOM     17  C   LIG    1        0.158   1.537  -0.055  0.00  0.00    +0.129 C 
ATOM     18  N   LIG    1        0.141   0.072  -0.049  0.00  0.00    -0.336 N 
ATOM     19  C   LIG    1        0.153  -0.655   1.223  0.00  0.00    +0.129 C 
ENDBRANCH  11  18
ENDBRANCH   1  14
BRANCH   1  20
ATOM     20  C   LIG    1        1.159  -3.595  -5.264  0.00  0.00    -0.017 A 
ATOM     21  C   LIG    1        1.469  -4.736  -4.504  0.00  0.00    +0.010 A 
ATOM     22  C   LIG    1        2.522  -5.524  -4.859  0.00  0.00    +0.024 A 
ATOM     23  C   LIG    1        3.295  -5.199  -5.979  0.00  0.00    +0.029 A 
ATOM     24  C   LIG    1        2.990  -4.063  -6.738  0.00  0.00    +0.024 A 
ATOM     25  C   LIG    1        1.934  -3.274  -6.391  0.00  0.00    +0.010 A 
BRANCH  23  26
ATOM     26  N   LIG    1        4.354  -5.993  -6.333  0.00  0.00    -0.336 N 
ATOM     27  C   LIG    1        5.232  -5.595  -7.436  0.00  0.00    +0.129 C 
ATOM     28  C   LIG    1        4.607  -7.242  -5.610  0.00  0.00    +0.129 C 
ENDBRANCH  23  26
ENDBRANCH   1  20
TORSDOF 4
