REMARK  Name = ZINC28896391
REMARK                            x       y       z     vdW  Elec       q    Type
REMARK                         _______ _______ _______ _____ _____    ______ ____
ROOT
ATOM      1  C   LIG    1       -7.548   1.860   1.413  0.00  0.00    +0.103 C 
ATOM      2  C   LIG    1       -6.588   0.737   1.004  0.00  0.00    +0.123 C 
ATOM      3  N   LIG    1       -5.227   1.290   0.928  0.00  0.00    -0.299 N 
ATOM      4  C   LIG    1       -4.465   1.103  -0.168  0.00  0.00    +0.222 C 
ATOM      5  O   LIG    1       -4.928   0.549  -1.142  0.00  0.00    -0.275 OA
ATOM      6  C   LIG    1       -4.719   2.047   2.082  0.00  0.00    +0.123 C 
ATOM      7  C   LIG    1       -5.754   3.123   2.447  0.00  0.00    +0.103 C 
ATOM      8  N   LIG    1       -7.062   2.487   2.650  0.00  0.00    -0.297 NA
ENDROOT
BRANCH   4   9
ATOM      9  C   LIG    1       -3.037   1.584  -0.182  0.00  0.00    +0.048 C 
ATOM     10  C   LIG    1       -2.345   1.088  -1.454  0.00  0.00    +0.019 C 
ATOM     11  C   LIG    1       -0.895   1.575  -1.469  0.00  0.00    -0.009 C 
ATOM     12  C   LIG    1       -0.160   1.029  -0.242  0.00  0.00    +0.007 C 
ATOM     13  C   LIG    1       -0.852   1.525   1.029  0.00  0.00    -0.009 C 
ATOM     14  C   LIG    1       -0.828   3.055   1.059  0.00  0.00    +0.007 C 
ATOM     15  C   LIG    1       -1.562   3.601  -0.167  0.00  0.00    -0.009 C 
ATOM     16  C   LIG    1       -0.871   3.105  -1.438  0.00  0.00    +0.007 C 
ATOM     17  C   LIG    1       -3.012   3.113  -0.152  0.00  0.00    +0.019 C 
ATOM     18  C   LIG    1       -2.302   1.038   1.044  0.00  0.00    +0.019 C 
ENDBRANCH   4   9
BRANCH   8  19
ATOM     19  C   LIG    1       -8.041   3.451   3.170  0.00  0.00    +0.112 C 
BRANCH  19  20
ATOM     20  C   LIG    1       -9.197   2.698   3.831  0.00  0.00    +0.171 C 
BRANCH  20  21
ATOM     21  O   LIG    1       -8.708   1.968   4.958  0.00  0.00    -0.394 OA
ATOM     22  H   LIG    1       -9.399   1.362   5.562  0.00  0.00    +0.209 HD
ENDBRANCH  20  21
ENDBRANCH  19  20
ENDBRANCH   8  19
TORSDOF 4
