REMARK  Name = ZINC21524914
REMARK                            x       y       z     vdW  Elec       q    Type
REMARK                         _______ _______ _______ _____ _____    ______ ____
ROOT
ATOM      1  C   LIG    1        3.704  -0.327   0.140  0.00  0.00    +0.069 A 
ATOM      2  C   LIG    1        2.413  -0.005  -0.197  0.00  0.00    +0.089 A 
ATOM      3  C   LIG    1        2.312   1.474  -0.116  0.00  0.00    +0.082 A 
ATOM      4  N   LIG    1        1.084   2.085  -0.413  0.00  0.00    -0.294 N 
ATOM      5  C   LIG    1        0.921   3.540  -0.351  0.00  0.00    +0.154 C 
ATOM      6  C   LIG    1        0.058   1.276  -0.759  0.00  0.00    +0.332 A 
ATOM      7  N   LIG    1        0.113  -0.056  -0.840  0.00  0.00    -0.263 N 
ATOM      8  C   LIG    1       -1.102  -0.775  -1.231  0.00  0.00    +0.157 C 
ATOM      9  O   LIG    1       -1.004   1.807  -1.022  0.00  0.00    -0.246 OA
ATOM     10  C   LIG    1        3.506   1.916   0.250  0.00  0.00    +0.076 A 
ATOM     11  C   LIG    1        3.966   3.334   0.512  0.00  0.00    +0.186 C 
ATOM     12  N   LIG    1        5.422   3.381   0.302  0.00  0.00    -0.328 N 
ATOM     13  H   LIG    1        5.879   4.256  -0.183  0.00  0.00    +0.147 HD
ATOM     14  C   LIG    1        6.227   2.315   0.717  0.00  0.00    +0.052 A 
ATOM     15  C   LIG    1        7.548   2.531   1.079  0.00  0.00    +0.025 A 
ATOM     16  C   LIG    1        8.348   1.462   1.436  0.00  0.00    +0.002 A 
ATOM     17  C   LIG    1        7.841   0.175   1.432  0.00  0.00    +0.002 A 
ATOM     18  C   LIG    1        6.521  -0.050   1.081  0.00  0.00    +0.028 A 
ATOM     19  C   LIG    1        5.711   1.016   0.741  0.00  0.00    +0.068 A 
ATOM     20  C   LIG    1        1.231  -0.783  -0.582  0.00  0.00    +0.266 A 
ATOM     21  O   LIG    1        1.250  -1.997  -0.663  0.00  0.00    -0.267 OA
ATOM     22  N   LIG    1        4.364   0.835   0.394  0.00  0.00    -0.306 N 
ENDROOT
BRANCH   1  28
ATOM     23  C   LIG    1        7.093  -3.674  -1.342  0.00  0.00    +0.044 C 
ATOM     24  C   LIG    1        5.902  -3.302  -0.496  0.00  0.00    -0.050 A 
ATOM     25  C   LIG    1        5.339  -4.239   0.353  0.00  0.00    +0.003 A 
ATOM     26  C   LIG    1        4.246  -3.907   1.133  0.00  0.00    +0.001 A 
ATOM     27  C   LIG    1        3.709  -2.638   1.069  0.00  0.00    +0.010 A 
ATOM     28  C   LIG    1        4.272  -1.687   0.214  0.00  0.00    -0.000 A 
ATOM     29  C   LIG    1        5.373  -2.032  -0.575  0.00  0.00    +0.013 A 
ENDBRANCH   1  28
BRANCH  11  30
ATOM     30  C   LIG    1        3.644   3.720   1.933  0.00  0.00    +0.131 A 
ATOM     31  C   LIG    1        4.285   3.283   3.032  0.00  0.00    +0.047 A 
ATOM     32  C   LIG    1        3.660   3.897   4.142  0.00  0.00    +0.045 A 
ATOM     33  C   LIG    1        2.669   4.665   3.655  0.00  0.00    +0.102 A 
ATOM     34  C   LIG    1        1.724   5.507   4.473  0.00  0.00    +0.086 C 
ATOM     35  O   LIG    1        2.664   4.554   2.317  0.00  0.00    -0.463 OA
ENDBRANCH  11  30
TORSDOF 2
