REMARK  Name = ZINC13975598
REMARK                            x       y       z     vdW  Elec       q    Type
REMARK                         _______ _______ _______ _____ _____    ______ ____
ROOT
ATOM      1  C   LIG    1       -0.723  -1.989  -0.563  0.00  0.00    +0.309 C 
ATOM      2  O   LIG    1       -0.944  -0.567  -0.543  0.00  0.00    -0.440 OA
ATOM      3  C   LIG    1        0.221  -0.011  -0.992  0.00  0.00    +0.168 A 
ATOM      4  C   LIG    1        0.503   1.250  -1.478  0.00  0.00    +0.065 A 
ATOM      5  C   LIG    1        1.804   1.568  -1.879  0.00  0.00    +0.076 A 
ATOM      6  C   LIG    1        2.815   0.605  -1.785  0.00  0.00    +0.139 A 
ATOM      7  F   LIG    1        4.074   0.908  -2.171  0.00  0.00    -0.205 F 
ATOM      8  C   LIG    1        2.525  -0.654  -1.299  0.00  0.00    +0.088 A 
ATOM      9  C   LIG    1        1.234  -0.968  -0.902  0.00  0.00    +0.170 A 
ATOM     10  O   LIG    1        0.702  -2.118  -0.397  0.00  0.00    -0.440 OA
ENDROOT
BRANCH   1  11
ATOM     11  C   LIG    1       -1.157  -2.577  -1.881  0.00  0.00    +0.059 A 
ATOM     12  C   LIG    1       -1.994  -1.860  -2.715  0.00  0.00    +0.014 A 
ATOM     13  C   LIG    1       -2.393  -2.398  -3.924  0.00  0.00    +0.020 A 
ATOM     14  C   LIG    1       -1.953  -3.655  -4.301  0.00  0.00    +0.042 A 
ATOM     15 CL   LIG    1       -2.453  -4.330  -5.820  0.00  0.00    -0.083 Cl
ATOM     16  C   LIG    1       -1.115  -4.373  -3.467  0.00  0.00    +0.040 A 
ATOM     17  C   LIG    1       -0.712  -3.831  -2.259  0.00  0.00    +0.053 A 
ATOM     18 CL   LIG    1        0.346  -4.728  -1.215  0.00  0.00    -0.083 Cl
ENDBRANCH   1  11
BRANCH   5  19
ATOM     19  C   LIG    1        2.109   2.914  -2.399  0.00  0.00    +0.250 C 
ATOM     20  N   LIG    1        1.742   4.005  -1.699  0.00  0.00    -0.293 N 
ATOM     21  C   LIG    1        1.136   3.881  -0.364  0.00  0.00    +0.136 C 
ATOM     22  C   LIG    1        1.898   4.809   0.596  0.00  0.00    +0.179 C 
ATOM     23  O   LIG    1        1.943   6.125   0.040  0.00  0.00    -0.377 OA
ATOM     24  C   LIG    1        2.647   6.212  -1.201  0.00  0.00    +0.179 C 
ATOM     25  C   LIG    1        1.928   5.357  -2.251  0.00  0.00    +0.136 C 
ATOM     26  O   LIG    1        2.692   3.038  -3.458  0.00  0.00    -0.270 OA
ENDBRANCH   5  19
BRANCH   1  33
ATOM     27  C   LIG    1       -0.820  -3.633   1.322  0.00  0.00    +0.014 A 
ATOM     28  C   LIG    1       -1.485  -4.240   2.370  0.00  0.00    +0.039 A 
ATOM     29  C   LIG    1       -2.787  -3.874   2.668  0.00  0.00    +0.123 A 
ATOM     30  F   LIG    1       -3.440  -4.470   3.690  0.00  0.00    -0.205 F 
ATOM     31  C   LIG    1       -3.419  -2.897   1.918  0.00  0.00    +0.039 A 
ATOM     32  C   LIG    1       -2.751  -2.288   0.873  0.00  0.00    +0.014 A 
ATOM     33  C   LIG    1       -1.451  -2.654   0.577  0.00  0.00    +0.041 A 
ENDBRANCH   1  33
TORSDOF 3
