REMARK  Name = ZINC19227925
REMARK                            x       y       z     vdW  Elec       q    Type
REMARK                         _______ _______ _______ _____ _____    ______ ____
ROOT
ATOM      1  C   LIG    1       -2.797  -2.418   0.169  0.00  0.00    +0.065 C 
ATOM      2  C   LIG    1       -2.940  -3.730  -0.086  0.00  0.00    +0.016 C 
ATOM      3  C   LIG    1       -1.718  -4.604  -0.201  0.00  0.00    +0.061 C 
ATOM      4  N   LIG    1       -4.183  -4.281  -0.244  0.00  0.00    -0.321 N 
ATOM      5  H   LIG    1       -4.297  -5.242  -0.172  0.00  0.00    +0.152 HD
ATOM      6  C   LIG    1       -5.264  -3.484  -0.504  0.00  0.00    +0.016 C 
ATOM      7  C   LIG    1       -6.522  -4.095  -1.064  0.00  0.00    +0.061 C 
ATOM      8  C   LIG    1       -5.217  -2.162  -0.266  0.00  0.00    +0.065 C 
ATOM      9  C   LIG    1       -3.987  -1.512   0.305  0.00  0.00    +0.096 C 
ENDROOT
BRANCH   9  10
ATOM     10  C   LIG    1       -4.214  -1.206   1.764  0.00  0.00    -0.033 A 
ATOM     11  C   LIG    1       -4.462  -2.233   2.655  0.00  0.00    +0.005 A 
ATOM     12  C   LIG    1       -4.669  -1.953   3.993  0.00  0.00    +0.003 A 
ATOM     13  C   LIG    1       -4.628  -0.645   4.439  0.00  0.00    +0.032 A 
ATOM     14  C   LIG    1       -4.380   0.382   3.548  0.00  0.00    +0.122 A 
ATOM     15  C   LIG    1       -4.168   0.101   2.211  0.00  0.00    +0.037 A 
BRANCH  14  16
ATOM     16  N   LIG    1       -4.337   1.782   4.026  0.00  0.00    +0.006 N 
ATOM     17  O   LIG    1       -4.519   2.028   5.196  0.00  0.00    -0.130 OA
BRANCH  16  18
ATOM     18  O   LIG    1       -4.119   2.681   3.247  0.00  0.00    -0.396 OA
ATOM     19  H   LIG    1       -3.978   2.490   2.340  0.00  0.00    +0.329 HD
ENDBRANCH  16  18
ENDBRANCH  14  16
ENDBRANCH   9  10
BRANCH   1  20
ATOM     20  C   LIG    1       -1.498  -1.880   0.318  0.00  0.00    +0.338 C 
ATOM     21  O   LIG    1       -1.015  -1.199  -0.568  0.00  0.00    -0.245 OA
BRANCH  20  22
ATOM     22  O   LIG    1       -0.792  -2.122   1.443  0.00  0.00    -0.462 OA
BRANCH  22  24
ATOM     23  C   LIG    1        1.154  -1.928   2.863  0.00  0.00    +0.048 C 
ATOM     24  C   LIG    1        0.513  -1.548   1.526  0.00  0.00    +0.229 C 
ENDBRANCH  22  24
ENDBRANCH  20  22
ENDBRANCH   1  20
BRANCH   8  25
ATOM     25  C   LIG    1       -6.350  -1.366  -0.555  0.00  0.00    +0.337 C 
ATOM     26  O   LIG    1       -7.353  -1.880  -1.014  0.00  0.00    -0.245 OA
BRANCH  25  27
ATOM     27  O   LIG    1       -6.319  -0.038  -0.321  0.00  0.00    -0.465 OA
ATOM     28  C   LIG    1       -7.499   0.704  -0.637  0.00  0.00    +0.280 C 
ENDBRANCH  25  27
ENDBRANCH   8  25
TORSDOF 8
