REMARK  Name = ZINC22063639
REMARK                            x       y       z     vdW  Elec       q    Type
REMARK                         _______ _______ _______ _____ _____    ______ ____
ROOT
ATOM      1  C   LIG    1        4.403   4.105   0.029  0.00  0.00    +0.045 C 
ATOM      2  C   LIG    1        3.073   3.397   0.022  0.00  0.00    -0.029 A 
ATOM      3  C   LIG    1        3.020   2.030  -0.177  0.00  0.00    +0.007 A 
ATOM      4  C   LIG    1        1.804   1.376  -0.178  0.00  0.00    +0.024 A 
ATOM      5  C   LIG    1        0.627   2.092   0.010  0.00  0.00    +0.035 A 
ATOM      6  C   LIG    1        0.677   3.464   0.210  0.00  0.00    +0.047 A 
ATOM      7  C   LIG    1        1.901   4.118   0.216  0.00  0.00    +0.038 A 
ENDROOT
BRANCH   5   8
ATOM      8  N   LIG    1       -0.604   1.430   0.003  0.00  0.00    -0.281 N 
ATOM      9  H   LIG    1       -1.451   1.837   0.575  0.00  0.00    +0.155 HD
ATOM     10  C   LIG    1       -0.754   0.293  -0.705  0.00  0.00    +0.248 C 
ATOM     11  O   LIG    1        0.151  -0.106  -1.413  0.00  0.00    -0.270 OA
BRANCH  10  12
ATOM     12  C   LIG    1       -2.018  -0.469  -0.622  0.00  0.00    +0.037 A 
ATOM     13  C   LIG    1       -3.056  -0.017   0.195  0.00  0.00    +0.013 A 
ATOM     14  C   LIG    1       -4.235  -0.730   0.264  0.00  0.00    +0.005 A 
ATOM     15  C   LIG    1       -4.385  -1.897  -0.464  0.00  0.00    -0.033 A 
ATOM     16  C   LIG    1       -3.358  -2.353  -1.270  0.00  0.00    +0.005 A 
ATOM     17  C   LIG    1       -2.176  -1.647  -1.353  0.00  0.00    +0.013 A 
BRANCH  15  18
ATOM     18  C   LIG    1       -5.674  -2.674  -0.378  0.00  0.00    +0.143 C 
ATOM     19 CL   LIG    1       -5.561  -3.877   0.960  0.00  0.00    -0.120 Cl
ENDBRANCH  15  18
ENDBRANCH  10  12
ENDBRANCH   5   8
BRANCH   7  20
ATOM     20  N   LIG    1        1.956   5.500   0.416  0.00  0.00    -0.283 N 
ATOM     21  H   LIG    1        2.867   5.962   0.824  0.00  0.00    +0.155 HD
BRANCH  20  22
ATOM     22  C   LIG    1        0.862   6.290   0.102  0.00  0.00    +0.220 A 
ATOM     23  N   LIG    1       -0.178   5.738  -0.509  0.00  0.00    -0.223 NA
ATOM     24  C   LIG    1       -1.242   6.458  -0.827  0.00  0.00    +0.116 A 
ATOM     25  C   LIG    1       -1.265   7.806  -0.514  0.00  0.00    +0.048 A 
ATOM     26  C   LIG    1       -0.155   8.359   0.130  0.00  0.00    +0.077 A 
ATOM     27  N   LIG    1        0.878   7.573   0.423  0.00  0.00    -0.214 NA
BRANCH  26  28
ATOM     28  C   LIG    1       -0.131   9.799   0.486  0.00  0.00    +0.019 A 
ATOM     29  C   LIG    1        0.979  10.353   1.131  0.00  0.00    +0.013 A 
ATOM     30  C   LIG    1        0.952  11.701   1.442  0.00  0.00    +0.020 A 
ATOM     31  C   LIG    1       -0.162  12.450   1.109  0.00  0.00    +0.111 A 
ATOM     32  N   LIG    1       -1.195  11.899   0.501  0.00  0.00    -0.263 NA
ATOM     33  C   LIG    1       -1.213  10.622   0.180  0.00  0.00    +0.120 A 
ENDBRANCH  26  28
ENDBRANCH  20  22
ENDBRANCH   7  20
TORSDOF 6
