REMARK  Name = ZINC28604289
REMARK                            x       y       z     vdW  Elec       q    Type
REMARK                         _______ _______ _______ _____ _____    ______ ____
ROOT
ATOM      1  C   LIG    1        2.310   7.909   0.202  0.00  0.00    +0.035 A 
ATOM      2  C   LIG    1        3.526   7.235   0.196  0.00  0.00    +0.024 A 
ATOM      3  C   LIG    1        4.708   7.945   0.188  0.00  0.00    +0.010 A 
ATOM      4  C   LIG    1        4.683   9.340   0.197  0.00  0.00    -0.017 A 
ATOM      5  C   LIG    1        3.461  10.013   0.209  0.00  0.00    +0.010 A 
ATOM      6  C   LIG    1        2.282   9.298   0.211  0.00  0.00    +0.024 A 
ENDROOT
BRANCH   4   7
ATOM      7  C   LIG    1        5.951  10.105   0.194  0.00  0.00    -0.005 A 
ATOM      8  C   LIG    1        6.157  11.125  -0.716  0.00  0.00    +0.009 A 
ATOM      9  C   LIG    1        7.342  11.855  -0.728  0.00  0.00    +0.003 A 
ATOM     10  C   LIG    1        8.360  11.609   0.134  0.00  0.00    +0.028 A 
ATOM     11  C   LIG    1        8.251  10.585   1.099  0.00  0.00    +0.066 A 
ATOM     12  N   LIG    1        9.040  10.115   2.048  0.00  0.00    -0.298 N 
ATOM     13  H   LIG    1       10.036  10.557   2.204  0.00  0.00    +0.187 HD
ATOM     14  N   LIG    1        8.390   9.067   2.710  0.00  0.00    -0.286 N 
ATOM     15  H   LIG    1        8.730   8.439   3.547  0.00  0.00    +0.188 HD
ATOM     16  C   LIG    1        7.174   8.871   2.172  0.00  0.00    +0.118 A 
ATOM     17  C   LIG    1        7.012   9.793   1.147  0.00  0.00    +0.046 A 
BRANCH  16  18
ATOM     18  N   LIG    1        6.247   7.920   2.571  0.00  0.00    -0.343 N 
ATOM     19  H   LIG    1        5.276   7.849   2.058  0.00  0.00    +0.144 HD
ATOM     20  H   LIG    1        6.481   7.237   3.400  0.00  0.00    +0.144 HD
ENDBRANCH  16  18
ENDBRANCH   4   7
BRANCH   1  24
ATOM     21  N   LIG    1       -0.153   5.376  -0.548  0.00  0.00    -0.269 N 
ATOM     22  H   LIG    1       -1.060   5.831  -0.121  0.00  0.00    +0.156 HD
ATOM     23  C   LIG    1        1.025   6.025  -0.473  0.00  0.00    +0.308 C 
ATOM     24  N   LIG    1        1.113   7.186   0.205  0.00  0.00    -0.269 N 
ATOM     25  H   LIG    1        0.243   7.566   0.761  0.00  0.00    +0.156 HD
ATOM     26  O   LIG    1        2.009   5.563  -1.018  0.00  0.00    -0.252 OA
BRANCH  21  32
ATOM     27  C   LIG    1       -2.112   0.872  -0.779  0.00  0.00    +0.044 C 
ATOM     28  C   LIG    1       -1.165   1.922  -1.301  0.00  0.00    -0.049 A 
ATOM     29  C   LIG    1       -0.365   1.648  -2.396  0.00  0.00    +0.003 A 
ATOM     30  C   LIG    1        0.501   2.610  -2.881  0.00  0.00    +0.002 A 
ATOM     31  C   LIG    1        0.573   3.847  -2.271  0.00  0.00    +0.023 A 
ATOM     32  C   LIG    1       -0.225   4.124  -1.169  0.00  0.00    +0.035 A 
ATOM     33  C   LIG    1       -1.093   3.155  -0.683  0.00  0.00    +0.026 A 
ENDBRANCH  21  32
ENDBRANCH   1  24
TORSDOF 4
