REMARK  Name = ZINC24687750
REMARK                            x       y       z     vdW  Elec       q    Type
REMARK                         _______ _______ _______ _____ _____    ______ ____
ROOT
ATOM      1  C   LIG    1       -0.143  -2.710   0.779  0.00  0.00    -0.049 A 
ATOM      2  C   LIG    1       -0.884  -1.860   1.581  0.00  0.00    +0.007 A 
ATOM      3  C   LIG    1       -0.854  -0.499   1.361  0.00  0.00    +0.049 A 
ATOM      4  C   LIG    1       -0.073   0.021   0.326  0.00  0.00    +0.119 A 
ATOM      5  C   LIG    1        0.668  -0.843  -0.483  0.00  0.00    +0.049 A 
ATOM      6  C   LIG    1        0.633  -2.202  -0.248  0.00  0.00    +0.007 A 
ENDROOT
BRANCH   4   7
ATOM      7  N   LIG    1       -0.040   1.370   0.102  0.00  0.00    -0.200 N 
ATOM      8  H   LIG    1       -0.273   1.768  -0.896  0.00  0.00    +0.298 HD
BRANCH   7   9
ATOM      9  C   LIG    1        0.272   2.192   1.082  0.00  0.00    +0.322 C 
ATOM     10  N   LIG    1        0.678   1.690   2.301  0.00  0.00    -0.099 NA
ATOM     11  H   LIG    1        0.938   2.377   3.119  0.00  0.00    +0.363 HD
BRANCH   9  12
ATOM     12  C   LIG    1        0.188   3.642   0.877  0.00  0.00    +0.102 A 
ATOM     13  C   LIG    1        0.467   4.667   1.766  0.00  0.00    +0.023 A 
ATOM     14  C   LIG    1        0.302   5.953   1.310  0.00  0.00    +0.008 A 
ATOM     15  C   LIG    1       -0.119   6.155   0.035  0.00  0.00    +0.046 A 
ATOM     16  S   LIG    1       -0.294   4.546  -0.584  0.00  0.00    -0.089 S 
ENDBRANCH   9  12
ENDBRANCH   7   9
ENDBRANCH   4   7
BRANCH   1  17
ATOM     17  C   LIG    1       -0.181  -4.196   1.026  0.00  0.00    +0.016 C 
BRANCH  17  18
ATOM     18  C   LIG    1       -1.311  -4.821   0.205  0.00  0.00    -0.077 C 
BRANCH  18  19
ATOM     19  N   LIG    1       -1.348  -6.269   0.445  0.00  0.00    +0.382 N 
ATOM     20  H   LIG    1       -0.380  -6.701   0.150  0.00  0.00    -0.085 HD
ATOM     21  H   LIG    1       -1.515  -6.445   1.518  0.00  0.00    -0.085 HD
BRANCH  19  22
ATOM     22  C   LIG    1       -2.423  -6.904  -0.328  0.00  0.00    -0.047 C 
BRANCH  22  25
ATOM     23  C   LIG    1       -1.683 -10.597  -0.596  0.00  0.00    +0.002 A 
ATOM     24  C   LIG    1       -1.681  -9.237  -0.848  0.00  0.00    +0.002 A 
ATOM     25  C   LIG    1       -2.430  -8.386  -0.057  0.00  0.00    -0.063 A 
ATOM     26  C   LIG    1       -3.189  -8.896   0.980  0.00  0.00    +0.021 A 
ATOM     27  C   LIG    1       -3.196 -10.257   1.229  0.00  0.00    +0.041 A 
ATOM     28 CL   LIG    1       -4.150 -10.897   2.530  0.00  0.00    -0.084 Cl
ATOM     29  C   LIG    1       -2.442 -11.107   0.440  0.00  0.00    +0.020 A 
ENDBRANCH  22  25
ENDBRANCH  19  22
ENDBRANCH  18  19
ENDBRANCH  17  18
ENDBRANCH   1  17
TORSDOF 8
