REMARK  Name = ZINC22441997
REMARK                            x       y       z     vdW  Elec       q    Type
REMARK                         _______ _______ _______ _____ _____    ______ ____
ROOT
ATOM      1  N   LIG    1       -1.403  -2.910  -0.231  0.00  0.00    +0.385 N 
ATOM      2  H   LIG    1       -1.595  -3.336  -1.125  0.00  0.00    -0.085 HD
ATOM      3  H   LIG    1       -1.799  -1.983  -0.207  0.00  0.00    -0.085 HD
ENDROOT
BRANCH   1   4
ATOM      4  C   LIG    1       -1.997  -3.724   0.838  0.00  0.00    -0.050 C 
ATOM      5  C   LIG    1       -1.815  -3.015   2.183  0.00  0.00    -0.013 C 
ATOM      6  C   LIG    1       -2.557  -1.676   2.149  0.00  0.00    +0.014 C 
ATOM      7  C   LIG    1       -4.035  -1.924   1.838  0.00  0.00    +0.081 C 
ATOM      8  N   LIG    1       -4.156  -2.604   0.541  0.00  0.00    -0.311 NA
ATOM      9  H   LIG    1       -5.123  -2.694   0.269  0.00  0.00    +0.122 HD
ATOM     10  C   LIG    1       -3.491  -3.914   0.564  0.00  0.00    +0.070 C 
BRANCH  10  11
ATOM     11  C   LIG    1       -3.675  -4.595  -0.768  0.00  0.00    -0.032 A 
ATOM     12  C   LIG    1       -3.583  -3.862  -1.937  0.00  0.00    +0.005 A 
ATOM     13  C   LIG    1       -3.752  -4.487  -3.159  0.00  0.00    +0.000 A 
ATOM     14  C   LIG    1       -4.011  -5.843  -3.212  0.00  0.00    +0.000 A 
ATOM     15  C   LIG    1       -4.102  -6.576  -2.043  0.00  0.00    +0.000 A 
ATOM     16  C   LIG    1       -3.929  -5.952  -0.821  0.00  0.00    +0.005 A 
ENDBRANCH  10  11
ENDBRANCH   1   4
BRANCH   1  17
ATOM     17  C   LIG    1        0.050  -2.826  -0.031  0.00  0.00    -0.043 C 
BRANCH  17  23
ATOM     18  C   LIG    1        0.606  -0.608  -1.056  0.00  0.00    +0.122 A 
ATOM     19  C   LIG    1        1.173   0.161  -2.062  0.00  0.00    +0.049 A 
ATOM     20  C   LIG    1        1.786  -0.452  -3.138  0.00  0.00    +0.049 A 
ATOM     21  C   LIG    1        1.835  -1.836  -3.211  0.00  0.00    +0.130 A 
ATOM     22  C   LIG    1        1.269  -2.604  -2.205  0.00  0.00    +0.051 A 
ATOM     23  C   LIG    1        0.661  -1.991  -1.127  0.00  0.00    -0.019 A 
BRANCH  18  25
ATOM     24  C   LIG    1       -0.017   1.425   0.010  0.00  0.00    +0.277 C 
ATOM     25  O   LIG    1        0.002  -0.004   0.002  0.00  0.00    -0.495 OA
ENDBRANCH  18  25
BRANCH  21  26
ATOM     26  O   LIG    1        2.439  -2.439  -4.270  0.00  0.00    -0.406 OA
BRANCH  26  27
ATOM     27  C   LIG    1        3.000  -1.586  -5.269  0.00  0.00    +0.575 C 
ATOM     28  F   LIG    1        1.993  -0.784  -5.817  0.00  0.00    -0.133 F 
ATOM     29  F   LIG    1        3.576  -2.366  -6.278  0.00  0.00    -0.133 F 
ATOM     30  F   LIG    1        3.981  -0.773  -4.691  0.00  0.00    -0.133 F 
ENDBRANCH  26  27
ENDBRANCH  21  26
ENDBRANCH  17  23
ENDBRANCH   1  17
TORSDOF 7
