REMARK  Name = ZINC28710872
REMARK                            x       y       z     vdW  Elec       q    Type
REMARK                         _______ _______ _______ _____ _____    ______ ____
ROOT
ATOM      1  C   LIG    1        2.419   3.937   0.001  0.00  0.00    +0.339 C 
ATOM      2  O   LIG    1        3.481   3.349  -0.012  0.00  0.00    -0.245 OA
ENDROOT
BRANCH   1   6
ATOM      3  C   LIG    1       -1.221   1.750   0.017  0.00  0.00    +0.000 A 
ATOM      4  C   LIG    1       -0.013   1.076   0.008  0.00  0.00    +0.001 A 
ATOM      5  C   LIG    1        1.173   1.780   0.000  0.00  0.00    +0.015 A 
ATOM      6  C   LIG    1        1.153   3.176   0.008  0.00  0.00    +0.059 A 
ATOM      7  C   LIG    1       -0.070   3.850   0.023  0.00  0.00    +0.015 A 
ATOM      8  C   LIG    1       -1.249   3.133   0.031  0.00  0.00    +0.001 A 
ENDBRANCH   1   6
BRANCH   1   9
ATOM      9  O   LIG    1        2.395   5.284   0.008  0.00  0.00    -0.459 OA
BRANCH   9  10
ATOM     10  C   LIG    1        3.677   5.966   0.000  0.00  0.00    +0.264 C 
BRANCH  10  11
ATOM     11  C   LIG    1        3.450   7.479   0.010  0.00  0.00    +0.156 C 
ATOM     12  C   LIG    1        4.795   8.198  -0.124  0.00  0.00    +0.035 C 
ATOM     13  C   LIG    1        4.566   9.711  -0.053  0.00  0.00    +0.005 C 
ATOM     14  C   LIG    1        3.856  10.047   1.262  0.00  0.00    +0.028 C 
ATOM     15  C   LIG    1        2.547   9.257   1.343  0.00  0.00    +0.160 C 
ATOM     16  O   LIG    1        2.829   7.859   1.240  0.00  0.00    -0.373 OA
ENDBRANCH  10  11
ENDBRANCH   9  10
ENDBRANCH   1   9
TORSDOF 4
