REMARK  Name = ZINC14945706
REMARK                            x       y       z     vdW  Elec       q    Type
REMARK                         _______ _______ _______ _____ _____    ______ ____
ROOT
ATOM      1  C   LIG    1        1.238  -2.097  -0.021  0.00  0.00    +0.131 A 
ATOM      2  C   LIG    1        1.246  -0.680  -0.013  0.00  0.00    +0.040 A 
ATOM      3  C   LIG    1        2.436   0.057  -0.021  0.00  0.00    +0.013 A 
ATOM      4  C   LIG    1        2.381   1.420  -0.013  0.00  0.00    +0.001 A 
ATOM      5  C   LIG    1        1.159   2.086   0.002  0.00  0.00    +0.002 A 
ATOM      6  C   LIG    1       -0.017   1.397   0.010  0.00  0.00    +0.028 A 
ATOM      7  C   LIG    1        0.002  -0.004   0.002  0.00  0.00    +0.077 A 
ATOM      8  N   LIG    1       -1.126  -0.730   0.008  0.00  0.00    -0.224 NA
ATOM      9  C   LIG    1       -1.073  -2.041   0.001  0.00  0.00    +0.236 A 
ATOM     10  N   LIG    1        0.065  -2.716  -0.013  0.00  0.00    -0.209 NA
ENDROOT
BRANCH   9  11
ATOM     11  C   LIG    1       -2.368  -2.813   0.008  0.00  0.00    +0.452 C 
ATOM     12  F   LIG    1       -2.582  -3.352   1.281  0.00  0.00    -0.163 F 
ATOM     13  F   LIG    1       -2.299  -3.847  -0.931  0.00  0.00    -0.163 F 
ATOM     14  F   LIG    1       -3.424  -1.955  -0.319  0.00  0.00    -0.163 F 
ENDBRANCH   9  11
BRANCH   1  15
ATOM     15  N   LIG    1        2.416  -2.812  -0.036  0.00  0.00    -0.324 N 
ATOM     16  H   LIG    1        3.267  -2.345  -0.041  0.00  0.00    +0.148 HD
BRANCH  15  18
ATOM     17  C   LIG    1        1.640  -4.763  -1.289  0.00  0.00    +0.031 C 
ATOM     18  C   LIG    1        2.384  -4.276  -0.044  0.00  0.00    +0.025 C 
ATOM     19  C   LIG    1        1.663  -4.777   1.210  0.00  0.00    +0.031 C 
ATOM     20  C   LIG    1        3.815  -4.818  -0.060  0.00  0.00    +0.031 C 
ENDBRANCH  15  18
ENDBRANCH   1  15
TORSDOF 3
