REMARK  Name = ZINC13800430
REMARK                            x       y       z     vdW  Elec       q    Type
REMARK                         _______ _______ _______ _____ _____    ______ ____
ROOT
ATOM      1  C   LIG    1       -0.013   1.375  -0.179  0.00  0.00    +0.004 A 
ATOM      2  C   LIG    1        1.175   2.081  -0.182  0.00  0.00    +0.023 A 
ATOM      3  C   LIG    1        2.380   1.411  -0.018  0.00  0.00    +0.035 A 
ATOM      4  C   LIG    1        2.387   0.032   0.148  0.00  0.00    +0.051 A 
ATOM      5  C   LIG    1        1.197  -0.668   0.150  0.00  0.00    +0.107 A 
ATOM      6  C   LIG    1       -0.002   0.002  -0.014  0.00  0.00    +0.028 A 
ENDROOT
BRANCH   3   7
ATOM      7  N   LIG    1        3.584   2.123  -0.021  0.00  0.00    -0.287 N 
ATOM      8  H   LIG    1        4.387   1.717  -0.382  0.00  0.00    +0.155 HD
ATOM      9  C   LIG    1        3.628   3.375   0.478  0.00  0.00    +0.200 C 
ATOM     10  O   LIG    1        2.649   3.848   1.016  0.00  0.00    -0.278 OA
BRANCH   9  11
ATOM     11  C   LIG    1        4.893   4.186   0.368  0.00  0.00    +0.011 C 
BRANCH  11  12
ATOM     12  N   LIG    1        4.685   5.503   0.983  0.00  0.00    +0.384 N 
ATOM     13  H   LIG    1        5.532   6.047   0.909  0.00  0.00    -0.089 HD
ATOM     14  H   LIG    1        4.444   5.386   1.956  0.00  0.00    -0.089 HD
ATOM     15  H   LIG    1        3.936   5.983   0.506  0.00  0.00    -0.089 HD
ENDBRANCH  11  12
ENDBRANCH   9  11
ENDBRANCH   3   7
BRANCH   5  16
ATOM     16  S   LIG    1        1.206  -2.417   0.360  0.00  0.00    +0.056 S 
ATOM     17  O   LIG    1        2.487  -2.870  -0.054  0.00  0.00    -0.153 OA
ATOM     18  O   LIG    1        0.003  -2.902  -0.221  0.00  0.00    -0.153 OA
BRANCH  16  19
ATOM     19  N   LIG    1        1.100  -2.716   1.985  0.00  0.00    -0.204 NA
ATOM     20  H   LIG    1        1.090  -3.630   2.311  0.00  0.00    +0.144 HD
ATOM     21  H   LIG    1        1.048  -1.977   2.612  0.00  0.00    +0.144 HD
ENDBRANCH  16  19
ENDBRANCH   5  16
TORSDOF 5
