REMARK  Name = ZINC00001669
REMARK                            x       y       z     vdW  Elec       q    Type
REMARK                         _______ _______ _______ _____ _____    ______ ____
ROOT
ATOM      1  C   LIG    1       -0.125   1.518   0.084  0.00  0.00    +0.042 C 
ATOM      2  C   LIG    1        0.001  -0.004   0.003  0.00  0.00    +0.083 C 
ENDROOT
BRANCH   2   3
ATOM      3  O   LIG    1        0.628  -0.365  -1.230  0.00  0.00    -0.388 OA
ATOM      4  H   LIG    1        0.741  -1.318  -1.349  0.00  0.00    +0.210 HD
ENDBRANCH   2   3
BRANCH   2   5
ATOM      5  C   LIG    1       -1.391  -0.636   0.071  0.00  0.00    +0.155 C 
BRANCH   5   6
ATOM      6  C   LIG    1       -2.225  -0.138  -1.082  0.00  0.00    +0.307 C 
ATOM      7  O   LIG    1       -1.750   0.648  -1.883  0.00  0.00    -0.251 OA
BRANCH   6   8
ATOM      8  O   LIG    1       -3.375  -0.522  -1.213  0.00  0.00    -0.481 OA
ATOM      9  H   LIG    1       -3.740  -1.127  -0.597  0.00  0.00    +0.295 HD
ENDBRANCH   6   8
ENDBRANCH   5   6
ENDBRANCH   2   5
BRANCH   2  10
ATOM     10  C   LIG    1        0.848  -0.509   1.173  0.00  0.00    +0.155 C 
BRANCH  10  11
ATOM     11  C   LIG    1        0.970  -2.009   1.094  0.00  0.00    +0.307 C 
ATOM     12  O   LIG    1        0.509  -2.609   0.138  0.00  0.00    -0.251 OA
BRANCH  11  13
ATOM     13  O   LIG    1        1.529  -2.623   1.987  0.00  0.00    -0.481 OA
ATOM     14  H   LIG    1        1.884  -2.162   2.721  0.00  0.00    +0.295 HD
ENDBRANCH  11  13
ENDBRANCH  10  11
ENDBRANCH   2  10
TORSDOF 7
