REMARK  Name = ZINC00024946
REMARK                            x       y       z     vdW  Elec       q    Type
REMARK                         _______ _______ _______ _____ _____    ______ ____
ROOT
ATOM      1  C   LIG    1       -5.442  -2.858  -1.383  0.00  0.00    +0.039 C 
ATOM      2  C   LIG    1       -6.286  -1.961  -2.009  0.00  0.00    +0.090 C 
ATOM      3  N   LIG    1       -6.668  -2.193  -3.256  0.00  0.00    -0.289 NA
ATOM      4  H   LIG    1       -7.260  -1.566  -3.700  0.00  0.00    +0.125 HD
ATOM      5  C   LIG    1       -6.252  -3.270  -3.907  0.00  0.00    +0.192 C 
ATOM      6  N   LIG    1       -5.444  -4.154  -3.342  0.00  0.00    -0.274 NA
ATOM      7  H   LIG    1       -4.613  -4.207  -3.931  0.00  0.00    +0.126 HD
ATOM      8  C   LIG    1       -5.016  -3.981  -2.095  0.00  0.00    +0.126 C 
ENDROOT
BRANCH   5   9
ATOM      9  N   LIG    1       -6.674  -3.477  -5.208  0.00  0.00    -0.303 NA
ATOM     10  H   LIG    1       -6.378  -4.261  -5.696  0.00  0.00    +0.121 HD
ATOM     11  H   LIG    1       -7.267  -2.837  -5.634  0.00  0.00    +0.121 HD
ENDBRANCH   5   9
BRANCH   8  12
ATOM     12  N   LIG    1       -4.166  -4.905  -1.509  0.00  0.00    -0.315 NA
ATOM     13  H   LIG    1       -3.875  -5.682  -2.010  0.00  0.00    +0.120 HD
ATOM     14  H   LIG    1       -3.862  -4.774  -0.597  0.00  0.00    +0.120 HD
ENDBRANCH   8  12
BRANCH   1  15
ATOM     15  C   LIG    1       -4.987  -2.627   0.035  0.00  0.00    +0.043 C 
BRANCH  15  19
ATOM     16  C   LIG    1       -1.201  -0.638   0.010  0.00  0.00    +0.161 A 
ATOM     17  C   LIG    1       -2.374   0.099   0.019  0.00  0.00    +0.049 A 
ATOM     18  C   LIG    1       -3.596  -0.546   0.027  0.00  0.00    +0.007 A 
ATOM     19  C   LIG    1       -3.652  -1.928   0.026  0.00  0.00    -0.043 A 
ATOM     20  C   LIG    1       -2.485  -2.669   0.017  0.00  0.00    +0.053 A 
ATOM     21  C   LIG    1       -1.257  -2.028   0.003  0.00  0.00    +0.162 A 
BRANCH  16  23
ATOM     22  C   LIG    1       -0.017   1.425   0.010  0.00  0.00    +0.277 C 
ATOM     23  O   LIG    1        0.002  -0.004   0.002  0.00  0.00    -0.491 OA
ENDBRANCH  16  23
BRANCH  21  24
ATOM     24  O   LIG    1       -0.108  -2.756  -0.012  0.00  0.00    -0.491 OA
ATOM     25  C   LIG    1       -0.242  -4.179  -0.018  0.00  0.00    +0.277 C 
ENDBRANCH  21  24
ENDBRANCH  15  19
ENDBRANCH   1  15
TORSDOF 6
