REMARK  Name = ZINC34803408
REMARK                            x       y       z     vdW  Elec       q    Type
REMARK                         _______ _______ _______ _____ _____    ______ ____
ROOT
ATOM      1  C   LIG    1        5.449 -11.239  -2.261  0.00  0.00    +0.000 C 
ENDROOT
BRANCH   1   2
ATOM      2  C   LIG    1        5.194  -9.731  -2.230  0.00  0.00    +0.000 C 
BRANCH   2   3
ATOM      3  C   LIG    1        4.718  -9.266  -3.608  0.00  0.00    +0.004 C 
BRANCH   3   4
ATOM      4  C   LIG    1        4.463  -7.757  -3.577  0.00  0.00    +0.027 C 
BRANCH   4   6
ATOM      5  C   LIG    1        2.879  -6.621  -5.047  0.00  0.00    -0.031 C 
ATOM      6  C   LIG    1        3.994  -7.299  -4.934  0.00  0.00    -0.031 C 
BRANCH   5   7
ATOM      7  C   LIG    1        2.154  -6.152  -3.812  0.00  0.00    +0.027 C 
BRANCH   7   8
ATOM      8  C   LIG    1        1.883  -4.650  -3.919  0.00  0.00    +0.004 C 
BRANCH   8   9
ATOM      9  C   LIG    1        1.146  -4.174  -2.665  0.00  0.00    +0.000 C 
BRANCH   9  10
ATOM     10  C   LIG    1        0.875  -2.672  -2.772  0.00  0.00    +0.000 C 
BRANCH  10  11
ATOM     11  C   LIG    1        0.139  -2.196  -1.518  0.00  0.00    -0.000 C 
BRANCH  11  12
ATOM     12  C   LIG    1       -0.132  -0.694  -1.625  0.00  0.00    -0.000 C 
BRANCH  12  14
ATOM     13  C   LIG    1       -1.140   1.284  -0.478  0.00  0.00    +0.004 C 
ATOM     14  C   LIG    1       -0.869  -0.218  -0.371  0.00  0.00    -0.003 C 
ENDBRANCH  12  14
ENDBRANCH  11  12
ENDBRANCH  10  11
ENDBRANCH   9  10
ENDBRANCH   8   9
ENDBRANCH   7   8
ENDBRANCH   5   7
ENDBRANCH   4   6
ENDBRANCH   3   4
ENDBRANCH   2   3
ENDBRANCH   1   2
BRANCH   1  15
ATOM     15  C   LIG    1        5.925 -11.705  -0.884  0.00  0.00    +0.000 C 
BRANCH  15  16
ATOM     16  C   LIG    1        6.179 -13.213  -0.915  0.00  0.00    +0.008 C 
BRANCH  16  17
ATOM     17  C   LIG    1        6.655 -13.678   0.463  0.00  0.00    +0.085 C 
BRANCH  17  18
ATOM     18  C   LIG    1        6.907 -15.164   0.432  0.00  0.00    +0.217 C 
ATOM     19  O   LIG    1        6.723 -15.789  -0.590  0.00  0.00    -0.287 OA
BRANCH  18  20
ATOM     20  C   LIG    1        7.375 -15.857   1.645  0.00  0.00    +0.266 A 
ATOM     21  N   LIG    1        7.599 -15.282   2.800  0.00  0.00    -0.187 NA
ATOM     22  C   LIG    1        8.016 -16.212   3.680  0.00  0.00    +0.199 A 
ATOM     23  C   LIG    1        8.040 -17.438   2.988  0.00  0.00    +0.175 A 
ATOM     24  C   LIG    1        8.437 -18.590   3.659  0.00  0.00    +0.051 A 
ATOM     25  C   LIG    1        8.794 -18.482   4.990  0.00  0.00    +0.023 A 
ATOM     26  C   LIG    1        8.748 -17.241   5.613  0.00  0.00    +0.113 A 
ATOM     27  N   LIG    1        8.371 -16.163   4.963  0.00  0.00    -0.233 NA
ATOM     28  O   LIG    1        7.630 -17.177   1.731  0.00  0.00    -0.431 OA
ENDBRANCH  18  20
ENDBRANCH  17  18
ENDBRANCH  16  17
ENDBRANCH  15  16
ENDBRANCH   1  15
TORSDOF 16
