REMARK  Name = ZINC34803705
REMARK                            x       y       z     vdW  Elec       q    Type
REMARK                         _______ _______ _______ _____ _____    ______ ____
ROOT
ATOM      1  C   LIG    1       -7.092  -8.771   0.023  0.00  0.00    +0.085 C 
ENDROOT
BRANCH   1   2
ATOM      2  C   LIG    1       -7.071 -10.278   0.014  0.00  0.00    +0.217 C 
ATOM      3  O   LIG    1       -6.013 -10.870   0.001  0.00  0.00    -0.287 OA
BRANCH   2   4
ATOM      4  C   LIG    1       -8.337 -11.032   0.022  0.00  0.00    +0.266 A 
ATOM      5  N   LIG    1       -9.531 -10.495   0.031  0.00  0.00    -0.187 NA
ATOM      6  C   LIG    1      -10.454 -11.476   0.036  0.00  0.00    +0.199 A 
ATOM      7  C   LIG    1       -9.746 -12.694   0.031  0.00  0.00    +0.175 A 
ATOM      8  C   LIG    1      -10.453 -13.891   0.034  0.00  0.00    +0.051 A 
ATOM      9  C   LIG    1      -11.835 -13.835   0.043  0.00  0.00    +0.023 A 
ATOM     10  C   LIG    1      -12.470 -12.601   0.049  0.00  0.00    +0.113 A 
ATOM     11  N   LIG    1      -11.786 -11.479   0.045  0.00  0.00    -0.233 NA
ATOM     12  O   LIG    1       -8.437 -12.376   0.016  0.00  0.00    -0.431 OA
ENDBRANCH   2   4
ENDBRANCH   1   2
BRANCH   1  13
ATOM     13  C   LIG    1       -5.657  -8.242   0.012  0.00  0.00    +0.008 C 
BRANCH  13  14
ATOM     14  C   LIG    1       -5.677  -6.712   0.020  0.00  0.00    +0.000 C 
BRANCH  14  15
ATOM     15  C   LIG    1       -4.242  -6.182   0.009  0.00  0.00    +0.000 C 
BRANCH  15  16
ATOM     16  C   LIG    1       -4.263  -4.652   0.018  0.00  0.00    +0.000 C 
BRANCH  16  17
ATOM     17  C   LIG    1       -2.827  -4.123   0.007  0.00  0.00    +0.000 C 
BRANCH  17  18
ATOM     18  C   LIG    1       -2.848  -2.593   0.015  0.00  0.00    -0.000 C 
BRANCH  18  19
ATOM     19  C   LIG    1       -1.413  -2.063   0.004  0.00  0.00    -0.000 C 
BRANCH  19  20
ATOM     20  C   LIG    1       -1.433  -0.534   0.013  0.00  0.00    -0.000 C 
BRANCH  20  22
ATOM     21  C   LIG    1       -0.019   1.526   0.010  0.00  0.00    +0.004 C 
ATOM     22  C   LIG    1        0.002  -0.004   0.002  0.00  0.00    -0.003 C 
ENDBRANCH  20  22
ENDBRANCH  19  20
ENDBRANCH  18  19
ENDBRANCH  17  18
ENDBRANCH  16  17
ENDBRANCH  15  16
ENDBRANCH  14  15
ENDBRANCH  13  14
ENDBRANCH   1  13
TORSDOF 11
