REMARK  Name = ZINC00073545
REMARK                            x       y       z     vdW  Elec       q    Type
REMARK                         _______ _______ _______ _____ _____    ______ ____
ROOT
ATOM      1  C   LIG    1       -0.853   3.508   0.394  0.00  0.00    +0.080 A 
ATOM      2  C   LIG    1        0.415   3.994   0.552  0.00  0.00    +0.076 A 
ATOM      3  S   LIG    1        1.368   2.486   0.427  0.00  0.00    -0.060 S 
ATOM      4  C   LIG    1       -0.006   1.370   0.180  0.00  0.00    +0.163 A 
ATOM      5  N   LIG    1       -1.031   2.203   0.205  0.00  0.00    -0.225 NA
ENDROOT
BRANCH   1   9
ATOM      6  C   LIG    1       -4.189   6.142   0.485  0.00  0.00    +0.000 A 
ATOM      7  C   LIG    1       -4.386   4.786   0.294  0.00  0.00    +0.001 A 
ATOM      8  C   LIG    1       -3.307   3.926   0.264  0.00  0.00    +0.010 A 
ATOM      9  C   LIG    1       -2.016   4.427   0.426  0.00  0.00    +0.001 A 
ATOM     10  C   LIG    1       -1.824   5.793   0.623  0.00  0.00    +0.010 A 
ATOM     11  C   LIG    1       -2.910   6.644   0.646  0.00  0.00    +0.001 A 
ENDBRANCH   1   9
BRANCH   4  12
ATOM     12  N   LIG    1        0.002  -0.004   0.002  0.00  0.00    -0.294 N 
ATOM     13  H   LIG    1       -0.835  -0.493  -0.039  0.00  0.00    +0.154 HD
BRANCH  12  14
ATOM     14  C   LIG    1        1.218  -0.687  -0.118  0.00  0.00    +0.033 A 
ATOM     15  C   LIG    1        2.301  -0.074  -0.736  0.00  0.00    +0.027 A 
ATOM     16  C   LIG    1        3.502  -0.747  -0.850  0.00  0.00    +0.047 A 
ATOM     17  C   LIG    1        3.624  -2.038  -0.356  0.00  0.00    +0.117 A 
ATOM     18  C   LIG    1        2.541  -2.652   0.256  0.00  0.00    +0.047 A 
ATOM     19  C   LIG    1        1.341  -1.979   0.375  0.00  0.00    +0.027 A 
BRANCH  17  20
ATOM     20  O   LIG    1        4.805  -2.701  -0.474  0.00  0.00    -0.507 OA
ATOM     21  H   LIG    1        4.888  -3.215  -1.289  0.00  0.00    +0.292 HD
ENDBRANCH  17  20
ENDBRANCH  12  14
ENDBRANCH   4  12
TORSDOF 4
