REMARK  Name = ZINC36175376
REMARK                            x       y       z     vdW  Elec       q    Type
REMARK                         _______ _______ _______ _____ _____    ______ ____
ROOT
ATOM      1  C   LIG    1       -1.412  -0.526   0.013  0.00  0.00    -0.044 A 
ATOM      2  C   LIG    1       -2.046  -0.764   1.223  0.00  0.00    +0.004 A 
ATOM      3  C   LIG    1       -3.329  -1.237   1.253  0.00  0.00    +0.012 A 
ATOM      4  C   LIG    1       -4.005  -1.482   0.054  0.00  0.00    +0.021 A 
ATOM      5  C   LIG    1       -5.381  -1.988   0.051  0.00  0.00    -0.019 A 
ATOM      6  C   LIG    1       -5.982  -2.204  -1.146  0.00  0.00    +0.096 A 
ATOM      7  C   LIG    1       -5.279  -1.941  -2.342  0.00  0.00    +0.337 A 
ATOM      8  O   LIG    1       -4.020  -1.477  -2.331  0.00  0.00    -0.422 OA
ATOM      9  O   LIG    1       -5.830  -2.139  -3.410  0.00  0.00    -0.245 OA
ATOM     10  C   LIG    1       -3.365  -1.241  -1.175  0.00  0.00    +0.140 A 
ATOM     11  C   LIG    1       -2.063  -0.755  -1.181  0.00  0.00    +0.050 A 
ENDROOT
BRANCH   1  13
ATOM     12  C   LIG    1       -0.019   1.526   0.010  0.00  0.00    +0.009 C 
ATOM     13  C   LIG    1        0.002  -0.004   0.002  0.00  0.00    +0.032 C 
ENDBRANCH   1  13
BRANCH   5  14
ATOM     14  C   LIG    1       -6.107  -2.261   1.343  0.00  0.00    +0.156 C 
BRANCH  14  15
ATOM     15  C   LIG    1       -5.761  -3.644   1.831  0.00  0.00    +0.309 C 
ATOM     16  O   LIG    1       -4.995  -4.343   1.190  0.00  0.00    -0.251 OA
BRANCH  15  17
ATOM     17  O   LIG    1       -6.247  -4.064   2.868  0.00  0.00    -0.480 OA
ATOM     18  H   LIG    1       -6.835  -3.527   3.361  0.00  0.00    +0.295 HD
ENDBRANCH  15  17
ENDBRANCH  14  15
ENDBRANCH   5  14
TORSDOF 4
