REMARK  Name = ZINC49070846
REMARK                            x       y       z     vdW  Elec       q    Type
REMARK                         _______ _______ _______ _____ _____    ______ ____
ROOT
ATOM      1  C   LIG    1       -0.017   1.378   0.010  0.00  0.00    +0.005 A 
ATOM      2  C   LIG    1        1.171   2.086   0.002  0.00  0.00    +0.004 A 
ATOM      3  C   LIG    1        2.377   1.411  -0.013  0.00  0.00    -0.044 A 
ATOM      4  C   LIG    1        2.396   0.029  -0.020  0.00  0.00    +0.004 A 
ATOM      5  C   LIG    1        1.208  -0.679  -0.012  0.00  0.00    +0.005 A 
ATOM      6  C   LIG    1        0.002  -0.004   0.002  0.00  0.00    -0.030 A 
ENDROOT
BRANCH   3   7
ATOM      7  C   LIG    1        3.672   2.182  -0.022  0.00  0.00    +0.019 C 
ATOM      8  C   LIG    1        4.467   1.829  -1.281  0.00  0.00    +0.008 C 
ATOM      9  C   LIG    1        5.781   2.612  -1.290  0.00  0.00    +0.001 C 
ATOM     10  C   LIG    1        6.601   2.248  -0.051  0.00  0.00    +0.000 C 
ATOM     11  C   LIG    1        5.806   2.600   1.208  0.00  0.00    +0.001 C 
ATOM     12  C   LIG    1        4.492   1.817   1.217  0.00  0.00    +0.008 C 
ENDBRANCH   3   7
BRANCH   6  13
ATOM     13  C   LIG    1       -1.293  -0.775   0.011  0.00  0.00    +0.139 C 
BRANCH  13  14
ATOM     14  N   LIG    1       -1.726  -1.018  -1.368  0.00  0.00    -0.313 N 
ATOM     15  H   LIG    1       -1.192  -0.691  -2.108  0.00  0.00    +0.149 HD
ATOM     16  C   LIG    1       -2.867  -1.694  -1.606  0.00  0.00    +0.199 C 
ATOM     17  O   LIG    1       -3.535  -2.103  -0.680  0.00  0.00    -0.278 OA
BRANCH  16  18
ATOM     18  C   LIG    1       -3.312  -1.944  -3.024  0.00  0.00    +0.016 C 
ATOM     19  C   LIG    1       -3.567  -0.600  -3.739  0.00  0.00    -0.009 C 
ATOM     20  C   LIG    1       -4.820  -0.896  -4.604  0.00  0.00    -0.020 C 
ATOM     21  C   LIG    1       -5.615  -1.857  -3.686  0.00  0.00    -0.082 C 
ATOM     22  N   LIG    1       -4.583  -2.692  -3.026  0.00  0.00    +0.387 N 
ATOM     23  H   LIG    1       -4.862  -2.890  -2.077  0.00  0.00    -0.085 HD
ATOM     24  H   LIG    1       -4.468  -3.556  -3.533  0.00  0.00    -0.085 HD
ENDBRANCH  16  18
ENDBRANCH  13  14
ENDBRANCH   6  13
TORSDOF 4
