REMARK  Name = ZINC19368911
REMARK                            x       y       z     vdW  Elec       q    Type
REMARK                         _______ _______ _______ _____ _____    ______ ____
ROOT
ATOM      1  C   LIG    1        1.453  -3.974  -0.034  0.00  0.00    +0.092 C 
ATOM      2  C   LIG    1        2.430  -4.393   1.016  0.00  0.00    +0.060 C 
ATOM      3  C   LIG    1        2.849  -5.820   0.879  0.00  0.00    -0.032 A 
ATOM      4  C   LIG    1        4.090  -6.116   0.327  0.00  0.00    +0.005 A 
ATOM      5  C   LIG    1        4.470  -7.435   0.164  0.00  0.00    +0.000 A 
ATOM      6  C   LIG    1        3.623  -8.461   0.542  0.00  0.00    +0.001 A 
ATOM      7  C   LIG    1        2.394  -8.168   1.103  0.00  0.00    +0.015 A 
ATOM      8  C   LIG    1        2.032  -6.836   1.280  0.00  0.00    +0.016 A 
ATOM      9  S   LIG    1        0.520  -6.422   2.074  0.00  0.00    -0.089 S 
ATOM     10  C   LIG    1       -0.422  -5.516   0.900  0.00  0.00    +0.018 A 
ATOM     11  C   LIG    1       -1.777  -5.880   0.815  0.00  0.00    +0.017 A 
ATOM     12  C   LIG    1       -2.646  -5.247  -0.036  0.00  0.00    +0.021 A 
ATOM     13  C   LIG    1       -2.173  -4.217  -0.831  0.00  0.00    +0.041 A 
ATOM     14 CL   LIG    1       -3.247  -3.378  -1.907  0.00  0.00    -0.084 Cl
ATOM     15  C   LIG    1       -0.847  -3.864  -0.762  0.00  0.00    +0.026 A 
ATOM     16  C   LIG    1        0.056  -4.512   0.094  0.00  0.00    -0.015 A 
ENDROOT
BRANCH   1  22
ATOM     17  C   LIG    1        2.055   1.566   0.797  0.00  0.00    -0.096 C 
ATOM     18  N   LIG    1        2.171   0.102   0.825  0.00  0.00    +0.379 N 
ATOM     19  H   LIG    1        2.900  -0.165   1.469  0.00  0.00    -0.082 HD
ATOM     20  C   LIG    1        0.896  -0.481   1.262  0.00  0.00    -0.064 C 
ATOM     21  C   LIG    1        1.022  -2.006   1.309  0.00  0.00    +0.066 C 
ATOM     22  N   LIG    1        1.378  -2.507  -0.025  0.00  0.00    -0.299 NA
ATOM     23  C   LIG    1        2.641  -1.912  -0.486  0.00  0.00    +0.066 C 
ATOM     24  C   LIG    1        2.501  -0.389  -0.519  0.00  0.00    -0.064 C 
ENDBRANCH   1  22
TORSDOF 1
