REMARK  Name = ZINC13777644
REMARK                            x       y       z     vdW  Elec       q    Type
REMARK                         _______ _______ _______ _____ _____    ______ ____
ROOT
ATOM      1  C   LIG    1        2.154   0.032  -1.268  0.00  0.00    -0.067 C 
ATOM      2  C   LIG    1        0.718  -0.497  -1.257  0.00  0.00    -0.009 C 
ATOM      3  C   LIG    1        0.002  -0.004   0.002  0.00  0.00    -0.011 C 
ATOM      4  C   LIG    1       -0.019   1.526   0.010  0.00  0.00    +0.010 C 
ATOM      5  C   LIG    1        1.417   2.055  -0.000  0.00  0.00    -0.033 C 
ATOM      6  C   LIG    1        1.396   3.585   0.008  0.00  0.00    +0.011 C 
ATOM      7  C   LIG    1        2.157   1.548   1.239  0.00  0.00    +0.013 C 
ATOM      8  C   LIG    1        2.178   0.019   1.231  0.00  0.00    -0.033 C 
ATOM      9  C   LIG    1        2.917  -0.488   2.470  0.00  0.00    +0.011 C 
ATOM     10  C   LIG    1        0.742  -0.511   1.242  0.00  0.00    +0.010 C 
ATOM     11  C   LIG    1        2.894  -0.475  -0.028  0.00  0.00    -0.006 C 
ATOM     12  C   LIG    1        2.133   1.562  -1.259  0.00  0.00    -0.006 C 
ENDROOT
BRANCH   1  13
ATOM     13  N   LIG    1        2.845  -0.435  -2.484  0.00  0.00    +0.383 N 
ATOM     14  H   LIG    1        3.806  -0.073  -2.487  0.00  0.00    -0.085 HD
ATOM     15  H   LIG    1        2.346  -0.089  -3.312  0.00  0.00    -0.085 HD
BRANCH  13  17
ATOM     16  C   LIG    1        3.602  -2.364  -3.788  0.00  0.00    -0.017 C 
ATOM     17  C   LIG    1        2.880  -1.909  -2.518  0.00  0.00    -0.085 C 
ENDBRANCH  13  17
ENDBRANCH   1  13
TORSDOF 2
