REMARK  Name = ZINC29486259
REMARK                            x       y       z     vdW  Elec       q    Type
REMARK                         _______ _______ _______ _____ _____    ______ ____
ROOT
ATOM      1  C   LIG    1       -0.256  -6.763   3.013  0.00  0.00    +0.111 C 
ENDROOT
BRANCH   1   2
ATOM      2  N   LIG    1       -0.401  -8.191   3.306  0.00  0.00    -0.263 N 
ATOM      3  C   LIG    1       -1.516  -8.641   3.920  0.00  0.00    +0.281 A 
ATOM      4  C   LIG    1       -1.628 -10.022   4.189  0.00  0.00    +0.132 A 
ATOM      5  C   LIG    1       -0.581 -10.858   3.809  0.00  0.00    +0.107 A 
ATOM      6  N   LIG    1        0.500 -10.341   3.202  0.00  0.00    -0.194 NA
ATOM      7  C   LIG    1       -0.968 -12.219   4.209  0.00  0.00    +0.026 A 
ATOM      8  C   LIG    1       -0.349 -13.465   4.101  0.00  0.00    +0.012 A 
ATOM      9  C   LIG    1       -0.977 -14.580   4.581  0.00  0.00    +0.001 A 
ATOM     10  C   LIG    1       -2.228 -14.483   5.175  0.00  0.00    +0.002 A 
ATOM     11  C   LIG    1       -2.856 -13.263   5.291  0.00  0.00    +0.026 A 
ATOM     12  C   LIG    1       -2.234 -12.113   4.810  0.00  0.00    +0.049 A 
ATOM     13  N   LIG    1       -2.613 -10.788   4.789  0.00  0.00    -0.349 N 
ATOM     14  H   LIG    1       -3.448 -10.444   5.142  0.00  0.00    +0.166 HD
ATOM     15  O   LIG    1       -2.408  -7.870   4.234  0.00  0.00    -0.265 OA
ATOM     16  C   LIG    1        0.588  -9.057   2.952  0.00  0.00    +0.299 A 
BRANCH  16  17
ATOM     17  O   LIG    1        1.690  -8.581   2.334  0.00  0.00    -0.479 OA
ATOM     18  H   LIG    1        1.765  -7.665   2.150  0.00  0.00    +0.295 HD
ENDBRANCH  16  17
ENDBRANCH   1   2
BRANCH   1  19
ATOM     19  C   LIG    1       -0.838  -6.464   1.630  0.00  0.00    -0.057 C 
BRANCH  19  23
ATOM     20  N   LIG    1        0.097  -2.777  -0.113  0.00  0.00    -0.331 N 
ATOM     21  C   LIG    1       -1.306  -3.215  -0.187  0.00  0.00    +0.086 C 
ATOM     22  C   LIG    1       -1.357  -4.725   0.064  0.00  0.00    -0.060 C 
ATOM     23  N   LIG    1       -0.693  -5.032   1.337  0.00  0.00    +0.383 N 
ATOM     24  H   LIG    1       -1.120  -4.495   2.076  0.00  0.00    -0.082 HD
ATOM     25  C   LIG    1        0.734  -4.694   1.250  0.00  0.00    -0.060 C 
ATOM     26  C   LIG    1        0.890  -3.186   1.056  0.00  0.00    +0.086 C 
BRANCH  20  32
ATOM     27  C   LIG    1        0.606  -0.608  -1.057  0.00  0.00    +0.141 A 
ATOM     28  C   LIG    1        1.173   0.158  -2.062  0.00  0.00    +0.047 A 
ATOM     29  C   LIG    1        1.786  -0.457  -3.138  0.00  0.00    +0.004 A 
ATOM     30  C   LIG    1        1.837  -1.836  -3.214  0.00  0.00    +0.002 A 
ATOM     31  C   LIG    1        1.274  -2.608  -2.214  0.00  0.00    +0.027 A 
ATOM     32  C   LIG    1        0.662  -1.998  -1.129  0.00  0.00    +0.072 A 
BRANCH  27  34
ATOM     33  C   LIG    1       -0.017   1.425   0.010  0.00  0.00    +0.277 C 
ATOM     34  O   LIG    1        0.002  -0.004   0.002  0.00  0.00    -0.493 OA
ENDBRANCH  27  34
ENDBRANCH  20  32
ENDBRANCH  19  23
ENDBRANCH   1  19
TORSDOF 6
