REMARK  Name = ZINC58602679
REMARK                            x       y       z     vdW  Elec       q    Type
REMARK                         _______ _______ _______ _____ _____    ______ ____
ROOT
ATOM      1  C   LIG    1       -1.262  -0.761   0.011  0.00  0.00    +0.010 C 
ATOM      2  C   LIG    1       -1.240  -2.105   0.003  0.00  0.00    +0.028 C 
ENDROOT
BRANCH   1   9
ATOM      3  C   LIG    1       -0.017   1.394   0.010  0.00  0.00    +0.011 A 
ATOM      4  C   LIG    1        1.169   2.096   0.002  0.00  0.00    +0.039 A 
ATOM      5  C   LIG    1        2.379   1.419  -0.013  0.00  0.00    +0.123 A 
ATOM      6  F   LIG    1        3.538   2.114  -0.021  0.00  0.00    -0.205 F 
ATOM      7  C   LIG    1        2.404   0.033  -0.021  0.00  0.00    +0.039 A 
ATOM      8  C   LIG    1        1.225  -0.681  -0.014  0.00  0.00    +0.011 A 
ATOM      9  C   LIG    1        0.002  -0.004   0.002  0.00  0.00    -0.025 A 
ENDBRANCH   1   9
BRANCH   2  10
ATOM     10  C   LIG    1       -2.503  -2.861   0.012  0.00  0.00    +0.069 A 
ATOM     11  C   LIG    1       -2.494  -4.263   0.010  0.00  0.00    +0.047 A 
ATOM     12  C   LIG    1       -3.705  -4.928   0.018  0.00  0.00    +0.116 A 
ATOM     13  N   LIG    1       -4.830  -4.228   0.028  0.00  0.00    -0.223 NA
ATOM     14  C   LIG    1       -4.811  -2.903   0.030  0.00  0.00    +0.213 A 
ATOM     15  N   LIG    1       -3.675  -2.223   0.027  0.00  0.00    -0.215 NA
BRANCH  14  16
ATOM     16  N   LIG    1       -6.010  -2.212   0.039  0.00  0.00    -0.327 N 
ATOM     17  H   LIG    1       -6.011  -1.242   0.040  0.00  0.00    +0.145 HD
ATOM     18  H   LIG    1       -6.849  -2.697   0.045  0.00  0.00    +0.145 HD
ENDBRANCH  14  16
ENDBRANCH   2  10
TORSDOF 3
