REMARK  Name = ZINC18007956
REMARK                            x       y       z     vdW  Elec       q    Type
REMARK                         _______ _______ _______ _____ _____    ______ ____
ROOT
ATOM      1  C   LIG    1        0.048   1.399   0.635  0.00  0.00    +0.017 A 
ATOM      2  C   LIG    1        1.194   2.113   0.359  0.00  0.00    +0.029 A 
ATOM      3  C   LIG    1        2.405   1.443   0.156  0.00  0.00    +0.077 A 
ATOM      4  C   LIG    1        2.424   0.035   0.239  0.00  0.00    +0.034 A 
ATOM      5  C   LIG    1        3.828  -0.358  -0.021  0.00  0.00    +0.152 C 
ATOM      6  C   LIG    1        4.527   0.922  -0.242  0.00  0.00    +0.241 C 
ATOM      7  N   LIG    1        4.334  -1.569  -0.049  0.00  0.00    -0.175 NA
ATOM      8  C   LIG    1        1.262  -0.669   0.518  0.00  0.00    +0.027 A 
ATOM      9  N   LIG    1        3.656   1.891  -0.125  0.00  0.00    -0.211 NA
ATOM     10  C   LIG    1        0.077   0.015   0.715  0.00  0.00    +0.019 A 
ATOM     11 BR   LIG    1       -1.511  -0.940   1.095  0.00  0.00    -0.050 Br
ENDROOT
BRANCH   6  12
ATOM     12  O   LIG    1        5.845   1.069  -0.519  0.00  0.00    -0.491 OA
ATOM     13  H   LIG    1        6.396   0.314  -0.584  0.00  0.00    +0.294 HD
ENDBRANCH   6  12
BRANCH   7  14
ATOM     14  N   LIG    1        3.558  -2.595   0.050  0.00  0.00    -0.218 N 
ATOM     15  H   LIG    1        2.596  -2.476   0.060  0.00  0.00    +0.176 HD
BRANCH  14  16
ATOM     16  C   LIG    1        4.085  -3.833   0.139  0.00  0.00    +0.147 C 
ATOM     17  S   LIG    1        3.056  -5.194   0.270  0.00  0.00    -0.017 S 
BRANCH  16  18
ATOM     18  N   LIG    1        5.423  -3.998   0.124  0.00  0.00    -0.339 N 
ATOM     19  H   LIG    1        5.802  -4.888   0.188  0.00  0.00    +0.144 HD
ATOM     20  H   LIG    1        6.006  -3.227   0.050  0.00  0.00    +0.144 HD
ENDBRANCH  16  18
ENDBRANCH  14  16
ENDBRANCH   7  14
TORSDOF 4
