REMARK  Name = ZINC58538432
REMARK                            x       y       z     vdW  Elec       q    Type
REMARK                         _______ _______ _______ _____ _____    ______ ____
ROOT
ATOM      1  C   LIG    1        5.318  -1.605   1.466  0.00  0.00    +0.133 A 
ATOM      2  C   LIG    1        6.047  -2.006   0.354  0.00  0.00    +0.047 A 
ATOM      3  C   LIG    1        7.242  -2.674   0.516  0.00  0.00    +0.013 A 
ATOM      4  C   LIG    1        7.719  -2.946   1.798  0.00  0.00    +0.001 A 
ATOM      5  C   LIG    1        6.986  -2.542   2.912  0.00  0.00    +0.026 A 
ATOM      6  C   LIG    1        5.793  -1.869   2.744  0.00  0.00    +0.097 A 
ENDROOT
BRANCH   4   7
ATOM      7  C   LIG    1        9.004  -3.665   1.975  0.00  0.00    +0.075 A 
ATOM      8  C   LIG    1        9.780  -3.966   0.856  0.00  0.00    +0.056 A 
ATOM      9  C   LIG    1       10.980  -4.637   1.032  0.00  0.00    +0.071 A 
ATOM     10  C   LIG    1       11.374  -4.993   2.339  0.00  0.00    +0.125 A 
ATOM     11  N   LIG    1       12.558  -5.626   2.234  0.00  0.00    -0.233 NA
ATOM     12  C   LIG    1       12.916  -5.685   0.982  0.00  0.00    +0.197 A 
ATOM     13  C   LIG    1       10.533  -4.653   3.416  0.00  0.00    +0.168 A 
ATOM     14  N   LIG    1       11.977  -5.090   0.198  0.00  0.00    -0.344 N 
ATOM     15  H   LIG    1       12.005  -5.000  -0.767  0.00  0.00    +0.167 HD
ATOM     16  N   LIG    1        9.397  -4.005   3.195  0.00  0.00    -0.234 NA
BRANCH  13  17
ATOM     17  C   LIG    1       10.908  -5.002   4.753  0.00  0.00    +0.121 C 
ATOM     18  N   LIG    1       11.205  -5.278   5.814  0.00  0.00    -0.189 NA
ENDBRANCH  13  17
ENDBRANCH   4   7
BRANCH   6  19
ATOM     19  C   LIG    1        5.003  -1.427   3.948  0.00  0.00    +0.421 C 
ATOM     20  F   LIG    1        3.741  -2.030   3.925  0.00  0.00    -0.166 F 
ATOM     21  F   LIG    1        4.855  -0.036   3.923  0.00  0.00    -0.166 F 
ATOM     22  F   LIG    1        5.678  -1.803   5.114  0.00  0.00    -0.166 F 
ENDBRANCH   6  19
BRANCH   1  23
ATOM     23  O   LIG    1        4.141  -0.946   1.304  0.00  0.00    -0.487 OA
BRANCH  23  24
ATOM     24  C   LIG    1        3.711  -0.707  -0.038  0.00  0.00    +0.264 C 
BRANCH  24  28
ATOM     25  C   LIG    1       -0.017   1.378   0.010  0.00  0.00    +0.000 A 
ATOM     26  C   LIG    1        1.171   2.086   0.002  0.00  0.00    +0.000 A 
ATOM     27  C   LIG    1        2.377   1.411  -0.013  0.00  0.00    +0.007 A 
ATOM     28  C   LIG    1        2.396   0.029  -0.020  0.00  0.00    -0.010 A 
ATOM     29  C   LIG    1        1.208  -0.679  -0.012  0.00  0.00    +0.007 A 
ATOM     30  C   LIG    1        0.002  -0.004   0.002  0.00  0.00    +0.000 A 
ENDBRANCH  24  28
ENDBRANCH  23  24
ENDBRANCH   1  23
TORSDOF 6
