REMARK  Name = ZINC17782150
REMARK                            x       y       z     vdW  Elec       q    Type
REMARK                         _______ _______ _______ _____ _____    ______ ____
ROOT
ATOM      1  C   LIG    1        0.083  -2.571  -0.094  0.00  0.00    +0.166 A 
ATOM      2  C   LIG    1        0.698  -3.192   0.992  0.00  0.00    +0.141 A 
ATOM      3  N   LIG    1        1.781  -3.844   0.519  0.00  0.00    -0.261 N 
ATOM      4  N   LIG    1        1.856  -3.640  -0.863  0.00  0.00    -0.155 NA
ATOM      5  H   LIG    1        2.403  -4.366   1.049  0.00  0.00    +0.190 HD
ATOM      6  C   LIG    1        0.852  -2.892  -1.243  0.00  0.00    +0.167 A 
ENDROOT
BRANCH   2   7
ATOM      7  N   LIG    1        0.277  -3.147   2.308  0.00  0.00    -0.342 N 
ATOM      8  H   LIG    1        0.778  -3.616   2.994  0.00  0.00    +0.144 HD
ATOM      9  H   LIG    1       -0.519  -2.647   2.546  0.00  0.00    +0.144 HD
ENDBRANCH   2   7
BRANCH   6  10
ATOM     10  N   LIG    1        0.586  -2.478  -2.550  0.00  0.00    -0.340 N 
ATOM     11  H   LIG    1        1.244  -2.622  -3.248  0.00  0.00    +0.144 HD
ATOM     12  H   LIG    1       -0.256  -2.045  -2.760  0.00  0.00    +0.144 HD
ENDBRANCH   6  10
BRANCH   1  14
ATOM     13  N   LIG    1       -1.046  -0.641  -0.606  0.00  0.00    -0.149 NA
ATOM     14  N   LIG    1       -1.042  -1.809  -0.060  0.00  0.00    -0.142 NA
BRANCH  13  20
ATOM     15  C   LIG    1        1.211   0.111  -0.317  0.00  0.00    +0.033 A 
ATOM     16  C   LIG    1        2.369   0.625  -0.857  0.00  0.00    +0.047 A 
ATOM     17  C   LIG    1        2.441   0.902  -2.216  0.00  0.00    +0.117 A 
ATOM     18  C   LIG    1        1.345   0.664  -3.037  0.00  0.00    +0.047 A 
ATOM     19  C   LIG    1        0.182   0.151  -2.505  0.00  0.00    +0.033 A 
ATOM     20  C   LIG    1        0.106  -0.130  -1.138  0.00  0.00    +0.086 A 
BRANCH  17  21
ATOM     21  O   LIG    1        3.585   1.409  -2.745  0.00  0.00    -0.507 OA
ATOM     22  H   LIG    1        4.209   0.737  -3.050  0.00  0.00    +0.292 HD
ENDBRANCH  17  21
ENDBRANCH  13  20
ENDBRANCH   1  14
TORSDOF 5
