REMARK  Name = ZINC00007453
REMARK                            x       y       z     vdW  Elec       q    Type
REMARK                         _______ _______ _______ _____ _____    ______ ____
ROOT
ATOM      1  C   LIG    1       -3.650   1.597   0.019  0.00  0.00    +0.135 A 
ATOM      2  C   LIG    1       -2.456   0.905   0.152  0.00  0.00    +0.089 A 
ATOM      3  C   LIG    1       -1.268   1.618   0.285  0.00  0.00    +0.122 A 
ATOM      4  N   LIG    1       -1.255   2.940   0.293  0.00  0.00    -0.215 NA
ATOM      5  C   LIG    1       -2.370   3.653   0.163  0.00  0.00    +0.145 A 
ATOM      6  N   LIG    1       -2.607   5.008   0.137  0.00  0.00    -0.338 N 
ATOM      7  H   LIG    1       -1.924   5.692   0.214  0.00  0.00    +0.167 HD
ATOM      8  C   LIG    1       -3.951   5.254  -0.013  0.00  0.00    +0.057 A 
ATOM      9  C   LIG    1       -4.624   4.051  -0.089  0.00  0.00    +0.020 A 
ATOM     10  C   LIG    1       -3.604   2.999   0.025  0.00  0.00    +0.069 A 
ENDROOT
BRANCH   8  11
ATOM     11  C   LIG    1       -4.575   6.590  -0.082  0.00  0.00    -0.001 A 
ATOM     12  C   LIG    1       -5.715   6.871   0.675  0.00  0.00    +0.013 A 
ATOM     13  C   LIG    1       -6.290   8.123   0.611  0.00  0.00    +0.039 A 
ATOM     14  C   LIG    1       -5.746   9.097  -0.211  0.00  0.00    +0.123 A 
ATOM     15  F   LIG    1       -6.318  10.319  -0.275  0.00  0.00    -0.205 F 
ATOM     16  C   LIG    1       -4.618   8.822  -0.968  0.00  0.00    +0.039 A 
ATOM     17  C   LIG    1       -4.031   7.576  -0.908  0.00  0.00    +0.013 A 
ENDBRANCH   8  11
BRANCH   9  18
ATOM     18  C   LIG    1       -6.081   3.859  -0.251  0.00  0.00    -0.012 A 
ATOM     19  C   LIG    1       -6.731   4.245  -1.431  0.00  0.00    +0.028 A 
ATOM     20  C   LIG    1       -8.090   4.044  -1.541  0.00  0.00    +0.111 A 
ATOM     21  N   LIG    1       -8.778   3.505  -0.552  0.00  0.00    -0.263 NA
ATOM     22  C   LIG    1       -8.206   3.132   0.577  0.00  0.00    +0.111 A 
ATOM     23  C   LIG    1       -6.851   3.292   0.771  0.00  0.00    +0.028 A 
ENDBRANCH   9  18
BRANCH   3  24
ATOM     24  N   LIG    1       -0.071   0.925   0.419  0.00  0.00    -0.343 N 
ATOM     25  H   LIG    1        0.764   1.411   0.508  0.00  0.00    +0.144 HD
ATOM     26  H   LIG    1       -0.069  -0.045   0.418  0.00  0.00    +0.144 HD
ENDBRANCH   3  24
BRANCH   1  28
ATOM     27  C   LIG    1       -4.777  -0.490  -0.108  0.00  0.00    +0.277 C 
ATOM     28  O   LIG    1       -4.829   0.938  -0.113  0.00  0.00    -0.494 OA
ENDBRANCH   1  28
TORSDOF 4
