REMARK  Name = ZINC00066462
REMARK                            x       y       z     vdW  Elec       q    Type
REMARK                         _______ _______ _______ _____ _____    ______ ____
ROOT
ATOM      1  C   LIG    1       -0.048  -2.716  -0.012  0.00  0.00    +0.352 C 
ENDROOT
BRANCH   1   2
ATOM      2  C   LIG    1        0.164  -4.208  -0.022  0.00  0.00    +0.277 C 
ATOM      3  N   LIG    1        1.334  -4.739  -0.042  0.00  0.00    -0.273 N 
ATOM      4  H   LIG    1        2.218  -4.218  -0.055  0.00  0.00    +0.304 HD
ATOM      5  C   LIG    1        1.216  -6.207  -0.043  0.00  0.00    +0.276 C 
ATOM      6  C   LIG    1       -0.305  -6.460  -0.030  0.00  0.00    +0.268 C 
ATOM      7  N   LIG    1       -0.868  -5.099  -0.017  0.00  0.00    -0.234 N 
ATOM      8  H   LIG    1       -1.811  -4.875  -0.007  0.00  0.00    +0.291 HD
ENDBRANCH   1   2
BRANCH   1   9
ATOM      9  O   LIG    1        1.218  -2.055  -0.021  0.00  0.00    -0.478 OA
BRANCH   9  12
ATOM     10  C   LIG    1        2.332   1.406  -0.013  0.00  0.00    +0.023 A 
ATOM     11  C   LIG    1        2.397   0.022  -0.021  0.00  0.00    +0.049 A 
ATOM     12  C   LIG    1        1.205  -0.696  -0.014  0.00  0.00    +0.139 A 
ATOM     13  C   LIG    1        0.002  -0.004   0.002  0.00  0.00    +0.156 A 
ATOM     14  N   LIG    1       -0.016   1.314   0.009  0.00  0.00    -0.260 NA
ATOM     15  C   LIG    1        1.096   2.024   0.003  0.00  0.00    +0.111 A 
ENDBRANCH   9  12
ENDBRANCH   1   9
TORSDOF 3
