REMARK  Name = ZINC13779539
REMARK                            x       y       z     vdW  Elec       q    Type
REMARK                         _______ _______ _______ _____ _____    ______ ____
ROOT
ATOM      1  C   LIG    1        0.190   1.128  -0.139  0.00  0.00    +0.011 C 
ATOM      2  C   LIG    1       -0.589   1.421   1.145  0.00  0.00    -0.035 C 
ATOM      3  C   LIG    1       -1.957   0.740   1.078  0.00  0.00    +0.011 C 
ATOM      4  C   LIG    1       -0.778   2.933   1.292  0.00  0.00    +0.007 C 
ATOM      5  C   LIG    1        0.591   3.614   1.359  0.00  0.00    +0.006 C 
ATOM      6  C   LIG    1        1.369   3.077   2.562  0.00  0.00    -0.035 C 
ATOM      7  C   LIG    1        1.558   1.566   2.414  0.00  0.00    +0.006 C 
ATOM      8  C   LIG    1        0.190   0.885   2.348  0.00  0.00    +0.007 C 
ENDROOT
BRANCH   6   9
ATOM      9  C   LIG    1        0.590   3.371   3.846  0.00  0.00    -0.079 C 
BRANCH   9  10
ATOM     10  N   LIG    1        1.421   3.002   5.006  0.00  0.00    +0.378 N 
ATOM     11  H   LIG    1        2.280   3.564   4.998  0.00  0.00    -0.090 HD
ATOM     12  H   LIG    1        1.668   2.015   4.958  0.00  0.00    -0.090 HD
ATOM     13  H   LIG    1        0.913   3.183   5.870  0.00  0.00    -0.090 HD
ENDBRANCH   9  10
ENDBRANCH   6   9
BRANCH   6  14
ATOM     14  C   LIG    1        2.738   3.758   2.629  0.00  0.00    +0.125 C 
BRANCH  14  15
ATOM     15  C   LIG    1        2.552   5.240   2.829  0.00  0.00    +0.305 C 
ATOM     16  O   LIG    1        1.441   5.717   2.820  0.00  0.00    -0.251 OA
BRANCH  15  17
ATOM     17  O   LIG    1        3.620   6.032   3.016  0.00  0.00    -0.481 OA
ATOM     18  H   LIG    1        4.481   5.662   3.023  0.00  0.00    +0.295 HD
ENDBRANCH  15  17
ENDBRANCH  14  15
ENDBRANCH   6  14
TORSDOF 5
