REMARK  Name = ZINC27652148
REMARK                            x       y       z     vdW  Elec       q    Type
REMARK                         _______ _______ _______ _____ _____    ______ ____
ROOT
ATOM      1  C   LIG    1       -0.199  -0.261  -1.928  0.00  0.00    -0.011 C 
ATOM      2  C   LIG    1       -0.576   0.898  -1.002  0.00  0.00    -0.041 C 
ENDROOT
BRANCH   2   3
ATOM      3  N   LIG    1        0.198   0.801   0.242  0.00  0.00    +0.386 N 
ATOM      4  H   LIG    1        0.764  -0.142   0.250  0.00  0.00    -0.085 HD
ATOM      5  H   LIG    1       -0.487   0.825   1.103  0.00  0.00    -0.085 HD
BRANCH   3   6
ATOM      6  C   LIG    1        1.144   1.919   0.362  0.00  0.00    -0.076 C 
ATOM      7  C   LIG    1        2.060   1.946  -0.863  0.00  0.00    -0.011 C 
ATOM      8  C   LIG    1        1.987   1.741   1.626  0.00  0.00    -0.011 C 
ATOM      9  C   LIG    1        0.369   3.236   0.448  0.00  0.00    -0.011 C 
ENDBRANCH   3   6
ENDBRANCH   2   3
BRANCH   2  10
ATOM     10  C   LIG    1       -2.070   0.828  -0.681  0.00  0.00    +0.130 C 
BRANCH  10  11
ATOM     11  C   LIG    1       -2.866   1.049  -1.941  0.00  0.00    -0.021 A 
ATOM     12  C   LIG    1       -3.128  -0.011  -2.788  0.00  0.00    +0.006 A 
ATOM     13  C   LIG    1       -3.862   0.191  -3.942  0.00  0.00    +0.000 A 
ATOM     14  C   LIG    1       -4.326   1.456  -4.254  0.00  0.00    +0.000 A 
ATOM     15  C   LIG    1       -4.059   2.517  -3.409  0.00  0.00    +0.000 A 
ATOM     16  C   LIG    1       -3.329   2.314  -2.253  0.00  0.00    +0.006 A 
ENDBRANCH  10  11
BRANCH  10  17
ATOM     17  O   LIG    1       -2.381  -0.458  -0.141  0.00  0.00    -0.389 OA
ATOM     18  H   LIG    1       -3.414  -0.696   0.152  0.00  0.00    +0.210 HD
ENDBRANCH  10  17
ENDBRANCH   2  10
TORSDOF 5
