REMARK  Name = ZINC14946467
REMARK                            x       y       z     vdW  Elec       q    Type
REMARK                         _______ _______ _______ _____ _____    ______ ____
ROOT
ATOM      1  C   LIG    1        0.047   1.386   0.648  0.00  0.00    +0.037 C 
ATOM      2  C   LIG    1        1.188   2.100   0.438  0.00  0.00    +0.009 C 
ATOM      3  C   LIG    1        2.394   1.427   0.202  0.00  0.00    +0.023 C 
ATOM      4  C   LIG    1        2.418   0.011   0.185  0.00  0.00    +0.061 C 
ATOM      5  N   LIG    1        3.567  -0.629  -0.037  0.00  0.00    -0.310 NA
ATOM      6  H   LIG    1        3.567  -1.599  -0.042  0.00  0.00    +0.122 HD
ATOM      7  C   LIG    1        4.706   0.007  -0.251  0.00  0.00    +0.061 C 
ATOM      8  C   LIG    1        4.760   1.390  -0.255  0.00  0.00    +0.051 C 
ATOM      9  C   LIG    1        6.031   2.156  -0.510  0.00  0.00    +0.121 C 
ATOM     10  C   LIG    1        7.249   1.255  -0.319  0.00  0.00    +0.032 C 
ATOM     11  C   LIG    1        7.038  -0.022  -1.141  0.00  0.00    +0.004 C 
ATOM     12  C   LIG    1        5.932  -0.842  -0.483  0.00  0.00    +0.019 C 
ATOM     13  C   LIG    1        1.223  -0.693   0.406  0.00  0.00    +0.056 C 
ATOM     14  C   LIG    1        3.600   2.125  -0.025  0.00  0.00    +0.062 C 
ATOM     15  C   LIG    1        0.065  -0.009   0.632  0.00  0.00    +0.168 C 
ATOM     16  F   LIG    1       -1.081  -0.691   0.843  0.00  0.00    -0.245 F 
ENDROOT
BRANCH  14  17
ATOM     17  N   LIG    1        3.630   3.512  -0.018  0.00  0.00    -0.327 NA
ATOM     18  H   LIG    1        4.396   3.982  -0.379  0.00  0.00    +0.118 HD
ATOM     19  H   LIG    1        2.883   4.010   0.349  0.00  0.00    +0.118 HD
ENDBRANCH  14  17
BRANCH   9  20
ATOM     20  O   LIG    1        6.109   3.254   0.401  0.00  0.00    -0.391 OA
ATOM     21  H   LIG    1        6.904   3.796   0.297  0.00  0.00    +0.210 HD
ENDBRANCH   9  20
TORSDOF 2
