REMARK  Name = ZINC16051972
REMARK                            x       y       z     vdW  Elec       q    Type
REMARK                         _______ _______ _______ _____ _____    ______ ____
ROOT
ATOM      1  C   LIG    1        4.171  -0.963   1.399  0.00  0.00    +0.017 C 
ENDROOT
BRANCH   1   2
ATOM      2  C   LIG    1        5.422  -1.804   1.383  0.00  0.00    +0.196 C 
ATOM      3  N   LIG    1        5.334  -3.138   1.209  0.00  0.00    -0.331 N 
ATOM      4  H   LIG    1        6.139  -3.680   1.199  0.00  0.00    +0.145 HD
ATOM      5  H   LIG    1        4.467  -3.557   1.094  0.00  0.00    +0.145 HD
ATOM      6  O   LIG    1        6.506  -1.282   1.528  0.00  0.00    -0.278 OA
ENDBRANCH   1   2
BRANCH   1   7
ATOM      7  N   LIG    1        4.452   0.319   2.059  0.00  0.00    +0.386 N 
ATOM      8  H   LIG    1        5.178   0.805   1.555  0.00  0.00    -0.089 HD
ATOM      9  H   LIG    1        4.755   0.150   3.006  0.00  0.00    -0.089 HD
ATOM     10  H   LIG    1        3.615   0.882   2.070  0.00  0.00    -0.089 HD
ENDBRANCH   1   7
BRANCH   1  11
ATOM     11  C   LIG    1        3.711  -0.707  -0.038  0.00  0.00    +0.028 C 
BRANCH  11  15
ATOM     12  C   LIG    1       -0.017   1.378   0.010  0.00  0.00    +0.000 A 
ATOM     13  C   LIG    1        1.171   2.086   0.002  0.00  0.00    +0.000 A 
ATOM     14  C   LIG    1        2.377   1.411  -0.013  0.00  0.00    +0.003 A 
ATOM     15  C   LIG    1        2.396   0.029  -0.020  0.00  0.00    -0.048 A 
ATOM     16  C   LIG    1        1.208  -0.679  -0.012  0.00  0.00    +0.003 A 
ATOM     17  C   LIG    1        0.002  -0.004   0.002  0.00  0.00    +0.000 A 
ENDBRANCH  11  15
ENDBRANCH   1  11
TORSDOF 4
