REMARK  Name = ZINC14618970
REMARK                            x       y       z     vdW  Elec       q    Type
REMARK                         _______ _______ _______ _____ _____    ______ ____
ROOT
ATOM      1  C   LIG    1        3.716   3.610   1.236  0.00  0.00    +0.267 C 
ATOM      2  C   LIG    1        2.919   3.884  -0.041  0.00  0.00    +0.267 C 
ATOM      3  O   LIG    1        3.095   4.870   0.979  0.00  0.00    -0.345 OA
ENDROOT
BRANCH   1   4
ATOM      4  C   LIG    1        3.090   2.717   2.276  0.00  0.00    +0.339 C 
ATOM      5  O   LIG    1        2.770   3.172   3.349  0.00  0.00    -0.248 OA
BRANCH   4   6
ATOM      6  O   LIG    1        2.889   1.417   2.012  0.00  0.00    -0.463 OA
BRANCH   6   8
ATOM      7  C   LIG    1        2.150  -0.829   2.595  0.00  0.00    +0.048 C 
ATOM      8  C   LIG    1        2.180   0.642   3.015  0.00  0.00    +0.229 C 
ENDBRANCH   6   8
ENDBRANCH   4   6
ENDBRANCH   1   4
BRANCH   2   9
ATOM      9  C   LIG    1        1.561   3.244  -0.172  0.00  0.00    +0.339 C 
ATOM     10  O   LIG    1        1.466   2.044  -0.270  0.00  0.00    -0.248 OA
BRANCH   9  11
ATOM     11  O   LIG    1        0.457   4.008  -0.180  0.00  0.00    -0.463 OA
BRANCH  11  12
ATOM     12  C   LIG    1       -0.821   3.319  -0.196  0.00  0.00    +0.229 C 
ATOM     13  C   LIG    1       -1.951   4.343  -0.321  0.00  0.00    +0.048 C 
ENDBRANCH  11  12
ENDBRANCH   9  11
ENDBRANCH   2   9
TORSDOF 6
