REMARK  Name = ZINC20230306
REMARK                            x       y       z     vdW  Elec       q    Type
REMARK                         _______ _______ _______ _____ _____    ______ ____
ROOT
ATOM      1  C   LIG    1        5.703   5.074   3.272  0.00  0.00    +0.090 A 
ATOM      2  C   LIG    1        5.975   5.301   1.917  0.00  0.00    +0.039 A 
ATOM      3  C   LIG    1        5.269   4.562   0.969  0.00  0.00    +0.092 A 
ATOM      4  C   LIG    1        4.310   3.629   1.409  0.00  0.00    +0.140 A 
ATOM      5  N   LIG    1        4.086   3.448   2.703  0.00  0.00    -0.226 NA
ATOM      6  C   LIG    1        4.738   4.125   3.623  0.00  0.00    +0.160 A 
ENDROOT
BRANCH   4   7
ATOM      7  N   LIG    1        3.599   2.893   0.484  0.00  0.00    -0.311 N 
ATOM      8  C   LIG    1        3.268   1.563   1.012  0.00  0.00    +0.125 C 
ATOM      9  C   LIG    1        2.643   0.716  -0.102  0.00  0.00    +0.128 C 
ATOM     10  N   LIG    1        1.509   1.459  -0.672  0.00  0.00    -0.282 N 
ATOM     11  C   LIG    1        0.298   0.881  -0.802  0.00  0.00    +0.307 C 
ATOM     12  N   LIG    1        0.153  -0.439  -0.568  0.00  0.00    -0.269 N 
ATOM     13  H   LIG    1        0.994  -1.021  -0.164  0.00  0.00    +0.156 HD
ATOM     14  O   LIG    1       -0.664   1.550  -1.124  0.00  0.00    -0.252 OA
ATOM     15  C   LIG    1        1.733   2.847  -1.104  0.00  0.00    +0.128 C 
ATOM     16  C   LIG    1        2.393   3.612   0.054  0.00  0.00    +0.125 C 
BRANCH  12  17
ATOM     17  C   LIG    1       -1.068  -1.067  -0.839  0.00  0.00    +0.035 A 
ATOM     18  C   LIG    1       -2.261  -0.383  -0.645  0.00  0.00    +0.025 A 
ATOM     19  C   LIG    1       -3.464  -1.004  -0.918  0.00  0.00    +0.022 A 
ATOM     20  C   LIG    1       -3.482  -2.310  -1.374  0.00  0.00    +0.041 A 
ATOM     21 CL   LIG    1       -4.996  -3.090  -1.711  0.00  0.00    -0.084 Cl
ATOM     22  C   LIG    1       -2.295  -2.996  -1.562  0.00  0.00    +0.022 A 
ATOM     23  C   LIG    1       -1.089  -2.378  -1.296  0.00  0.00    +0.025 A 
ENDBRANCH  12  17
ENDBRANCH   4   7
BRANCH   6  24
ATOM     24  C   LIG    1        4.440   3.874   5.079  0.00  0.00    +0.435 C 
ATOM     25  F   LIG    1        3.884   5.026   5.647  0.00  0.00    -0.164 F 
ATOM     26  F   LIG    1        5.625   3.550   5.748  0.00  0.00    -0.164 F 
ATOM     27  F   LIG    1        3.534   2.815   5.194  0.00  0.00    -0.164 F 
ENDBRANCH   6  24
BRANCH   1  28
ATOM     28  C   LIG    1        6.425   5.825   4.315  0.00  0.00    +0.341 C 
ATOM     29  O   LIG    1        6.183   5.622   5.488  0.00  0.00    -0.245 OA
BRANCH  28  30
ATOM     30  O   LIG    1        7.354   6.738   3.967  0.00  0.00    -0.461 OA
BRANCH  30  32
ATOM     31  C   LIG    1        9.037   8.427   4.461  0.00  0.00    +0.048 C 
ATOM     32  C   LIG    1        8.025   7.440   5.046  0.00  0.00    +0.229 C 
ENDBRANCH  30  32
ENDBRANCH  28  30
ENDBRANCH   1  28
BRANCH   3  33
ATOM     33  C   LIG    1        5.512   4.751  -0.429  0.00  0.00    +0.103 C 
ATOM     34  N   LIG    1        5.705   4.901  -1.539  0.00  0.00    -0.191 NA
ENDBRANCH   3  33
TORSDOF 7
