REMARK  Name = ZINC18142105
REMARK                            x       y       z     vdW  Elec       q    Type
REMARK                         _______ _______ _______ _____ _____    ______ ____
ROOT
ATOM      1  N   LIG    1        5.448  -3.237  -1.169  0.00  0.00    +0.390 N 
ATOM      2  H   LIG    1        5.117  -2.775  -2.003  0.00  0.00    -0.081 HD
ATOM      3  C   LIG    1        6.890  -3.488  -1.292  0.00  0.00    -0.059 C 
ATOM      4  C   LIG    1        7.160  -4.289  -2.570  0.00  0.00    +0.086 C 
ATOM      5  N   LIG    1        6.332  -5.505  -2.543  0.00  0.00    -0.333 N 
ATOM      6  C   LIG    1        4.896  -5.359  -2.262  0.00  0.00    +0.086 C 
ATOM      7  C   LIG    1        4.732  -4.508  -0.998  0.00  0.00    -0.059 C 
ENDROOT
BRANCH   1  11
ATOM      8  N   LIG    1        3.651  -0.642  -0.029  0.00  0.00    -0.212 N 
ATOM      9  C   LIG    1        4.825  -0.011  -0.155  0.00  0.00    +0.225 C 
ATOM     10  C   LIG    1        5.942  -1.033  -0.154  0.00  0.00    +0.090 C 
ATOM     11  C   LIG    1        5.201  -2.377  -0.004  0.00  0.00    +0.029 C 
ATOM     12  O   LIG    1        4.972   1.188  -0.254  0.00  0.00    -0.275 OA
ATOM     13  C   LIG    1        3.744  -1.974   0.070  0.00  0.00    +0.213 C 
ATOM     14  O   LIG    1        2.810  -2.735   0.196  0.00  0.00    -0.277 OA
BRANCH   8  18
ATOM     15  C   LIG    1        0.006   1.379   0.068  0.00  0.00    +0.000 A 
ATOM     16  C   LIG    1        0.361   0.546   1.113  0.00  0.00    +0.002 A 
ATOM     17  C   LIG    1        1.568  -0.124   1.084  0.00  0.00    +0.024 A 
ATOM     18  C   LIG    1        2.425   0.038   0.004  0.00  0.00    +0.044 A 
ATOM     19  C   LIG    1        2.066   0.874  -1.044  0.00  0.00    +0.024 A 
ATOM     20  C   LIG    1        0.858   1.542  -1.010  0.00  0.00    +0.002 A 
ENDBRANCH   8  18
ENDBRANCH   1  11
BRANCH   5  21
ATOM     21  C   LIG    1        6.894  -6.761  -2.778  0.00  0.00    +0.030 A 
ATOM     22  C   LIG    1        6.077  -7.881  -2.880  0.00  0.00    +0.023 A 
ATOM     23  C   LIG    1        6.636  -9.122  -3.113  0.00  0.00    +0.002 A 
ATOM     24  C   LIG    1        8.007  -9.252  -3.245  0.00  0.00    +0.012 A 
ATOM     25  C   LIG    1        8.822  -8.140  -3.144  0.00  0.00    +0.057 A 
ATOM     26  C   LIG    1        8.270  -6.894  -2.917  0.00  0.00    +0.035 A 
BRANCH  25  27
ATOM     27  C   LIG    1       10.315  -8.286  -3.287  0.00  0.00    +0.417 C 
ATOM     28  F   LIG    1       10.941  -7.851  -2.114  0.00  0.00    -0.166 F 
ATOM     29  F   LIG    1       10.758  -7.513  -4.366  0.00  0.00    -0.166 F 
ATOM     30  F   LIG    1       10.633  -9.629  -3.515  0.00  0.00    -0.166 F 
ENDBRANCH  25  27
ENDBRANCH   5  21
TORSDOF 4
