REMARK  Name = ZINC34206690
REMARK                            x       y       z     vdW  Elec       q    Type
REMARK                         _______ _______ _______ _____ _____    ______ ____
ROOT
ATOM      1  C   LIG    1        0.175  -4.856   1.153  0.00  0.00    +0.156 C 
ATOM      2  N   LIG    1        0.186  -4.377   2.388  0.00  0.00    -0.154 NA
ATOM      3  C   LIG    1        0.306  -5.148   3.445  0.00  0.00    +0.277 C 
ATOM      4  C   LIG    1        0.430  -6.611   3.178  0.00  0.00    +0.092 C 
ATOM      5  C   LIG    1        0.568  -7.661   4.059  0.00  0.00    +0.065 C 
ATOM      6  C   LIG    1        0.694  -9.097   3.735  0.00  0.00    +0.010 A 
ATOM      7  C   LIG    1        0.713  -9.806   2.537  0.00  0.00    +0.010 A 
ATOM      8  C   LIG    1        0.846 -11.180   2.556  0.00  0.00    +0.001 A 
ATOM      9  C   LIG    1        0.961 -11.849   3.763  0.00  0.00    +0.002 A 
ATOM     10  C   LIG    1        0.943 -11.156   4.957  0.00  0.00    +0.024 A 
ATOM     11  C   LIG    1        0.810  -9.772   4.959  0.00  0.00    +0.042 A 
ATOM     12  N   LIG    1        0.763  -8.850   5.999  0.00  0.00    -0.281 N 
ATOM     13  H   LIG    1        0.825  -9.083   6.939  0.00  0.00    +0.155 HD
ATOM     14  C   LIG    1        0.630  -7.596   5.537  0.00  0.00    +0.250 C 
ATOM     15  O   LIG    1        0.567  -6.586   6.212  0.00  0.00    -0.270 OA
ATOM     16  O   LIG    1        0.315  -4.695   4.576  0.00  0.00    -0.267 OA
ATOM     17  S   LIG    1        0.344  -6.618   1.391  0.00  0.00    -0.051 S 
ENDROOT
BRANCH   1  18
ATOM     18  N   LIG    1        0.057  -4.168  -0.021  0.00  0.00    -0.296 N 
ATOM     19  H   LIG    1       -0.086  -4.655  -0.865  0.00  0.00    +0.154 HD
BRANCH  18  24
ATOM     20  C   LIG    1        0.392   1.493  -0.037  0.00  0.00    +0.044 C 
ATOM     21  C   LIG    1        0.303  -0.011  -0.033  0.00  0.00    -0.050 A 
ATOM     22  C   LIG    1        0.884  -0.733   0.993  0.00  0.00    +0.005 A 
ATOM     23  C   LIG    1        0.804  -2.112   1.000  0.00  0.00    +0.023 A 
ATOM     24  C   LIG    1        0.139  -2.773  -0.025  0.00  0.00    +0.033 A 
ATOM     25  C   LIG    1       -0.444  -2.044  -1.054  0.00  0.00    +0.023 A 
ATOM     26  C   LIG    1       -0.365  -0.665  -1.052  0.00  0.00    +0.005 A 
ENDBRANCH  18  24
ENDBRANCH   1  18
TORSDOF 2
