REMARK  Name = ZINC40914223
REMARK                            x       y       z     vdW  Elec       q    Type
REMARK                         _______ _______ _______ _____ _____    ______ ____
ROOT
ATOM      1  C   LIG    1        2.836   0.054  -2.372  0.00  0.00    +0.220 A 
ATOM      2  N   LIG    1        2.258  -0.166  -3.539  0.00  0.00    -0.200 NA
ATOM      3  C   LIG    1        2.936  -0.029  -4.675  0.00  0.00    +0.132 A 
ATOM      4  C   LIG    1        2.241  -0.288  -5.987  0.00  0.00    +0.088 C 
ATOM      5  N   LIG    1        4.201   0.328  -4.677  0.00  0.00    -0.213 NA
ATOM      6  C   LIG    1        4.835   0.563  -3.519  0.00  0.00    +0.169 A 
ATOM      7  C   LIG    1        6.135   0.946  -3.193  0.00  0.00    +0.051 A 
ATOM      8  C   LIG    1        6.200   1.049  -1.797  0.00  0.00    +0.070 A 
ATOM      9  C   LIG    1        7.419   1.440  -1.002  0.00  0.00    +0.068 C 
ATOM     10  N   LIG    1        5.030   0.739  -1.295  0.00  0.00    -0.167 NA
ATOM     11  N   LIG    1        4.150   0.433  -2.336  0.00  0.00    -0.183 N 
ENDROOT
BRANCH   7  12
ATOM     12  C   LIG    1        7.239   1.211  -4.147  0.00  0.00    +0.009 A 
ATOM     13  C   LIG    1        7.444   2.499  -4.655  0.00  0.00    +0.015 A 
ATOM     14  C   LIG    1        8.486   2.696  -5.541  0.00  0.00    +0.068 A 
ATOM     15  C   LIG    1        9.290   1.619  -5.895  0.00  0.00    +0.215 A 
ATOM     16  N   LIG    1        9.069   0.414  -5.397  0.00  0.00    -0.218 NA
ATOM     17  C   LIG    1        8.090   0.183  -4.545  0.00  0.00    +0.050 A 
ATOM     18  C   LIG    1        7.886  -1.208  -4.002  0.00  0.00    +0.066 C 
BRANCH  15  19
ATOM     19  O   LIG    1       10.315   1.807  -6.765  0.00  0.00    -0.480 OA
ATOM     20  C   LIG    1       11.107   0.663  -7.091  0.00  0.00    +0.279 C 
ENDBRANCH  15  19
ENDBRANCH   7  12
BRANCH   1  21
ATOM     21  N   LIG    1        2.125  -0.091  -1.209  0.00  0.00    -0.311 N 
ATOM     22  H   LIG    1        2.553   0.075  -0.355  0.00  0.00    +0.149 HD
BRANCH  21  23
ATOM     23  C   LIG    1        0.718  -0.497  -1.257  0.00  0.00    +0.070 C 
ATOM     24  C   LIG    1        0.630  -2.023  -1.329  0.00  0.00    +0.028 C 
BRANCH  23  26
ATOM     25  C   LIG    1       -0.019   1.526   0.010  0.00  0.00    +0.005 C 
ATOM     26  C   LIG    1        0.002  -0.004   0.002  0.00  0.00    +0.018 C 
ENDBRANCH  23  26
ENDBRANCH  21  23
ENDBRANCH   1  21
TORSDOF 5
