REMARK  Name = ZINC19202664
REMARK                            x       y       z     vdW  Elec       q    Type
REMARK                         _______ _______ _______ _____ _____    ______ ____
ROOT
ATOM      1  C   LIG    1       -0.019   1.530   0.011  0.00  0.00    -0.014 C 
ATOM      2  C   LIG    1        1.423   2.043  -0.001  0.00  0.00    -0.078 C 
ATOM      3  N   LIG    1        2.357   0.915  -0.015  0.00  0.00    +0.381 N 
ATOM      4  H   LIG    1        3.298   1.280  -0.026  0.00  0.00    -0.082 HD
ATOM      5  C   LIG    1        2.170   0.107  -1.222  0.00  0.00    -0.078 C 
ATOM      6  C   LIG    1        0.753  -0.471  -1.252  0.00  0.00    -0.014 C 
ATOM      7  C   LIG    1        2.192   0.094   1.187  0.00  0.00    -0.060 C 
ATOM      8  C   LIG    1        0.776  -0.484   1.236  0.00  0.00    +0.037 C 
ATOM      9  C   LIG    1        0.002  -0.004   0.002  0.00  0.00    +0.000 C 
ENDROOT
BRANCH   8  10
ATOM     10  N   LIG    1        0.841  -1.952   1.237  0.00  0.00    -0.329 NA
ATOM     11  H   LIG    1       -0.083  -2.354   1.195  0.00  0.00    +0.118 HD
ATOM     12  H   LIG    1        1.347  -2.291   2.042  0.00  0.00    +0.118 HD
ENDBRANCH   8  10
TORSDOF 1
