REMARK  Name = ZINC29064337
REMARK                            x       y       z     vdW  Elec       q    Type
REMARK                         _______ _______ _______ _____ _____    ______ ____
ROOT
ATOM      1  N   LIG    1       -0.931   3.053  -1.138  0.00  0.00    -0.297 N 
ATOM      2  C   LIG    1       -0.779   1.594  -1.229  0.00  0.00    +0.127 C 
ATOM      3  C   LIG    1       -0.024   1.085   0.003  0.00  0.00    +0.126 C 
ATOM      4  N   LIG    1       -0.714   1.563   1.210  0.00  0.00    -0.309 N 
ATOM      5  C   LIG    1       -1.029   2.997   1.308  0.00  0.00    +0.126 C 
ATOM      6  C   LIG    1       -1.745   3.432   0.025  0.00  0.00    +0.127 C 
ENDROOT
BRANCH   1  14
ATOM      7  N   LIG    1       -2.391   6.757  -3.597  0.00  0.00    -0.331 N 
ATOM      8  C   LIG    1       -2.904   7.325  -4.699  0.00  0.00    +0.106 A 
ATOM      9  C   LIG    1       -3.253   6.591  -5.813  0.00  0.00    +0.122 A 
ATOM     10  C   LIG    1       -3.056   5.130  -5.793  0.00  0.00    +0.206 A 
ATOM     11  C   LIG    1       -2.491   4.550  -4.565  0.00  0.00    +0.083 A 
ATOM     12  C   LIG    1       -2.261   3.181  -4.432  0.00  0.00    +0.129 A 
ATOM     13  N   LIG    1       -1.746   2.736  -3.299  0.00  0.00    -0.222 NA
ATOM     14  C   LIG    1       -1.462   3.568  -2.303  0.00  0.00    +0.220 A 
ATOM     15  N   LIG    1       -1.665   4.874  -2.386  0.00  0.00    -0.196 NA
ATOM     16  O   LIG    1       -3.348   4.435  -6.750  0.00  0.00    -0.286 OA
ATOM     17  C   LIG    1       -2.174   5.407  -3.491  0.00  0.00    +0.149 A 
BRANCH   7  19
ATOM     18  C   LIG    1       -0.565   7.983  -2.527  0.00  0.00    +0.027 C 
ATOM     19  C   LIG    1       -2.049   7.614  -2.460  0.00  0.00    +0.120 C 
ENDBRANCH   7  19
BRANCH   9  20
ATOM     20  C   LIG    1       -3.813   7.253  -7.000  0.00  0.00    +0.342 C 
ATOM     21  O   LIG    1       -4.117   6.596  -7.976  0.00  0.00    -0.245 OA
BRANCH  20  22
ATOM     22  O   LIG    1       -3.988   8.590  -7.006  0.00  0.00    -0.477 OA
ATOM     23  H   LIG    1       -3.754   9.097  -6.254  0.00  0.00    +0.295 HD
ENDBRANCH  20  22
ENDBRANCH   9  20
ENDBRANCH   1  14
BRANCH   4  24
ATOM     24  C   LIG    1       -1.054   0.710   2.197  0.00  0.00    +0.139 C 
ATOM     25  S   LIG    1       -1.740   1.308   3.647  0.00  0.00    -0.018 S 
BRANCH  24  26
ATOM     26  N   LIG    1       -0.852  -0.613   2.042  0.00  0.00    -0.267 N 
ATOM     27  H   LIG    1       -0.332  -0.990   1.149  0.00  0.00    +0.157 HD
ATOM     28  C   LIG    1       -1.288  -1.476   2.982  0.00  0.00    +0.230 C 
ATOM     29  O   LIG    1       -1.861  -1.060   3.966  0.00  0.00    -0.274 OA
BRANCH  28  30
ATOM     30  C   LIG    1       -1.063  -2.956   2.809  0.00  0.00    +0.142 C 
ATOM     31  C   LIG    1       -1.729  -3.414   1.540  0.00  0.00    +0.011 A 
ATOM     32  C   LIG    1       -1.118  -3.163   0.324  0.00  0.00    +0.008 A 
ATOM     33  C   LIG    1       -1.713  -3.578  -0.853  0.00  0.00    +0.001 A 
ATOM     34  C   LIG    1       -2.923  -4.245  -0.818  0.00  0.00    +0.004 A 
ATOM     35  C   LIG    1       -3.538  -4.498   0.392  0.00  0.00    +0.046 A 
ATOM     36  C   LIG    1       -2.942  -4.082   1.577  0.00  0.00    +0.133 A 
ATOM     37  O   LIG    1       -3.560  -4.340   2.755  0.00  0.00    -0.455 OA
ATOM     38  C   LIG    1       -2.849  -4.340   3.908  0.00  0.00    +0.133 A 
ATOM     39  C   LIG    1       -3.355  -5.008   5.018  0.00  0.00    +0.046 A 
ATOM     40  C   LIG    1       -2.646  -5.020   6.202  0.00  0.00    +0.004 A 
ATOM     41  C   LIG    1       -1.430  -4.367   6.286  0.00  0.00    +0.001 A 
ATOM     42  C   LIG    1       -0.925  -3.701   5.185  0.00  0.00    +0.008 A 
ATOM     43  C   LIG    1       -1.631  -3.686   3.995  0.00  0.00    +0.011 A 
ENDBRANCH  28  30
ENDBRANCH  24  26
ENDBRANCH   4  24
TORSDOF 7
