REMARK  Name = ZINC19877307
REMARK                            x       y       z     vdW  Elec       q    Type
REMARK                         _______ _______ _______ _____ _____    ______ ____
ROOT
ATOM      1  N   LIG    1        0.690  -0.478  -1.207  0.00  0.00    -0.306 NA
ATOM      2  C   LIG    1       -0.073  -0.135  -2.415  0.00  0.00    +0.066 C 
ATOM      3  C   LIG    1        0.713  -0.574  -3.653  0.00  0.00    -0.063 C 
ATOM      4  N   LIG    1        0.963  -2.021  -3.584  0.00  0.00    +0.384 N 
ATOM      5  H   LIG    1       -0.010  -2.531  -3.528  0.00  0.00    -0.081 HD
ATOM      6  C   LIG    1        1.725  -2.363  -2.375  0.00  0.00    -0.063 C 
ATOM      7  C   LIG    1        0.939  -1.924  -1.138  0.00  0.00    +0.066 C 
ENDROOT
BRANCH   1   8
ATOM      8  C   LIG    1        0.002  -0.004   0.002  0.00  0.00    +0.084 C 
BRANCH   8   9
ATOM      9  C   LIG    1       -0.019   1.526   0.010  0.00  0.00    +0.020 C 
BRANCH   9  10
ATOM     10  C   LIG    1       -0.735   2.019   1.269  0.00  0.00    +0.036 C 
BRANCH  10  14
ATOM     11  C   LIG    1       -0.793   6.290   1.293  0.00  0.00    +0.000 A 
ATOM     12  C   LIG    1       -1.826   5.588   0.701  0.00  0.00    +0.000 A 
ATOM     13  C   LIG    1       -1.807   4.206   0.693  0.00  0.00    +0.003 A 
ATOM     14  C   LIG    1       -0.755   3.526   1.278  0.00  0.00    -0.047 A 
ATOM     15  C   LIG    1        0.275   4.228   1.875  0.00  0.00    +0.003 A 
ATOM     16  C   LIG    1        0.259   5.610   1.878  0.00  0.00    +0.000 A 
ENDBRANCH  10  14
ENDBRANCH   9  10
ENDBRANCH   8   9
ENDBRANCH   1   8
BRANCH   4  17
ATOM     17  C   LIG    1        1.650  -2.494  -4.792  0.00  0.00    -0.043 C 
BRANCH  17  18
ATOM     18  C   LIG    1        0.977  -1.919  -6.012  0.00  0.00    -0.061 A 
ATOM     19  C   LIG    1       -0.059  -2.606  -6.618  0.00  0.00    +0.002 A 
ATOM     20  C   LIG    1       -0.680  -2.077  -7.734  0.00  0.00    +0.003 A 
ATOM     21  C   LIG    1       -0.261  -0.866  -8.250  0.00  0.00    +0.038 A 
ATOM     22  C   LIG    1        0.779  -0.179  -7.647  0.00  0.00    +0.124 A 
ATOM     23  F   LIG    1        1.191   1.004  -8.152  0.00  0.00    -0.205 F 
ATOM     24  C   LIG    1        1.398  -0.708  -6.526  0.00  0.00    +0.040 A 
ENDBRANCH  17  18
ENDBRANCH   4  17
TORSDOF 6
