REMARK  Name = ZINC00020250
REMARK                            x       y       z     vdW  Elec       q    Type
REMARK                         _______ _______ _______ _____ _____    ______ ____
ROOT
ATOM      1  N   LIG    1        0.001  -2.138   1.094  0.00  0.00    -0.300 N 
ATOM      2  C   LIG    1       -1.180  -2.467   1.767  0.00  0.00    +0.048 A 
ATOM      3  C   LIG    1       -1.512  -1.828   2.951  0.00  0.00    +0.024 A 
ATOM      4  C   LIG    1       -2.682  -2.160   3.612  0.00  0.00    +0.002 A 
ATOM      5  C   LIG    1       -3.525  -3.128   3.099  0.00  0.00    +0.001 A 
ATOM      6  C   LIG    1       -3.203  -3.773   1.917  0.00  0.00    +0.017 A 
ATOM      7  C   LIG    1       -2.036  -3.445   1.253  0.00  0.00    +0.034 A 
ATOM      8  S   LIG    1       -1.599  -4.250  -0.257  0.00  0.00    -0.086 S 
ATOM      9  C   LIG    1        0.165  -4.163  -0.232  0.00  0.00    +0.034 A 
ATOM     10  C   LIG    1        0.929  -5.121  -0.871  0.00  0.00    +0.017 A 
ATOM     11  C   LIG    1        2.302  -5.030  -0.851  0.00  0.00    +0.001 A 
ATOM     12  C   LIG    1        2.915  -3.987  -0.184  0.00  0.00    +0.002 A 
ATOM     13  C   LIG    1        2.158  -3.025   0.462  0.00  0.00    +0.024 A 
ATOM     14  C   LIG    1        0.774  -3.105   0.442  0.00  0.00    +0.048 A 
ENDROOT
BRANCH   1  15
ATOM     15  C   LIG    1        0.439  -0.740   1.066  0.00  0.00    +0.095 C 
BRANCH  15  17
ATOM     16  C   LIG    1        0.154  -0.601  -1.412  0.00  0.00    -0.012 C 
ATOM     17  C   LIG    1       -0.275  -0.005  -0.070  0.00  0.00    -0.055 C 
BRANCH  17  18
ATOM     18  N   LIG    1        0.082   1.420  -0.031  0.00  0.00    +0.379 N 
ATOM     19  H   LIG    1        1.082   1.519  -0.117  0.00  0.00    -0.082 HD
ATOM     20  C   LIG    1       -0.359   2.000   1.245  0.00  0.00    -0.096 C 
ATOM     21  C   LIG    1       -0.577   2.120  -1.141  0.00  0.00    -0.096 C 
ENDBRANCH  17  18
ENDBRANCH  15  17
ENDBRANCH   1  15
TORSDOF 3
