REMARK  Name = ZINC27416691
REMARK                            x       y       z     vdW  Elec       q    Type
REMARK                         _______ _______ _______ _____ _____    ______ ____
ROOT
ATOM      1  C   LIG    1        4.936   3.498   1.084  0.00  0.00    +0.124 A 
ATOM      2  C   LIG    1        5.875   2.874   1.888  0.00  0.00    +0.046 A 
ATOM      3  C   LIG    1        5.583   1.648   2.455  0.00  0.00    +0.004 A 
ATOM      4  C   LIG    1        4.359   1.057   2.220  0.00  0.00    +0.004 A 
ATOM      5  C   LIG    1        3.413   1.681   1.417  0.00  0.00    -0.042 A 
ATOM      6  C   LIG    1        2.096   0.984   1.211  0.00  0.00    +0.020 C 
ATOM      7  C   LIG    1        1.353   1.550  -0.003  0.00  0.00    -0.064 C 
ATOM      8  N   LIG    1       -0.012   1.005   0.008  0.00  0.00    +0.381 N 
ATOM      9  H   LIG    1        0.056  -0.090  -0.071  0.00  0.00    -0.086 HD
ATOM     10  H   LIG    1       -0.482   1.275   0.965  0.00  0.00    -0.086 HD
ATOM     11  C   LIG    1       -0.821   1.525  -1.099  0.00  0.00    -0.082 C 
ATOM     12  C   LIG    1       -0.954   3.033  -0.966  0.00  0.00    -0.019 C 
ATOM     13  C   LIG    1        0.441   3.658  -1.012  0.00  0.00    +0.000 C 
ATOM     14  C   LIG    1        1.309   3.078   0.110  0.00  0.00    -0.020 C 
ATOM     15  C   LIG    1        2.732   3.618  -0.052  0.00  0.00    +0.041 C 
ATOM     16  C   LIG    1        3.701   2.898   0.845  0.00  0.00    -0.002 A 
ENDROOT
BRANCH   1  18
ATOM     17  C   LIG    1        6.504   5.264   0.810  0.00  0.00    +0.277 C 
ATOM     18  O   LIG    1        5.221   4.704   0.525  0.00  0.00    -0.495 OA
ENDBRANCH   1  18
TORSDOF 1
