REMARK  Name = ZINC23633512
REMARK                            x       y       z     vdW  Elec       q    Type
REMARK                         _______ _______ _______ _____ _____    ______ ____
ROOT
ATOM      1  C   LIG    1        1.397   3.524   0.008  0.00  0.00    +0.261 C 
ENDROOT
BRANCH   1   2
ATOM      2  O   LIG    1        2.731   4.019  -0.120  0.00  0.00    -0.489 OA
BRANCH   2   8
ATOM      3  C   LIG    1        4.158   5.918  -0.251  0.00  0.00    -0.003 A 
ATOM      4  C   LIG    1        4.317   7.291  -0.260  0.00  0.00    +0.007 A 
ATOM      5  C   LIG    1        3.214   8.116  -0.149  0.00  0.00    +0.001 A 
ATOM      6  C   LIG    1        1.948   7.571  -0.029  0.00  0.00    +0.004 A 
ATOM      7  C   LIG    1        1.784   6.200  -0.025  0.00  0.00    +0.046 A 
ATOM      8  C   LIG    1        2.890   5.369  -0.130  0.00  0.00    +0.124 A 
BRANCH   3  10
ATOM      9  C   LIG    1        6.076   5.299  -1.695  0.00  0.00    +0.012 C 
ATOM     10  C   LIG    1        5.361   5.019  -0.372  0.00  0.00    +0.016 C 
ATOM     11  C   LIG    1        6.318   5.288   0.792  0.00  0.00    +0.012 C 
ENDBRANCH   3  10
ENDBRANCH   2   8
ENDBRANCH   1   2
BRANCH   1  12
ATOM     12  C   LIG    1        1.417   1.994  -0.001  0.00  0.00    +0.166 C 
BRANCH  12  13
ATOM     13  O   LIG    1        2.109   1.521   1.157  0.00  0.00    -0.387 OA
ATOM     14  H   LIG    1        2.225   0.440   1.324  0.00  0.00    +0.210 HD
ENDBRANCH  12  13
BRANCH  12  15
ATOM     15  C   LIG    1       -0.018   1.465   0.010  0.00  0.00    +0.119 C 
BRANCH  15  16
ATOM     16  N   LIG    1        0.002  -0.004   0.002  0.00  0.00    -0.295 NA
ATOM     17  C   LIG    1        0.547  -0.517  -1.263  0.00  0.00    +0.112 C 
ATOM     18  C   LIG    1        0.606  -2.045  -1.206  0.00  0.00    +0.175 C 
ATOM     19  O   LIG    1       -0.702  -2.557  -0.933  0.00  0.00    -0.377 OA
ATOM     20  C   LIG    1       -1.263  -2.079   0.293  0.00  0.00    +0.175 C 
ATOM     21  C   LIG    1       -1.340  -0.550   0.250  0.00  0.00    +0.112 C 
ENDBRANCH  15  16
ENDBRANCH  12  15
ENDBRANCH   1  12
TORSDOF 7
