REMARK  Name = ZINC26731846
REMARK                            x       y       z     vdW  Elec       q    Type
REMARK                         _______ _______ _______ _____ _____    ______ ____
ROOT
ATOM      1  C   LIG    1        1.789   4.497   0.009  0.00  0.00    +0.140 C 
ATOM      2  C   LIG    1        2.120   5.293   1.063  0.00  0.00    +0.135 C 
ATOM      3  C   LIG    1        3.133   6.247   0.568  0.00  0.00    +0.232 C 
ATOM      4  N   LIG    1        3.357   5.994  -0.734  0.00  0.00    -0.139 NA
ATOM      5  C   LIG    1        2.592   4.965  -1.139  0.00  0.00    +0.289 C 
ATOM      6  O   LIG    1        2.566   4.498  -2.260  0.00  0.00    -0.266 OA
ENDROOT
BRANCH   1  14
ATOM      7  C   LIG    1        1.203  -0.668  -0.013  0.00  0.00    +0.001 A 
ATOM      8  C   LIG    1        2.397   0.039  -0.021  0.00  0.00    +0.002 A 
ATOM      9  C   LIG    1        2.398   1.417  -0.014  0.00  0.00    +0.027 A 
ATOM     10  C   LIG    1        1.193   2.110   0.002  0.00  0.00    +0.054 A 
ATOM     11  C   LIG    1       -0.017   1.391   0.010  0.00  0.00    +0.000 A 
ATOM     12  C   LIG    1       -1.085   2.395   0.019  0.00  0.00    +0.028 A 
ATOM     13  C   LIG    1       -0.493   3.600   0.025  0.00  0.00    +0.092 A 
ATOM     14  N   LIG    1        0.869   3.451   0.012  0.00  0.00    -0.310 N 
ATOM     15  C   LIG    1        0.002  -0.004   0.002  0.00  0.00    +0.010 A 
ENDBRANCH   1  14
BRANCH   2  16
ATOM     16  N   LIG    1        1.605   5.221   2.356  0.00  0.00    -0.310 N 
ATOM     17  C   LIG    1        1.928   4.263   3.280  0.00  0.00    +0.092 A 
ATOM     18  C   LIG    1        1.259   4.485   4.422  0.00  0.00    +0.028 A 
ATOM     19  C   LIG    1        0.433   5.678   4.212  0.00  0.00    +0.000 A 
ATOM     20  C   LIG    1       -0.467   6.387   5.009  0.00  0.00    +0.010 A 
ATOM     21  C   LIG    1       -1.097   7.495   4.501  0.00  0.00    +0.001 A 
ATOM     22  C   LIG    1       -0.846   7.914   3.203  0.00  0.00    +0.002 A 
ATOM     23  C   LIG    1        0.039   7.226   2.401  0.00  0.00    +0.027 A 
ATOM     24  C   LIG    1        0.689   6.101   2.894  0.00  0.00    +0.054 A 
ENDBRANCH   2  16
BRANCH   3  25
ATOM     25  O   LIG    1        3.671   7.116   1.224  0.00  0.00    -0.493 OA
ATOM     26  H   LIG    1        3.454   7.221   2.129  0.00  0.00    +0.294 HD
ENDBRANCH   3  25
TORSDOF 3
