REMARK  Name = ZINC28635315
REMARK                            x       y       z     vdW  Elec       q    Type
REMARK                         _______ _______ _______ _____ _____    ______ ____
ROOT
ATOM      1  C   LIG    1        0.939   3.566   0.255  0.00  0.00    +0.015 C 
ATOM      2  C   LIG    1        2.155   4.141   0.378  0.00  0.00    +0.000 C 
ATOM      3  C   LIG    1        2.327   5.610   0.348  0.00  0.00    +0.185 C 
ATOM      4  C   LIG    1        3.329   6.144   1.297  0.00  0.00    +0.000 C 
ATOM      5  C   LIG    1        4.593   5.327   1.478  0.00  0.00    +0.039 C 
ATOM      6  C   LIG    1        4.207   3.869   1.741  0.00  0.00    +0.009 C 
ATOM      7  C   LIG    1        3.128   7.300   1.968  0.00  0.00    +0.015 C 
ATOM      8  O   LIG    1        1.690   6.329  -0.403  0.00  0.00    -0.287 OA
ATOM      9  C   LIG    1        3.412   3.315   0.561  0.00  0.00    +0.039 C 
ENDROOT
BRANCH   1  11
ATOM     10  C   LIG    1        1.764   1.396  -0.638  0.00  0.00    +0.011 A 
ATOM     11  C   LIG    1        0.826   2.106   0.122  0.00  0.00    -0.023 A 
ATOM     12  C   LIG    1       -0.218   1.421   0.754  0.00  0.00    +0.026 A 
ATOM     13  C   LIG    1       -0.319   0.054   0.626  0.00  0.00    +0.060 A 
ATOM     14 BR   LIG    1       -1.729  -0.873   1.479  0.00  0.00    -0.047 Br
ATOM     15  C   LIG    1        0.616  -0.646  -0.130  0.00  0.00    +0.131 A 
ATOM     16  C   LIG    1        1.655   0.029  -0.759  0.00  0.00    +0.047 A 
BRANCH  15  17
ATOM     17  O   LIG    1        0.514  -1.994  -0.252  0.00  0.00    -0.506 OA
ATOM     18  H   LIG    1       -0.019  -2.281  -1.006  0.00  0.00    +0.292 HD
ENDBRANCH  15  17
ENDBRANCH   1  11
BRANCH   7  19
ATOM     19  C   LIG    1        4.205   7.869   2.789  0.00  0.00    -0.023 A 
ATOM     20  C   LIG    1        3.900   8.552   3.973  0.00  0.00    +0.026 A 
ATOM     21  C   LIG    1        4.913   9.084   4.739  0.00  0.00    +0.060 A 
ATOM     22 BR   LIG    1        4.502  10.007   6.338  0.00  0.00    -0.047 Br
ATOM     23  C   LIG    1        6.237   8.944   4.339  0.00  0.00    +0.131 A 
ATOM     24  C   LIG    1        6.546   8.266   3.165  0.00  0.00    +0.047 A 
ATOM     25  C   LIG    1        5.541   7.726   2.395  0.00  0.00    +0.011 A 
BRANCH  23  26
ATOM     26  O   LIG    1        7.233   9.470   5.097  0.00  0.00    -0.506 OA
ATOM     27  H   LIG    1        7.577   8.866   5.769  0.00  0.00    +0.292 HD
ENDBRANCH  23  26
ENDBRANCH   7  19
TORSDOF 4
