REMARK  Name = ZINC00046844
REMARK                            x       y       z     vdW  Elec       q    Type
REMARK                         _______ _______ _______ _____ _____    ______ ____
ROOT
ATOM      1  C   LIG    1       -0.959   1.732  -3.566  0.00  0.00    +0.084 A 
ATOM      2  C   LIG    1       -0.647   1.523  -4.902  0.00  0.00    +0.068 A 
ATOM      3  C   LIG    1       -1.523   2.118  -5.897  0.00  0.00    -0.023 A 
ATOM      4  C   LIG    1       -2.558   2.829  -5.401  0.00  0.00    -0.004 A 
ATOM      5  C   LIG    1       -3.612   3.554  -6.180  0.00  0.00    +0.043 C 
ATOM      6  C   LIG    1       -3.135   3.685  -7.634  0.00  0.00    +0.005 C 
ATOM      7  C   LIG    1       -2.628   2.321  -8.111  0.00  0.00    +0.005 C 
ATOM      8  C   LIG    1       -1.318   1.975  -7.401  0.00  0.00    +0.037 C 
ATOM      9  S   LIG    1       -2.386   2.712  -3.643  0.00  0.00    -0.077 S 
ENDROOT
BRANCH   2  10
ATOM     10  C   LIG    1        0.521   0.728  -5.295  0.00  0.00    +0.244 C 
ATOM     11  N   LIG    1        1.715   1.327  -5.473  0.00  0.00    -0.325 N 
ATOM     12  H   LIG    1        2.487   0.801  -5.732  0.00  0.00    +0.145 HD
ATOM     13  H   LIG    1        1.802   2.284  -5.340  0.00  0.00    +0.145 HD
ATOM     14  O   LIG    1        0.412  -0.473  -5.461  0.00  0.00    -0.270 OA
ENDBRANCH   2  10
BRANCH   1  16
ATOM     15  C   LIG    1       -0.742   1.585  -1.213  0.00  0.00    +0.218 C 
ATOM     16  N   LIG    1       -0.288   1.272  -2.443  0.00  0.00    -0.279 N 
ATOM     17  H   LIG    1        0.507   0.726  -2.543  0.00  0.00    +0.155 HD
ATOM     18  O   LIG    1       -1.736   2.268  -1.088  0.00  0.00    -0.275 OA
BRANCH  15  19
ATOM     19  C   LIG    1       -0.013   1.086   0.008  0.00  0.00    +0.101 C 
BRANCH  19  20
ATOM     20  C   LIG    1       -0.729   1.579   1.267  0.00  0.00    +0.044 C 
BRANCH  20  24
ATOM     21  C   LIG    1        1.337   0.164   4.728  0.00  0.00    +0.000 A 
ATOM     22  C   LIG    1        1.680   1.380   4.167  0.00  0.00    +0.000 A 
ATOM     23  C   LIG    1        1.012   1.838   3.046  0.00  0.00    +0.003 A 
ATOM     24  C   LIG    1        0.000   1.080   2.488  0.00  0.00    -0.047 A 
ATOM     25  C   LIG    1       -0.347  -0.133   3.052  0.00  0.00    +0.003 A 
ATOM     26  C   LIG    1        0.325  -0.593   4.169  0.00  0.00    +0.000 A 
ENDBRANCH  20  24
ENDBRANCH  19  20
ENDBRANCH  15  19
ENDBRANCH   1  16
TORSDOF 5
