REMARK  Name = ZINC49823269
REMARK                            x       y       z     vdW  Elec       q    Type
REMARK                         _______ _______ _______ _____ _____    ______ ____
ROOT
ATOM      1  C   LIG    1        4.459 -10.893   7.244  0.00  0.00    +0.101 A 
ATOM      2  C   LIG    1        4.484 -12.302   7.236  0.00  0.00    +0.138 A 
ATOM      3  C   LIG    1        5.103 -12.994   8.263  0.00  0.00    +0.045 A 
ATOM      4  C   LIG    1        5.702 -12.311   9.308  0.00  0.00    +0.138 A 
ATOM      5  C   LIG    1        5.687 -10.902   9.335  0.00  0.00    +0.101 A 
ATOM      6  C   LIG    1        5.068 -10.191   8.296  0.00  0.00    +0.145 A 
ENDROOT
BRANCH   3   7
ATOM      7  C   LIG    1        5.124 -14.500   8.244  0.00  0.00    +0.064 C 
ATOM      8  C   LIG    1        4.417 -15.035   9.492  0.00  0.00    +0.062 C 
ATOM      9  C   LIG    1        4.706 -16.538   9.603  0.00  0.00    +0.204 C 
ATOM     10  O   LIG    1        6.106 -16.712   9.822  0.00  0.00    -0.484 OA
ATOM     11  C   LIG    1        6.964 -16.051   9.002  0.00  0.00    +0.129 A 
ATOM     12  C   LIG    1        8.289 -16.470   8.952  0.00  0.00    +0.091 A 
ATOM     13  C   LIG    1        9.195 -15.820   8.134  0.00  0.00    +0.120 A 
ATOM     14  C   LIG    1        8.778 -14.748   7.359  0.00  0.00    +0.046 A 
ATOM     15  C   LIG    1        7.462 -14.333   7.406  0.00  0.00    +0.011 A 
ATOM     16  C   LIG    1        6.553 -14.982   8.225  0.00  0.00    +0.002 A 
BRANCH   9  17
ATOM     17  C   LIG    1        3.934 -17.119  10.759  0.00  0.00    -0.007 A 
ATOM     18  C   LIG    1        4.405 -16.966  12.050  0.00  0.00    +0.011 A 
ATOM     19  C   LIG    1        3.699 -17.498  13.111  0.00  0.00    +0.046 A 
ATOM     20  C   LIG    1        2.517 -18.187  12.882  0.00  0.00    +0.117 A 
ATOM     21  C   LIG    1        2.047 -18.340  11.585  0.00  0.00    +0.046 A 
ATOM     22  C   LIG    1        2.753 -17.801  10.528  0.00  0.00    +0.011 A 
BRANCH  20  23
ATOM     23  O   LIG    1        1.822 -18.713  13.924  0.00  0.00    -0.507 OA
ATOM     24  H   LIG    1        1.166 -18.111  14.303  0.00  0.00    +0.292 HD
ENDBRANCH  20  23
ENDBRANCH   9  17
BRANCH  13  25
ATOM     25  O   LIG    1       10.489 -16.232   8.089  0.00  0.00    -0.507 OA
ATOM     26  H   LIG    1       11.063 -15.797   8.734  0.00  0.00    +0.292 HD
ENDBRANCH  13  25
ENDBRANCH   3   7
BRANCH   6  27
ATOM     27  O   LIG    1        5.053  -8.838   8.310  0.00  0.00    -0.505 OA
ATOM     28  H   LIG    1        4.288  -8.458   8.763  0.00  0.00    +0.292 HD
ENDBRANCH   6  27
BRANCH   5  29
ATOM     29  C   LIG    1        6.319 -10.183  10.440  0.00  0.00    +0.170 C 
ATOM     30  O   LIG    1        6.858 -10.800  11.336  0.00  0.00    -0.292 OA
BRANCH  29  31
ATOM     31  C   LIG    1        6.302  -8.676  10.467  0.00  0.00    +0.080 C 
BRANCH  31  32
ATOM     32  C   LIG    1        7.026  -8.180  11.720  0.00  0.00    +0.008 C 
BRANCH  32  33
ATOM     33  C   LIG    1        7.009  -6.651  11.748  0.00  0.00    +0.000 C 
BRANCH  33  34
ATOM     34  C   LIG    1        7.733  -6.155  13.001  0.00  0.00    +0.000 C 
BRANCH  34  35
ATOM     35  C   LIG    1        7.715  -4.625  13.028  0.00  0.00    +0.000 C 
BRANCH  35  36
ATOM     36  C   LIG    1        8.440  -4.129  14.281  0.00  0.00    +0.000 C 
BRANCH  36  37
ATOM     37  C   LIG    1        8.422  -2.599  14.309  0.00  0.00    -0.000 C 
BRANCH  37  38
ATOM     38  C   LIG    1        9.146  -2.103  15.562  0.00  0.00    -0.000 C 
BRANCH  38  39
ATOM     39  C   LIG    1        9.129  -0.574  15.589  0.00  0.00    -0.000 C 
BRANCH  39  40
ATOM     40  C   LIG    1        9.853  -0.077  16.842  0.00  0.00    -0.003 C 
ATOM     41  C   LIG    1        9.835   1.452  16.869  0.00  0.00    +0.004 C 
ENDBRANCH  39  40
ENDBRANCH  38  39
ENDBRANCH  37  38
ENDBRANCH  36  37
ENDBRANCH  35  36
ENDBRANCH  34  35
ENDBRANCH  33  34
ENDBRANCH  32  33
ENDBRANCH  31  32
ENDBRANCH  29  31
ENDBRANCH   5  29
BRANCH   4  42
ATOM     42  O   LIG    1        6.304 -12.999  10.307  0.00  0.00    -0.506 OA
ATOM     43  H   LIG    1        6.314 -13.936  10.290  0.00  0.00    +0.292 HD
ENDBRANCH   4  42
BRANCH   2  44
ATOM     44  O   LIG    1        3.902 -12.981   6.220  0.00  0.00    -0.506 OA
ATOM     45  H   LIG    1        4.494 -13.162   5.477  0.00  0.00    +0.292 HD
ENDBRANCH   2  44
BRANCH   1  46
ATOM     46  C   LIG    1        3.805 -10.164   6.158  0.00  0.00    +0.170 C 
ATOM     47  O   LIG    1        3.280 -10.774   5.249  0.00  0.00    -0.292 OA
BRANCH  46  48
ATOM     48  C   LIG    1        3.785  -8.658   6.166  0.00  0.00    +0.080 C 
BRANCH  48  49
ATOM     49  C   LIG    1        3.045  -8.151   4.926  0.00  0.00    +0.008 C 
BRANCH  49  50
ATOM     50  C   LIG    1        3.024  -6.621   4.935  0.00  0.00    +0.000 C 
BRANCH  50  51
ATOM     51  C   LIG    1        2.284  -6.114   3.695  0.00  0.00    +0.000 C 
BRANCH  51  52
ATOM     52  C   LIG    1        2.264  -4.584   3.704  0.00  0.00    +0.000 C 
BRANCH  52  53
ATOM     53  C   LIG    1        1.524  -4.077   2.464  0.00  0.00    +0.000 C 
BRANCH  53  54
ATOM     54  C   LIG    1        1.503  -2.548   2.473  0.00  0.00    -0.000 C 
BRANCH  54  55
ATOM     55  C   LIG    1        0.763  -2.041   1.233  0.00  0.00    -0.000 C 
BRANCH  55  56
ATOM     56  C   LIG    1        0.742  -0.511   1.242  0.00  0.00    -0.000 C 
BRANCH  56  58
ATOM     57  C   LIG    1       -0.019   1.526   0.010  0.00  0.00    +0.004 C 
ATOM     58  C   LIG    1        0.002  -0.004   0.002  0.00  0.00    -0.003 C 
ENDBRANCH  56  58
ENDBRANCH  55  56
ENDBRANCH  54  55
ENDBRANCH  53  54
ENDBRANCH  52  53
ENDBRANCH  51  52
ENDBRANCH  50  51
ENDBRANCH  49  50
ENDBRANCH  48  49
ENDBRANCH  46  48
ENDBRANCH   1  46
TORSDOF 29
