REMARK  Name = ZINC49068170
REMARK                            x       y       z     vdW  Elec       q    Type
REMARK                         _______ _______ _______ _____ _____    ______ ____
ROOT
ATOM      1  C   LIG    1       -0.017   1.394   0.010  0.00  0.00    +0.048 A 
ATOM      2  C   LIG    1        1.190   2.069   0.002  0.00  0.00    +0.116 A 
ATOM      3  N   LIG    1        2.319   1.378  -0.013  0.00  0.00    -0.223 NA
ATOM      4  C   LIG    1        2.308   0.053  -0.020  0.00  0.00    +0.216 A 
ATOM      5  N   LIG    1        1.175  -0.633  -0.013  0.00  0.00    -0.214 NA
ATOM      6  C   LIG    1        0.002  -0.004   0.002  0.00  0.00    +0.079 A 
ENDROOT
BRANCH   6   7
ATOM      7  C   LIG    1       -1.264  -0.774   0.011  0.00  0.00    +0.041 A 
ATOM      8  C   LIG    1       -2.527  -0.252   0.020  0.00  0.00    +0.115 A 
ATOM      9  N   LIG    1       -3.393  -1.282   0.025  0.00  0.00    -0.284 N 
ATOM     10  N   LIG    1       -2.659  -2.474   0.018  0.00  0.00    -0.178 NA
ATOM     11  H   LIG    1       -4.361  -1.211   0.031  0.00  0.00    +0.188 HD
ATOM     12  C   LIG    1       -1.386  -2.178   0.004  0.00  0.00    +0.077 A 
BRANCH  12  13
ATOM     13  C   LIG    1       -0.248  -3.166  -0.012  0.00  0.00    +0.066 C 
ATOM     14  C   LIG    1       -0.348  -4.042  -1.264  0.00  0.00    +0.014 C 
ATOM     15  C   LIG    1        0.767  -5.091  -1.231  0.00  0.00    +0.029 C 
ATOM     16  C   LIG    1        0.651  -5.907   0.060  0.00  0.00    +0.160 C 
ATOM     17  O   LIG    1        0.721  -5.028   1.185  0.00  0.00    -0.379 OA
ATOM     18  C   LIG    1       -0.324  -4.055   1.232  0.00  0.00    +0.169 C 
ENDBRANCH  12  13
ENDBRANCH   6   7
BRANCH   4  19
ATOM     19  N   LIG    1        3.511  -0.632  -0.035  0.00  0.00    -0.311 N 
ATOM     20  H   LIG    1        3.517  -1.602  -0.040  0.00  0.00    +0.149 HD
BRANCH  19  21
ATOM     21  C   LIG    1        4.775   0.109  -0.043  0.00  0.00    +0.073 C 
ATOM     22  C   LIG    1        5.138   0.482  -1.482  0.00  0.00    +0.025 C 
ATOM     23  C   LIG    1        6.458   1.256  -1.490  0.00  0.00    +0.033 C 
ATOM     24  C   LIG    1        7.564   0.382  -0.895  0.00  0.00    +0.115 C 
ATOM     25  C   LIG    1        7.201   0.008   0.543  0.00  0.00    +0.033 C 
ATOM     26  C   LIG    1        5.881  -0.765   0.551  0.00  0.00    +0.025 C 
BRANCH  24  27
ATOM     27  O   LIG    1        8.797   1.105  -0.903  0.00  0.00    -0.392 OA
ATOM     28  H   LIG    1        9.545   0.611  -0.540  0.00  0.00    +0.210 HD
ENDBRANCH  24  27
ENDBRANCH  19  21
ENDBRANCH   4  19
TORSDOF 5
