REMARK  Name = ZINC58534567
REMARK                            x       y       z     vdW  Elec       q    Type
REMARK                         _______ _______ _______ _____ _____    ______ ____
ROOT
ATOM      1  C   LIG    1       -0.236  -0.439  -2.286  0.00  0.00    -0.039 C 
ENDROOT
BRANCH   1   4
ATOM      2  C   LIG    1       -0.163   1.321   0.348  0.00  0.00    +0.068 C 
ATOM      3  C   LIG    1       -0.165  -0.184   0.291  0.00  0.00    +0.062 A 
ATOM      4  C   LIG    1       -0.197  -0.961  -0.873  0.00  0.00    -0.020 A 
ATOM      5  C   LIG    1       -0.186  -2.263  -0.505  0.00  0.00    +0.043 A 
ATOM      6  C   LIG    1       -0.211  -3.449  -1.434  0.00  0.00    +0.066 C 
ATOM      7  N   LIG    1       -0.149  -2.309   0.846  0.00  0.00    -0.237 N 
ATOM      8  N   LIG    1       -0.131  -0.991   1.321  0.00  0.00    -0.171 NA
BRANCH   7   9
ATOM      9  C   LIG    1       -0.126  -3.470   1.632  0.00  0.00    +0.066 A 
ATOM     10  C   LIG    1        0.675  -4.543   1.265  0.00  0.00    +0.030 A 
ATOM     11  C   LIG    1        0.695  -5.686   2.040  0.00  0.00    +0.040 A 
ATOM     12  C   LIG    1       -0.083  -5.762   3.183  0.00  0.00    +0.124 A 
ATOM     13  F   LIG    1       -0.062  -6.881   3.940  0.00  0.00    -0.205 F 
ATOM     14  C   LIG    1       -0.883  -4.693   3.551  0.00  0.00    +0.040 A 
ATOM     15  C   LIG    1       -0.901  -3.546   2.782  0.00  0.00    +0.030 A 
ENDBRANCH   7   9
ENDBRANCH   1   4
BRANCH   1  16
ATOM     16  N   LIG    1        1.135  -0.269  -2.784  0.00  0.00    +0.384 N 
ATOM     17  H   LIG    1        1.650   0.326  -2.151  0.00  0.00    -0.081 HD
ATOM     18  C   LIG    1        1.792  -1.580  -2.861  0.00  0.00    -0.059 C 
ATOM     19  C   LIG    1        3.257  -1.393  -3.270  0.00  0.00    +0.086 C 
ATOM     20  N   LIG    1        3.296  -0.619  -4.521  0.00  0.00    -0.333 N 
ATOM     21  C   LIG    1        2.528   0.634  -4.585  0.00  0.00    +0.086 C 
ATOM     22  C   LIG    1        1.098   0.351  -4.114  0.00  0.00    -0.059 C 
BRANCH  20  23
ATOM     23  C   LIG    1        4.044  -1.062  -5.618  0.00  0.00    +0.030 A 
ATOM     24  C   LIG    1        4.165  -0.260  -6.745  0.00  0.00    +0.027 A 
ATOM     25  C   LIG    1        4.904  -0.698  -7.827  0.00  0.00    +0.047 A 
ATOM     26  C   LIG    1        5.523  -1.938  -7.788  0.00  0.00    +0.120 A 
ATOM     27  C   LIG    1        5.402  -2.740  -6.663  0.00  0.00    +0.047 A 
ATOM     28  C   LIG    1        4.669  -2.301  -5.577  0.00  0.00    +0.027 A 
BRANCH  26  29
ATOM     29  O   LIG    1        6.250  -2.369  -8.854  0.00  0.00    -0.495 OA
ATOM     30  C   LIG    1        6.861  -3.656  -8.745  0.00  0.00    +0.277 C 
ENDBRANCH  26  29
ENDBRANCH  20  23
ENDBRANCH   1  16
TORSDOF 5
