REMARK  Name = ZINC19436641
REMARK                            x       y       z     vdW  Elec       q    Type
REMARK                         _______ _______ _______ _____ _____    ______ ____
ROOT
ATOM      1  C   LIG    1       -0.013   1.076   0.008  0.00  0.00    +0.001 A 
ATOM      2  C   LIG    1       -1.234   1.745   0.017  0.00  0.00    +0.001 A 
ATOM      3  C   LIG    1       -1.286   3.106   0.030  0.00  0.00    +0.012 A 
ATOM      4  C   LIG    1       -0.093   3.848   0.023  0.00  0.00    +0.024 A 
ATOM      5  C   LIG    1        1.149   3.167   0.008  0.00  0.00    -0.014 A 
ATOM      6  C   LIG    1        2.349   3.904  -0.000  0.00  0.00    +0.009 A 
ATOM      7  C   LIG    1        2.318   5.260   0.007  0.00  0.00    +0.017 A 
ATOM      8  C   LIG    1        1.094   5.955   0.021  0.00  0.00    +0.081 A 
ATOM      9  C   LIG    1       -0.112   5.257   0.029  0.00  0.00    +0.137 A 
ATOM     10  C   LIG    1        1.163   1.763   0.000  0.00  0.00    +0.008 A 
ENDROOT
BRANCH   8  11
ATOM     11  C   LIG    1        1.089   7.428   0.028  0.00  0.00    +0.270 C 
ATOM     12  N   LIG    1        2.253   8.106   0.020  0.00  0.00    -0.193 N 
ATOM     13  H   LIG    1        3.208   7.560   0.009  0.00  0.00    +0.183 HD
ATOM     14  O   LIG    1        0.033   8.032   0.041  0.00  0.00    -0.268 OA
BRANCH  12  15
ATOM     15  O   LIG    1        2.247   9.522   0.027  0.00  0.00    -0.295 OA
ATOM     16  H   LIG    1        3.198  10.076   0.021  0.00  0.00    +0.241 HD
ENDBRANCH  12  15
ENDBRANCH   8  11
BRANCH   9  17
ATOM     17  O   LIG    1       -1.289   5.926   0.043  0.00  0.00    -0.505 OA
ATOM     18  H   LIG    1       -1.297   7.026   0.049  0.00  0.00    +0.292 HD
ENDBRANCH   9  17
TORSDOF 3
