REMARK  Name = ZINC35923133
REMARK                            x       y       z     vdW  Elec       q    Type
REMARK                         _______ _______ _______ _____ _____    ______ ____
ROOT
ATOM      1  C   LIG    1       -1.351  -7.485  -2.275  0.00  0.00    +0.019 A 
ATOM      2  C   LIG    1       -1.351  -7.522  -3.669  0.00  0.00    +0.013 A 
ATOM      3  C   LIG    1       -1.337  -8.736  -4.324  0.00  0.00    +0.029 A 
ATOM      4  C   LIG    1       -1.324  -9.916  -3.601  0.00  0.00    +0.106 A 
ATOM      5  C   LIG    1       -1.324  -9.885  -2.218  0.00  0.00    +0.029 A 
ATOM      6  C   LIG    1       -1.331  -8.677  -1.552  0.00  0.00    +0.013 A 
ENDROOT
BRANCH   1  12
ATOM      7  N   LIG    1       -1.413  -1.998   0.005  0.00  0.00    -0.263 N 
ATOM      8  C   LIG    1       -1.410  -2.660  -1.186  0.00  0.00    +0.227 A 
ATOM      9  C   LIG    1       -1.391  -4.058  -1.191  0.00  0.00    +0.168 A 
ATOM     10  C   LIG    1       -1.376  -4.745   0.046  0.00  0.00    +0.168 A 
ATOM     11  N   LIG    1       -1.360  -6.034  -0.235  0.00  0.00    -0.208 NA
ATOM     12  C   LIG    1       -1.365  -6.184  -1.565  0.00  0.00    +0.163 A 
ATOM     13  N   LIG    1       -1.381  -4.010   1.220  0.00  0.00    -0.290 N 
ATOM     14  H   LIG    1       -1.370  -4.464   2.077  0.00  0.00    +0.172 HD
ATOM     15  N   LIG    1       -1.383  -5.000  -2.152  0.00  0.00    -0.219 NA
ATOM     16  C   LIG    1       -1.393  -2.664   1.172  0.00  0.00    +0.331 A 
ATOM     17  O   LIG    1       -1.392  -2.034   2.212  0.00  0.00    -0.246 OA
BRANCH   8  18
ATOM     18  O   LIG    1       -1.425  -1.977  -2.345  0.00  0.00    -0.492 OA
ATOM     19  H   LIG    1       -1.437  -1.040  -2.336  0.00  0.00    +0.294 HD
ENDBRANCH   8  18
BRANCH   7  20
ATOM     20  C   LIG    1       -1.433  -0.534   0.013  0.00  0.00    +0.129 C 
BRANCH  20  22
ATOM     21  C   LIG    1       -0.019   1.526   0.010  0.00  0.00    +0.005 C 
ATOM     22  C   LIG    1        0.002  -0.004   0.002  0.00  0.00    +0.018 C 
ENDBRANCH  20  22
ENDBRANCH   7  20
ENDBRANCH   1  12
BRANCH   4  23
ATOM     23  S   LIG    1       -1.309 -11.463  -4.445  0.00  0.00    +0.061 S 
ATOM     24  O   LIG    1       -1.863 -11.229  -5.732  0.00  0.00    -0.153 OA
ATOM     25  O   LIG    1       -1.849 -12.421  -3.546  0.00  0.00    -0.153 OA
BRANCH  23  26
ATOM     26  N   LIG    1        0.278 -11.876  -4.680  0.00  0.00    -0.174 NA
ATOM     27  C   LIG    1        0.995 -11.454  -5.893  0.00  0.00    +0.125 C 
ATOM     28  C   LIG    1        2.309 -10.786  -5.474  0.00  0.00    +0.102 C 
ATOM     29  N   LIG    1        3.057 -11.692  -4.593  0.00  0.00    -0.296 NA
ATOM     30  C   LIG    1        2.319 -11.957  -3.350  0.00  0.00    +0.102 C 
ATOM     31  C   LIG    1        1.008 -12.668  -3.679  0.00  0.00    +0.125 C 
BRANCH  29  32
ATOM     32  C   LIG    1        4.396 -11.162  -4.307  0.00  0.00    +0.119 C 
BRANCH  32  33
ATOM     33  C   LIG    1        5.217 -12.217  -3.612  0.00  0.00    -0.033 A 
ATOM     34  C   LIG    1        5.204 -12.306  -2.232  0.00  0.00    +0.005 A 
ATOM     35  C   LIG    1        5.957 -13.274  -1.595  0.00  0.00    +0.000 A 
ATOM     36  C   LIG    1        6.722 -14.155  -2.337  0.00  0.00    +0.000 A 
ATOM     37  C   LIG    1        6.734 -14.067  -3.716  0.00  0.00    +0.000 A 
ATOM     38  C   LIG    1        5.978 -13.101  -4.354  0.00  0.00    +0.005 A 
ENDBRANCH  32  33
ENDBRANCH  29  32
ENDBRANCH  23  26
ENDBRANCH   4  23
TORSDOF 8
