REMARK  Name = ZINC38140516
REMARK                            x       y       z     vdW  Elec       q    Type
REMARK                         _______ _______ _______ _____ _____    ______ ____
ROOT
ATOM      1  C   LIG    1        1.050   1.474  -0.242  0.00  0.00    +0.012 C 
ATOM      2  C   LIG    1        0.978  -0.047  -0.172  0.00  0.00    -0.025 C 
ATOM      3  C   LIG    1       -0.441  -0.432   0.285  0.00  0.00    +0.010 C 
ATOM      4  C   LIG    1       -0.690   0.107   1.691  0.00  0.00    +0.032 C 
ATOM      5  C   LIG    1        0.281  -0.526   2.679  0.00  0.00    +0.120 C 
ATOM      6  C   LIG    1        1.740  -0.315   2.273  0.00  0.00    -0.006 C 
ATOM      7  C   LIG    1        2.191   1.094   2.657  0.00  0.00    +0.014 C 
ATOM      8  C   LIG    1        2.574  -1.305   3.124  0.00  0.00    +0.014 C 
ATOM      9  C   LIG    1        1.214  -0.683  -1.543  0.00  0.00    +0.006 C 
ATOM     10  C   LIG    1        0.312  -0.048  -2.602  0.00  0.00    +0.031 C 
ATOM     11  C   LIG    1        0.602  -0.652  -3.946  0.00  0.00    -0.026 C 
ATOM     12  C   LIG    1        1.696  -1.301  -4.244  0.00  0.00    -0.063 C 
ATOM     13  C   LIG    1        2.784  -1.583  -3.250  0.00  0.00    -0.005 C 
ATOM     14  C   LIG    1        2.606  -3.026  -2.762  0.00  0.00    +0.016 C 
ATOM     15  C   LIG    1        4.171  -1.476  -3.868  0.00  0.00    +0.012 C 
ATOM     16  C   LIG    1        4.233  -2.144  -5.243  0.00  0.00    +0.019 C 
ATOM     17  C   LIG    1        3.214  -1.518  -6.189  0.00  0.00    +0.074 C 
ATOM     18  C   LIG    1        3.386  -2.066  -7.604  0.00  0.00    +0.019 C 
ATOM     19  C   LIG    1        3.058  -3.550  -7.670  0.00  0.00    +0.007 C 
ATOM     20  C   LIG    1        1.642  -3.824  -7.168  0.00  0.00    -0.034 C 
ATOM     21  C   LIG    1        1.409  -5.343  -7.151  0.00  0.00    +0.011 C 
ATOM     22  C   LIG    1        0.611  -3.180  -8.092  0.00  0.00    +0.011 C 
ATOM     23  C   LIG    1        1.487  -3.291  -5.742  0.00  0.00    +0.015 C 
ATOM     24  C   LIG    1        1.806  -1.805  -5.674  0.00  0.00    +0.033 C 
ATOM     25  C   LIG    1        2.656  -0.660  -2.026  0.00  0.00    -0.019 C 
ATOM     26  C   LIG    1        3.034   0.756  -2.490  0.00  0.00    +0.012 C 
ATOM     27  C   LIG    1        3.642  -1.089  -0.945  0.00  0.00    +0.008 C 
ATOM     28  C   LIG    1        3.398  -0.301   0.354  0.00  0.00    +0.005 C 
ATOM     29  C   LIG    1        1.979  -0.632   0.815  0.00  0.00    +0.003 C 
ENDROOT
BRANCH   5  30
ATOM     30  O   LIG    1        0.072   0.041   3.978  0.00  0.00    -0.391 OA
ATOM     31  H   LIG    1       -0.820  -0.093   4.327  0.00  0.00    +0.210 HD
ENDBRANCH   5  30
BRANCH  17  32
ATOM     32  C   LIG    1        3.421  -0.022  -6.245  0.00  0.00    +0.312 C 
ATOM     33  O   LIG    1        4.487   0.433  -6.623  0.00  0.00    -0.250 OA
BRANCH  32  34
ATOM     34  O   LIG    1        2.521   0.731  -5.911  0.00  0.00    -0.480 OA
ATOM     35  H   LIG    1        1.702   0.381  -5.620  0.00  0.00    +0.295 HD
ENDBRANCH  32  34
ENDBRANCH  17  32
TORSDOF 3
