REMARK  Name = ZINC26740555
REMARK                            x       y       z     vdW  Elec       q    Type
REMARK                         _______ _______ _______ _____ _____    ______ ____
ROOT
ATOM      1  C   LIG    1        2.784   3.914  -0.005  0.00  0.00    +0.001 A 
ATOM      2  C   LIG    1        3.874   3.052  -0.020  0.00  0.00    +0.001 A 
ATOM      3  C   LIG    1        3.666   1.688  -0.025  0.00  0.00    +0.017 A 
ATOM      4  C   LIG    1        2.375   1.198  -0.014  0.00  0.00    +0.042 A 
ATOM      5  C   LIG    1        1.253   2.056   0.001  0.00  0.00    +0.055 A 
ATOM      6  C   LIG    1       -0.016   1.339   0.009  0.00  0.00    +0.270 A 
ATOM      7  N   LIG    1        0.002  -0.004   0.002  0.00  0.00    -0.246 N 
ATOM      8  O   LIG    1       -1.073   1.946   0.018  0.00  0.00    -0.266 OA
ATOM      9  S   LIG    1        1.657  -0.422  -0.016  0.00  0.00    -0.003 S 
ATOM     10  C   LIG    1        1.507   3.444   0.005  0.00  0.00    +0.014 A 
ENDROOT
BRANCH   7  11
ATOM     11  C   LIG    1       -1.095  -0.871   0.008  0.00  0.00    +0.057 A 
ATOM     12  C   LIG    1       -2.310  -0.452   0.536  0.00  0.00    +0.028 A 
ATOM     13  C   LIG    1       -3.393  -1.308   0.537  0.00  0.00    +0.022 A 
ATOM     14  C   LIG    1       -3.266  -2.587   0.022  0.00  0.00    +0.041 A 
ATOM     15 CL   LIG    1       -4.628  -3.663   0.031  0.00  0.00    -0.084 Cl
ATOM     16  C   LIG    1       -2.056  -3.008  -0.500  0.00  0.00    +0.022 A 
ATOM     17  C   LIG    1       -0.971  -2.154  -0.508  0.00  0.00    +0.028 A 
ENDBRANCH   7  11
TORSDOF 1
