REMARK  Name = ZINC22146623
REMARK                            x       y       z     vdW  Elec       q    Type
REMARK                         _______ _______ _______ _____ _____    ______ ____
ROOT
ATOM      1  N   LIG    1       -4.402  -1.421   4.630  0.00  0.00    -0.325 N 
ATOM      2  C   LIG    1       -3.640  -1.774   3.425  0.00  0.00    +0.124 C 
ATOM      3  C   LIG    1       -2.256  -1.119   3.490  0.00  0.00    +0.127 C 
ATOM      4  N   LIG    1       -2.433   0.324   3.714  0.00  0.00    -0.294 N 
ATOM      5  C   LIG    1       -1.819   1.227   2.924  0.00  0.00    +0.249 C 
ATOM      6  O   LIG    1       -1.168   0.854   1.967  0.00  0.00    -0.270 OA
ATOM      7  C   LIG    1       -3.292   0.755   4.827  0.00  0.00    +0.127 C 
ATOM      8  C   LIG    1       -4.640   0.026   4.706  0.00  0.00    +0.124 C 
ENDROOT
BRANCH   1  12
ATOM      9  C   LIG    1       -7.985  -3.527   4.794  0.00  0.00    +0.020 A 
ATOM     10  C   LIG    1       -7.715  -2.673   3.717  0.00  0.00    +0.013 A 
ATOM     11  C   LIG    1       -6.538  -1.984   3.668  0.00  0.00    +0.027 A 
ATOM     12  C   LIG    1       -5.599  -2.126   4.687  0.00  0.00    +0.065 A 
ATOM     13  C   LIG    1       -5.855  -2.979   5.761  0.00  0.00    +0.145 A 
ATOM     14  F   LIG    1       -4.940  -3.119   6.745  0.00  0.00    -0.204 F 
ATOM     15  C   LIG    1       -7.043  -3.672   5.821  0.00  0.00    +0.051 A 
BRANCH   9  17
ATOM     16  C   LIG    1       -9.490  -5.274   5.942  0.00  0.00    +0.091 C 
ATOM     17  C   LIG    1       -9.251  -4.268   4.846  0.00  0.00    +0.160 C 
ATOM     18  O   LIG    1      -10.105  -4.070   4.008  0.00  0.00    -0.292 OA
ENDBRANCH   9  17
ENDBRANCH   1  12
BRANCH   5  19
ATOM     19  C   LIG    1       -1.937   2.666   3.220  0.00  0.00    +0.060 A 
ATOM     20  C   LIG    1       -3.196   3.264   3.316  0.00  0.00    +0.047 A 
ATOM     21  C   LIG    1       -3.299   4.610   3.587  0.00  0.00    +0.122 A 
ATOM     22  C   LIG    1       -2.159   5.377   3.771  0.00  0.00    +0.034 A 
ATOM     23  C   LIG    1       -0.908   4.801   3.684  0.00  0.00    +0.026 A 
ATOM     24  C   LIG    1       -0.784   3.444   3.411  0.00  0.00    +0.042 A 
BRANCH  24  25
ATOM     25  N   LIG    1        0.474   2.863   3.322  0.00  0.00    -0.325 N 
ATOM     26  C   LIG    1        1.528   3.887   3.297  0.00  0.00    +0.133 C 
ATOM     27  C   LIG    1        2.890   3.207   3.140  0.00  0.00    +0.178 C 
ATOM     28  O   LIG    1        3.074   2.267   4.201  0.00  0.00    -0.377 OA
ATOM     29  C   LIG    1        2.065   1.254   4.255  0.00  0.00    +0.178 C 
ATOM     30  C   LIG    1        0.695   1.915   4.424  0.00  0.00    +0.133 C 
ENDBRANCH  24  25
BRANCH  21  31
ATOM     31  N   LIG    1       -4.634   5.242   3.683  0.00  0.00    +0.006 N 
ATOM     32  O   LIG    1       -4.729   6.432   3.922  0.00  0.00    -0.130 OA
BRANCH  31  33
ATOM     33  O   LIG    1       -5.638   4.571   3.522  0.00  0.00    -0.396 OA
ATOM     34  H   LIG    1       -5.565   3.655   3.338  0.00  0.00    +0.329 HD
ENDBRANCH  31  33
ENDBRANCH  21  31
ENDBRANCH   5  19
TORSDOF 6
