REMARK  Name = ZINC49034809
REMARK                            x       y       z     vdW  Elec       q    Type
REMARK                         _______ _______ _______ _____ _____    ______ ____
ROOT
ATOM      1  N   LIG    1       -4.934  -3.867   0.033  0.00  0.00    -0.175 NA
ATOM      2  C   LIG    1       -6.107  -4.485   0.042  0.00  0.00    +0.172 C 
ATOM      3  C   LIG    1       -6.377  -5.937   0.048  0.00  0.00    +0.127 C 
ATOM      4  N   LIG    1       -7.692  -6.050   0.056  0.00  0.00    -0.143 NA
ATOM      5  N   LIG    1       -8.266  -4.906   0.056  0.00  0.00    -0.109 NA
ATOM      6  C   LIG    1       -7.411  -3.907   0.053  0.00  0.00    +0.262 C 
ENDROOT
BRANCH   3   7
ATOM      7  C   LIG    1       -5.383  -7.033   0.045  0.00  0.00    +0.023 A 
ATOM      8  C   LIG    1       -5.799  -8.370   0.046  0.00  0.00    +0.013 A 
ATOM      9  C   LIG    1       -4.830  -9.357   0.044  0.00  0.00    +0.020 A 
ATOM     10  C   LIG    1       -3.494  -8.996   0.041  0.00  0.00    +0.111 A 
ATOM     11  N   LIG    1       -3.132  -7.728   0.040  0.00  0.00    -0.263 NA
ATOM     12  C   LIG    1       -4.017  -6.752   0.036  0.00  0.00    +0.120 A 
ENDBRANCH   3   7
BRANCH   1  13
ATOM     13  N   LIG    1       -4.884  -2.578   0.035  0.00  0.00    -0.237 N 
ATOM     14  H   LIG    1       -5.705  -2.061   0.042  0.00  0.00    +0.174 HD
BRANCH  13  18
ATOM     15  C   LIG    1       -1.200  -0.637   0.010  0.00  0.00    +0.120 A 
ATOM     16  C   LIG    1       -2.374   0.103   0.019  0.00  0.00    +0.047 A 
ATOM     17  C   LIG    1       -3.596  -0.539   0.028  0.00  0.00    +0.028 A 
ATOM     18  C   LIG    1       -3.650  -1.928   0.026  0.00  0.00    +0.049 A 
ATOM     19  C   LIG    1       -2.474  -2.669   0.016  0.00  0.00    +0.028 A 
ATOM     20  C   LIG    1       -1.254  -2.025   0.003  0.00  0.00    +0.047 A 
BRANCH  15  22
ATOM     21  C   LIG    1       -0.017   1.425   0.010  0.00  0.00    +0.277 C 
ATOM     22  O   LIG    1        0.002  -0.004   0.002  0.00  0.00    -0.495 OA
ENDBRANCH  15  22
ENDBRANCH  13  18
ENDBRANCH   1  13
BRANCH   6  23
ATOM     23  O   LIG    1       -7.711  -2.583   0.058  0.00  0.00    -0.490 OA
ATOM     24  H   LIG    1       -7.023  -1.947   0.056  0.00  0.00    +0.294 HD
ENDBRANCH   6  23
TORSDOF 5
