REMARK  Name = ZINC00006694
REMARK                            x       y       z     vdW  Elec       q    Type
REMARK                         _______ _______ _______ _____ _____    ______ ____
ROOT
ATOM      1  C   LIG    1       -0.162   1.483   0.228  0.00  0.00    +0.090 C 
ATOM      2  C   LIG    1       -0.060  -0.015   0.094  0.00  0.00    +0.142 A 
ATOM      3  C   LIG    1       -1.103  -0.872  -0.053  0.00  0.00    +0.052 A 
ATOM      4  C   LIG    1       -0.536  -2.223  -0.144  0.00  0.00    +0.121 A 
ATOM      5  N   LIG    1        0.765  -2.099  -0.049  0.00  0.00    -0.077 NA
ATOM      6  O   LIG    1        1.074  -0.727   0.094  0.00  0.00    -0.359 OA
ENDROOT
BRANCH   3   7
ATOM      7  C   LIG    1       -2.541  -0.511  -0.111  0.00  0.00    -0.012 A 
ATOM      8  C   LIG    1       -3.402  -0.904   0.912  0.00  0.00    +0.010 A 
ATOM      9  C   LIG    1       -4.738  -0.566   0.854  0.00  0.00    +0.029 A 
ATOM     10  C   LIG    1       -5.224   0.161  -0.218  0.00  0.00    +0.105 A 
ATOM     11  C   LIG    1       -4.374   0.553  -1.237  0.00  0.00    +0.029 A 
ATOM     12  C   LIG    1       -3.034   0.226  -1.186  0.00  0.00    +0.010 A 
BRANCH  10  13
ATOM     13  S   LIG    1       -6.932   0.589  -0.287  0.00  0.00    +0.056 S 
ATOM     14  O   LIG    1       -7.621  -0.362   0.513  0.00  0.00    -0.153 OA
ATOM     15  O   LIG    1       -7.243   0.800  -1.657  0.00  0.00    -0.153 OA
BRANCH  13  16
ATOM     16  N   LIG    1       -7.100   2.054   0.468  0.00  0.00    -0.204 NA
ATOM     17  H   LIG    1       -7.976   2.466   0.536  0.00  0.00    +0.144 HD
ATOM     18  H   LIG    1       -6.324   2.499   0.841  0.00  0.00    +0.144 HD
ENDBRANCH  13  16
ENDBRANCH  10  13
ENDBRANCH   3   7
BRANCH   4  19
ATOM     19  C   LIG    1       -1.293  -3.488  -0.311  0.00  0.00    +0.004 A 
ATOM     20  C   LIG    1       -2.376  -3.545  -1.186  0.00  0.00    +0.010 A 
ATOM     21  C   LIG    1       -3.077  -4.724  -1.337  0.00  0.00    +0.001 A 
ATOM     22  C   LIG    1       -2.706  -5.848  -0.622  0.00  0.00    +0.000 A 
ATOM     23  C   LIG    1       -1.632  -5.798   0.249  0.00  0.00    +0.001 A 
ATOM     24  C   LIG    1       -0.920  -4.625   0.403  0.00  0.00    +0.010 A 
ENDBRANCH   4  19
TORSDOF 4
