REMARK  Name = ZINC43154043
REMARK                            x       y       z     vdW  Elec       q    Type
REMARK                         _______ _______ _______ _____ _____    ______ ____
ROOT
ATOM      1  C   LIG    1       -6.027  -1.689  -0.061  0.00  0.00    +0.129 A 
ATOM      2  C   LIG    1       -5.920  -0.304  -0.171  0.00  0.00    +0.072 A 
ATOM      3  C   LIG    1       -7.090   0.446  -0.264  0.00  0.00    +0.081 A 
ATOM      4  N   LIG    1       -8.266  -0.184  -0.245  0.00  0.00    -0.214 NA
ATOM      5  C   LIG    1       -8.327  -1.501  -0.139  0.00  0.00    +0.220 A 
ATOM      6  N   LIG    1       -7.235  -2.246  -0.054  0.00  0.00    -0.199 NA
ENDROOT
BRANCH   3   7
ATOM      7  C   LIG    1       -7.030   1.922  -0.382  0.00  0.00    +0.037 A 
ATOM      8  C   LIG    1       -5.801   2.589  -0.408  0.00  0.00    +0.126 A 
ATOM      9  N   LIG    1       -5.789   3.906  -0.515  0.00  0.00    -0.222 NA
ATOM     10  C   LIG    1       -6.920   4.592  -0.597  0.00  0.00    +0.213 A 
ATOM     11  N   LIG    1       -8.104   3.996  -0.575  0.00  0.00    -0.222 NA
ATOM     12  C   LIG    1       -8.199   2.682  -0.476  0.00  0.00    +0.126 A 
BRANCH  10  13
ATOM     13  N   LIG    1       -6.864   5.969  -0.707  0.00  0.00    -0.327 N 
ATOM     14  H   LIG    1       -7.684   6.484  -0.768  0.00  0.00    +0.145 HD
ATOM     15  H   LIG    1       -6.005   6.419  -0.724  0.00  0.00    +0.145 HD
ENDBRANCH  10  13
ENDBRANCH   3   7
BRANCH   5  16
ATOM     16  N   LIG    1       -9.566  -2.119  -0.123  0.00  0.00    -0.295 N 
ATOM     17  C   LIG    1      -10.806  -1.332  -0.227  0.00  0.00    +0.136 C 
ATOM     18  C   LIG    1      -11.677  -1.947  -1.328  0.00  0.00    +0.179 C 
ATOM     19  O   LIG    1      -11.832  -3.346  -1.079  0.00  0.00    -0.377 OA
ATOM     20  C   LIG    1      -10.609  -4.086  -1.113  0.00  0.00    +0.179 C 
ATOM     21  C   LIG    1       -9.683  -3.581  -0.007  0.00  0.00    +0.136 C 
ENDBRANCH   5  16
BRANCH   1  22
ATOM     22  N   LIG    1       -4.890  -2.477   0.035  0.00  0.00    -0.298 N 
ATOM     23  H   LIG    1       -4.012  -2.075  -0.064  0.00  0.00    +0.154 HD
BRANCH  22  27
ATOM     24  C   LIG    1       -5.173  -6.539   0.688  0.00  0.00    +0.214 A 
ATOM     25  C   LIG    1       -6.119  -5.710   1.277  0.00  0.00    +0.069 A 
ATOM     26  C   LIG    1       -6.041  -4.344   1.069  0.00  0.00    +0.030 A 
ATOM     27  C   LIG    1       -5.008  -3.852   0.272  0.00  0.00    +0.051 A 
ATOM     28  C   LIG    1       -4.101  -4.742  -0.282  0.00  0.00    +0.138 A 
ATOM     29  N   LIG    1       -4.204  -6.038  -0.058  0.00  0.00    -0.219 NA
BRANCH  24  31
ATOM     30  C   LIG    1       -4.237  -8.681   0.259  0.00  0.00    +0.279 C 
ATOM     31  O   LIG    1       -5.241  -7.881   0.886  0.00  0.00    -0.480 OA
ENDBRANCH  24  31
ENDBRANCH  22  27
ENDBRANCH   1  22
TORSDOF 6
