REMARK  Name = ZINC19796033
REMARK                            x       y       z     vdW  Elec       q    Type
REMARK                         _______ _______ _______ _____ _____    ______ ____
ROOT
ATOM      1  C   LIG    1       -0.018   1.465   0.010  0.00  0.00    +0.105 C 
ATOM      2  N   LIG    1        0.002  -0.004   0.002  0.00  0.00    -0.300 NA
ATOM      3  C   LIG    1       -1.358  -0.548  -0.059  0.00  0.00    +0.121 C 
ATOM      4  C   LIG    1       -1.330  -2.051   0.033  0.00  0.00    -0.009 A 
ATOM      5  C   LIG    1       -0.229  -2.730   0.505  0.00  0.00    -0.033 A 
ATOM      6  C   LIG    1        1.018  -2.007   0.946  0.00  0.00    +0.063 C 
ATOM      7  C   LIG    1       -0.250  -4.115   0.577  0.00  0.00    +0.005 A 
ATOM      8  C   LIG    1       -1.367  -4.822   0.175  0.00  0.00    +0.002 A 
ATOM      9  C   LIG    1       -2.473  -4.147  -0.302  0.00  0.00    +0.023 A 
ATOM     10  C   LIG    1       -2.457  -2.762  -0.374  0.00  0.00    +0.029 A 
ATOM     11  C   LIG    1        0.707  -0.528   1.182  0.00  0.00    +0.097 C 
ENDROOT
BRANCH   6  12
ATOM     12  C   LIG    1        1.527  -2.620   2.224  0.00  0.00    -0.039 A 
ATOM     13  C   LIG    1        0.726  -2.634   3.351  0.00  0.00    +0.004 A 
ATOM     14  C   LIG    1        1.192  -3.197   4.524  0.00  0.00    +0.000 A 
ATOM     15  C   LIG    1        2.460  -3.746   4.571  0.00  0.00    +0.000 A 
ATOM     16  C   LIG    1        3.261  -3.733   3.444  0.00  0.00    +0.000 A 
ATOM     17  C   LIG    1        2.792  -3.174   2.270  0.00  0.00    +0.004 A 
ENDBRANCH   6  12
BRANCH  10  18
ATOM     18  N   LIG    1       -3.575  -2.077  -0.856  0.00  0.00    -0.358 N 
ATOM     19  H   LIG    1       -4.361  -2.570  -1.140  0.00  0.00    +0.142 HD
ATOM     20  H   LIG    1       -3.567  -1.108  -0.907  0.00  0.00    +0.142 HD
ENDBRANCH  10  18
TORSDOF 2
