REMARK  Name = ZINC58523811
REMARK                            x       y       z     vdW  Elec       q    Type
REMARK                         _______ _______ _______ _____ _____    ______ ____
ROOT
ATOM      1  N   LIG    1        1.346   0.083  -2.931  0.00  0.00    -0.295 NA
ATOM      2  C   LIG    1        2.243  -1.080  -2.950  0.00  0.00    +0.103 C 
ATOM      3  C   LIG    1        3.682  -0.607  -3.183  0.00  0.00    +0.120 C 
ATOM      4  N   LIG    1        3.710   0.221  -4.399  0.00  0.00    -0.327 N 
ATOM      5  C   LIG    1        2.744   1.324  -4.512  0.00  0.00    +0.120 C 
ATOM      6  C   LIG    1        1.342   0.775  -4.227  0.00  0.00    +0.103 C 
ENDROOT
BRANCH   4   7
ATOM      7  C   LIG    1        4.632  -0.035  -5.420  0.00  0.00    +0.030 A 
ATOM      8  C   LIG    1        4.571   0.684  -6.607  0.00  0.00    +0.027 A 
ATOM      9  C   LIG    1        5.481   0.431  -7.614  0.00  0.00    +0.047 A 
ATOM     10  C   LIG    1        6.457  -0.539  -7.441  0.00  0.00    +0.120 A 
ATOM     11  C   LIG    1        6.519  -1.257  -6.256  0.00  0.00    +0.047 A 
ATOM     12  C   LIG    1        5.613  -1.002  -5.245  0.00  0.00    +0.027 A 
BRANCH  10  13
ATOM     13  O   LIG    1        7.353  -0.787  -8.433  0.00  0.00    -0.495 OA
ATOM     14  C   LIG    1        8.331  -1.800  -8.187  0.00  0.00    +0.277 C 
ENDBRANCH  10  13
ENDBRANCH   4   7
BRANCH   1  15
ATOM     15  C   LIG    1       -0.015  -0.309  -2.540  0.00  0.00    +0.123 C 
BRANCH  15  18
ATOM     16  C   LIG    1       -0.017   1.500   0.012  0.00  0.00    +0.066 C 
ATOM     17  C   LIG    1       -0.010  -0.006  -0.008  0.00  0.00    +0.046 A 
ATOM     18  C   LIG    1       -0.009  -0.790  -1.112  0.00  0.00    +0.007 A 
ATOM     19  C   LIG    1       -0.001  -2.124  -0.692  0.00  0.00    +0.140 A 
ATOM     20  N   LIG    1        0.003  -2.143   0.616  0.00  0.00    -0.174 NA
ATOM     21  N   LIG    1        0.002  -0.819   1.073  0.00  0.00    -0.237 N 
BRANCH  21  22
ATOM     22  C   LIG    1        0.011  -0.408   2.413  0.00  0.00    +0.066 A 
ATOM     23  C   LIG    1        0.692   0.743   2.784  0.00  0.00    +0.028 A 
ATOM     24  C   LIG    1        0.698   1.145   4.105  0.00  0.00    +0.002 A 
ATOM     25  C   LIG    1        0.026   0.403   5.059  0.00  0.00    +0.000 A 
ATOM     26  C   LIG    1       -0.654  -0.744   4.692  0.00  0.00    +0.002 A 
ATOM     27  C   LIG    1       -0.668  -1.149   3.372  0.00  0.00    +0.028 A 
ENDBRANCH  21  22
ENDBRANCH  15  18
ENDBRANCH   1  15
TORSDOF 5
