REMARK  Name = ZINC14828480
REMARK                            x       y       z     vdW  Elec       q    Type
REMARK                         _______ _______ _______ _____ _____    ______ ____
ROOT
ATOM      1  C   LIG    1       -5.452  -2.874  -1.398  0.00  0.00    +0.145 C 
ATOM      2  N   LIG    1       -4.689  -2.462  -2.357  0.00  0.00    -0.087 NA
ENDROOT
BRANCH   1   3
ATOM      3  C   LIG    1       -6.733  -3.539  -1.708  0.00  0.00    +0.262 C 
ATOM      4  N   LIG    1       -7.577  -3.874  -0.712  0.00  0.00    -0.310 N 
ATOM      5  H   LIG    1       -7.378  -3.613   0.201  0.00  0.00    +0.149 HD
ATOM      6  O   LIG    1       -7.027  -3.785  -2.862  0.00  0.00    -0.269 OA
BRANCH   4   7
ATOM      7  C   LIG    1       -8.795  -4.633  -1.007  0.00  0.00    +0.110 C 
BRANCH   7   8
ATOM      8  C   LIG    1       -9.569  -4.880   0.289  0.00  0.00    +0.073 C 
BRANCH   8   9
ATOM      9  C   LIG    1      -10.822  -5.660  -0.015  0.00  0.00    +0.037 A 
ATOM     10  N   LIG    1      -12.072  -5.146  -0.230  0.00  0.00    -0.348 N 
ATOM     11  C   LIG    1      -12.897  -6.188  -0.469  0.00  0.00    +0.196 A 
ATOM     12  N   LIG    1      -12.207  -7.293  -0.400  0.00  0.00    -0.244 NA
ATOM     13  H   LIG    1      -12.318  -4.207  -0.217  0.00  0.00    +0.166 HD
ATOM     14  C   LIG    1      -10.928  -6.998  -0.122  0.00  0.00    +0.133 A 
ENDBRANCH   8   9
ENDBRANCH   7   8
ENDBRANCH   4   7
ENDBRANCH   1   3
BRANCH   2  15
ATOM     15  O   LIG    1       -5.027  -2.747  -3.702  0.00  0.00    -0.409 OA
ATOM     16  H   LIG    1       -4.397  -2.398  -4.348  0.00  0.00    +0.328 HD
ENDBRANCH   2  15
BRANCH   1  17
ATOM     17  C   LIG    1       -5.035  -2.675   0.036  0.00  0.00    +0.099 C 
BRANCH  17  21
ATOM     18  C   LIG    1       -1.248  -0.696   0.156  0.00  0.00    +0.134 A 
ATOM     19  C   LIG    1       -2.420   0.046   0.150  0.00  0.00    +0.047 A 
ATOM     20  C   LIG    1       -3.643  -0.596   0.111  0.00  0.00    +0.007 A 
ATOM     21  C   LIG    1       -3.699  -1.978   0.078  0.00  0.00    -0.040 A 
ATOM     22  C   LIG    1       -2.533  -2.720   0.083  0.00  0.00    +0.023 A 
ATOM     23  C   LIG    1       -1.307  -2.083   0.117  0.00  0.00    +0.060 A 
ATOM     24 BR   LIG    1        0.288  -3.098   0.116  0.00  0.00    -0.047 Br
BRANCH  18  26
ATOM     25  C   LIG    1       -0.059   1.361   0.233  0.00  0.00    +0.277 C 
ATOM     26  O   LIG    1       -0.044  -0.067   0.194  0.00  0.00    -0.494 OA
ENDBRANCH  18  26
ENDBRANCH  17  21
ENDBRANCH   1  17
TORSDOF 8
