REMARK  Name = ZINC16947784
REMARK                            x       y       z     vdW  Elec       q    Type
REMARK                         _______ _______ _______ _____ _____    ______ ____
ROOT
ATOM      1  C   LIG    1       -2.143   1.058   1.278  0.00  0.00    -0.042 A 
ATOM      2  C   LIG    1       -3.204   1.944   1.298  0.00  0.00    +0.005 A 
ATOM      3  C   LIG    1       -4.501   1.473   1.303  0.00  0.00    +0.009 A 
ATOM      4  C   LIG    1       -4.740   0.099   1.298  0.00  0.00    -0.018 A 
ATOM      5  C   LIG    1       -3.666  -0.790   1.283  0.00  0.00    +0.009 A 
ATOM      6  C   LIG    1       -2.374  -0.306   1.272  0.00  0.00    +0.005 A 
ENDROOT
BRANCH   4   7
ATOM      7  C   LIG    1       -6.131  -0.414   1.310  0.00  0.00    -0.018 A 
ATOM      8  C   LIG    1       -6.367  -1.789   1.299  0.00  0.00    +0.010 A 
ATOM      9  C   LIG    1       -7.658  -2.267   1.315  0.00  0.00    +0.019 A 
ATOM     10  C   LIG    1       -8.732  -1.374   1.330  0.00  0.00    +0.052 A 
ATOM     11  C   LIG    1       -8.495   0.004   1.335  0.00  0.00    +0.019 A 
ATOM     12  C   LIG    1       -7.203   0.479   1.325  0.00  0.00    +0.010 A 
BRANCH  10  13
ATOM     13  C   LIG    1      -10.076  -1.869   1.340  0.00  0.00    +0.099 C 
ATOM     14  N   LIG    1      -11.142  -2.263   1.348  0.00  0.00    -0.191 NA
ENDBRANCH  10  13
ENDBRANCH   4   7
BRANCH   1  16
ATOM     15  C   LIG    1       -0.013   1.086   0.008  0.00  0.00    +0.015 C 
ATOM     16  C   LIG    1       -0.729   1.579   1.267  0.00  0.00    -0.013 C 
ATOM     17  C   LIG    1       -0.750   3.109   1.275  0.00  0.00    +0.015 C 
ATOM     18  C   LIG    1        0.011   1.072   2.506  0.00  0.00    +0.015 C 
ENDBRANCH   1  16
TORSDOF 3
