REMARK  Name = ZINC28764115
REMARK                            x       y       z     vdW  Elec       q    Type
REMARK                         _______ _______ _______ _____ _____    ______ ____
ROOT
ATOM      1  C   LIG    1        1.235   3.094   0.007  0.00  0.00    +0.152 C 
ENDROOT
BRANCH   1   2
ATOM      2  S   LIG    1        1.242   3.708  -1.700  0.00  0.00    -0.164 S 
ATOM      3  H   LIG    1        0.401   3.478  -2.371  0.00  0.00    +0.102 HD
ENDBRANCH   1   2
BRANCH   1   4
ATOM      4  C   LIG    1        1.177   1.588  -0.001  0.00  0.00    +0.318 C 
ATOM      5  O   LIG    1        2.199   0.944  -0.014  0.00  0.00    -0.250 OA
BRANCH   4   6
ATOM      6  O   LIG    1       -0.011   0.963   0.007  0.00  0.00    -0.480 OA
ATOM      7  H   LIG    1       -0.804   1.462   0.018  0.00  0.00    +0.295 HD
ENDBRANCH   4   6
ENDBRANCH   1   4
BRANCH   1   8
ATOM      8  C   LIG    1        2.510   3.552   0.719  0.00  0.00    +0.028 C 
BRANCH   8  10
ATOM      9  C   LIG    1        1.359   5.518   1.744  0.00  0.00    +0.007 C 
ATOM     10  C   LIG    1        2.509   5.077   0.837  0.00  0.00    -0.016 C 
ATOM     11  C   LIG    1        3.838   5.543   1.435  0.00  0.00    +0.007 C 
ENDBRANCH   8  10
ENDBRANCH   1   8
TORSDOF 5
