REMARK  Name = ZINC26665352
REMARK                            x       y       z     vdW  Elec       q    Type
REMARK                         _______ _______ _______ _____ _____    ______ ____
ROOT
ATOM      1  C   PRO A  2        0.329   0.819   0.479  0.00  0.00    +0.234 C 
ATOM      2  N   ARG A  3       -0.793   1.554   0.351  0.00  0.00    -0.301 N 
ATOM      3  H   ARG A  3       -0.732   2.653   0.334  0.00  0.00    +0.150 HD
ATOM      4  O   PRO A  2        0.262  -0.391   0.498  0.00  0.00    -0.274 OA
ENDROOT
BRANCH   1  10
ATOM      5  C   PHE A  1        2.859  -0.406   1.702  0.00  0.00    +0.233 C 
ATOM      6  N   PRO A  2        2.734   0.496   0.709  0.00  0.00    -0.289 N 
ATOM      7  CD  PRO A  2        3.644   0.636  -0.443  0.00  0.00    +0.108 C 
ATOM      8  CG  PRO A  2        3.468   2.103  -0.910  0.00  0.00    +0.021 C 
ATOM      9  CB  PRO A  2        1.948   2.326  -0.681  0.00  0.00    +0.033 C 
ATOM     10  CA  PRO A  2        1.668   1.502   0.593  0.00  0.00    +0.162 C 
ATOM     11  O   PHE A  1        2.047  -0.432   2.603  0.00  0.00    -0.274 OA
BRANCH   5  12
ATOM     12  CA  PHE A  1        4.006  -1.383   1.694  0.00  0.00    +0.142 C 
BRANCH  12  13
ATOM     13  N   PHE A  1        4.209  -1.912   3.049  0.00  0.00    -0.320 NA
ATOM     14  H1  PHE A  1        3.295  -2.423   3.384  0.00  0.00    +0.119 HD
ATOM     15  H2  PHE A  1        4.438  -1.083   3.736  0.00  0.00    +0.119 HD
ENDBRANCH  12  13
BRANCH  12  16
ATOM     16  CB  PHE A  1        3.688  -2.536   0.739  0.00  0.00    +0.063 C 
BRANCH  16  20
ATOM     17  CZ  PHE A  1        7.075  -5.122   0.448  0.00  0.00    +0.000 A 
ATOM     18  CE1 PHE A  1        6.113  -5.349   1.414  0.00  0.00    +0.000 A 
ATOM     19  CD1 PHE A  1        5.017  -4.512   1.508  0.00  0.00    +0.004 A 
ATOM     20  CG  PHE A  1        4.883  -3.448   0.637  0.00  0.00    -0.045 A 
ATOM     21  CD2 PHE A  1        5.842  -3.223  -0.333  0.00  0.00    +0.004 A 
ATOM     22  CE2 PHE A  1        6.941  -4.057  -0.423  0.00  0.00    +0.000 A 
ENDBRANCH  16  20
ENDBRANCH  12  16
ENDBRANCH   5  12
ENDBRANCH   1  10
BRANCH   2  23
ATOM     23  CA  ARG A  3       -2.094   0.891   0.234  0.00  0.00    +0.182 C 
BRANCH  23  24
ATOM     24  C   ARG A  3       -2.342   0.523  -1.206  0.00  0.00    +0.325 C 
ATOM     25  O   ARG A  3       -1.518   0.788  -2.049  0.00  0.00    -0.249 OA
BRANCH  24  26
ATOM     26  OXT ARG A  3       -3.480  -0.099  -1.553  0.00  0.00    -0.479 OA
ATOM     27  HXT ARG A  3       -4.120  -0.304  -0.900  0.00  0.00    +0.295 HD
ENDBRANCH  24  26
ENDBRANCH  23  24
BRANCH  23  28
ATOM     28  CB  ARG A  3       -3.195   1.838   0.716  0.00  0.00    +0.037 C 
BRANCH  28  29
ATOM     29  CG  ARG A  3       -3.013   2.112   2.210  0.00  0.00    +0.039 C 
BRANCH  29  30
ATOM     30  CD  ARG A  3       -4.114   3.059   2.692  0.00  0.00    +0.196 C 
BRANCH  30  31
ATOM     31  NE  ARG A  3       -3.940   3.322   4.123  0.00  0.00    -0.279 N 
ATOM     32  HE  ARG A  3       -4.023   2.499   4.848  0.00  0.00    +0.258 HD
ATOM     33  CZ  ARG A  3       -3.687   4.532   4.537  0.00  0.00    +0.341 C 
BRANCH  33  34
ATOM     34  NH2 ARG A  3       -3.396   4.758   5.862  0.00  0.00    -0.292 N 
ATOM     35 HH21 ARG A  3       -3.377   3.918   6.572  0.00  0.00    +0.255 HD
ATOM     36 HH22 ARG A  3       -3.182   5.779   6.212  0.00  0.00    +0.255 HD
ENDBRANCH  33  34
BRANCH  33  37
ATOM     37  NH1 ARG A  3       -3.711   5.582   3.650  0.00  0.00    -0.292 N 
ATOM     38 HH11 ARG A  3       -3.943   5.401   2.590  0.00  0.00    +0.255 HD
ATOM     39 HH12 ARG A  3       -3.497   6.603   4.000  0.00  0.00    +0.255 HD
ENDBRANCH  33  37
ENDBRANCH  30  31
ENDBRANCH  29  30
ENDBRANCH  28  29
ENDBRANCH  23  28
ENDBRANCH   2  23
TORSDOF 14
