REMARK  Name = ZINC29388908
REMARK                            x       y       z     vdW  Elec       q    Type
REMARK                         _______ _______ _______ _____ _____    ______ ____
ROOT
ATOM      1  C   LIG    1        1.014  -3.390  -3.375  0.00  0.00    +0.001 A 
ATOM      2  C   LIG    1        0.869  -2.969  -2.061  0.00  0.00    +0.006 A 
ATOM      3  C   LIG    1        1.896  -2.278  -1.449  0.00  0.00    -0.013 A 
ATOM      4  C   LIG    1        3.058  -2.024  -2.148  0.00  0.00    +0.025 A 
ATOM      5  C   LIG    1        3.235  -2.445  -3.479  0.00  0.00    +0.003 A 
ATOM      6  C   LIG    1        4.535  -2.079  -4.046  0.00  0.00    +0.074 A 
ATOM      7  C   LIG    1        5.411  -1.396  -3.260  0.00  0.00    +0.061 A 
ATOM      8  S   LIG    1        4.579  -1.202  -1.755  0.00  0.00    -0.095 S 
ATOM      9  C   LIG    1        2.166  -3.143  -4.078  0.00  0.00    +0.010 A 
ENDROOT
BRANCH   6  10
ATOM     10  C   LIG    1        4.885  -2.441  -5.424  0.00  0.00    +0.338 C 
ATOM     11  O   LIG    1        4.090  -3.053  -6.112  0.00  0.00    -0.245 OA
BRANCH  10  12
ATOM     12  O   LIG    1        6.087  -2.096  -5.927  0.00  0.00    -0.477 OA
ATOM     13  H   LIG    1        6.699  -1.625  -5.397  0.00  0.00    +0.295 HD
ENDBRANCH  10  12
ENDBRANCH   6  10
BRANCH   3  14
ATOM     14  C   LIG    1        1.751  -1.809  -0.024  0.00  0.00    +0.159 C 
BRANCH  14  15
ATOM     15  N   LIG    1        1.287  -0.420  -0.013  0.00  0.00    -0.332 N 
ATOM     16  C   LIG    1        2.075   0.700  -0.014  0.00  0.00    +0.107 A 
ATOM     17  C   LIG    1        1.244   1.760  -0.000  0.00  0.00    +0.130 A 
ATOM     18  N   LIG    1       -0.016   1.301   0.009  0.00  0.00    -0.244 NA
ATOM     19  C   LIG    1        0.002  -0.004   0.002  0.00  0.00    +0.199 A 
ENDBRANCH  14  15
ENDBRANCH   3  14
TORSDOF 4
