REMARK  Name = ZINC35622996
REMARK                            x       y       z     vdW  Elec       q    Type
REMARK                         _______ _______ _______ _____ _____    ______ ____
ROOT
ATOM      1  N   LIG    1        4.069  -2.681   0.008  0.00  0.00    -0.295 NA
ATOM      2  C   LIG    1        3.482  -2.063  -1.189  0.00  0.00    +0.067 C 
ATOM      3  C   LIG    1        3.239  -3.141  -2.248  0.00  0.00    -0.063 C 
ATOM      4  N   LIG    1        4.512  -3.791  -2.586  0.00  0.00    +0.387 N 
ATOM      5  H   LIG    1        5.159  -3.101  -2.937  0.00  0.00    -0.081 HD
ATOM      6  C   LIG    1        5.074  -4.425  -1.386  0.00  0.00    -0.063 C 
ATOM      7  C   LIG    1        5.332  -3.358  -0.319  0.00  0.00    +0.067 C 
ENDROOT
BRANCH   1   8
ATOM      8  C   LIG    1        4.265  -1.687   1.071  0.00  0.00    +0.117 C 
BRANCH   8  12
ATOM      9  C   LIG    1        0.542   0.217   1.943  0.00  0.00    +0.000 A 
ATOM     10  C   LIG    1        1.707   0.960   1.910  0.00  0.00    +0.000 A 
ATOM     11  C   LIG    1        2.912   0.344   1.628  0.00  0.00    +0.005 A 
ATOM     12  C   LIG    1        2.952  -1.015   1.380  0.00  0.00    -0.026 A 
ATOM     13  C   LIG    1        1.787  -1.758   1.413  0.00  0.00    +0.005 A 
ATOM     14  C   LIG    1        0.582  -1.142   1.694  0.00  0.00    +0.000 A 
ENDBRANCH   8  12
BRANCH   8  15
ATOM     15  C   LIG    1        4.782  -2.371   2.311  0.00  0.00    -0.026 A 
ATOM     16  C   LIG    1        4.283  -3.606   2.678  0.00  0.00    +0.005 A 
ATOM     17  C   LIG    1        4.757  -4.234   3.814  0.00  0.00    +0.000 A 
ATOM     18  C   LIG    1        5.732  -3.627   4.583  0.00  0.00    +0.000 A 
ATOM     19  C   LIG    1        6.232  -2.391   4.216  0.00  0.00    +0.000 A 
ATOM     20  C   LIG    1        5.761  -1.766   3.077  0.00  0.00    +0.005 A 
ENDBRANCH   8  15
ENDBRANCH   1   8
BRANCH   4  21
ATOM     21  C   LIG    1        4.281  -4.813  -3.616  0.00  0.00    +0.020 C 
BRANCH  21  22
ATOM     22  C   LIG    1        5.602  -5.395  -4.051  0.00  0.00    +0.208 C 
ATOM     23  N   LIG    1        5.630  -6.434  -4.909  0.00  0.00    -0.242 N 
ATOM     24  O   LIG    1        6.638  -4.928  -3.629  0.00  0.00    -0.277 OA
BRANCH  23  25
ATOM     25  C   LIG    1        4.440  -6.910  -5.471  0.00  0.00    +0.041 A 
ATOM     26  C   LIG    1        3.731  -6.124  -6.371  0.00  0.00    +0.024 A 
ATOM     27  C   LIG    1        2.557  -6.597  -6.923  0.00  0.00    +0.002 A 
ATOM     28  C   LIG    1        2.087  -7.852  -6.582  0.00  0.00    +0.000 A 
ATOM     29  C   LIG    1        2.790  -8.637  -5.687  0.00  0.00    +0.002 A 
ATOM     30  C   LIG    1        3.968  -8.172  -5.135  0.00  0.00    +0.024 A 
ENDBRANCH  23  25
BRANCH  23  31
ATOM     31  C   LIG    1        6.851  -7.036  -5.239  0.00  0.00    +0.041 A 
ATOM     32  C   LIG    1        7.560  -7.742  -4.277  0.00  0.00    +0.024 A 
ATOM     33  C   LIG    1        8.764  -8.335  -4.605  0.00  0.00    +0.002 A 
ATOM     34  C   LIG    1        9.262  -8.226  -5.890  0.00  0.00    +0.000 A 
ATOM     35  C   LIG    1        8.558  -7.524  -6.851  0.00  0.00    +0.002 A 
ATOM     36  C   LIG    1        7.351  -6.934  -6.530  0.00  0.00    +0.024 A 
ENDBRANCH  23  31
ENDBRANCH  21  22
ENDBRANCH   4  21
TORSDOF 7
