REMARK  Name = ZINC49872110
REMARK                            x       y       z     vdW  Elec       q    Type
REMARK                         _______ _______ _______ _____ _____    ______ ____
ROOT
ATOM      1  C   LIG    1       -1.350  -7.507  -2.236  0.00  0.00    +0.019 A 
ATOM      2  C   LIG    1       -1.346  -7.525  -3.631  0.00  0.00    +0.013 A 
ATOM      3  C   LIG    1       -1.332  -8.730  -4.302  0.00  0.00    +0.029 A 
ATOM      4  C   LIG    1       -1.324  -9.919  -3.595  0.00  0.00    +0.106 A 
ATOM      5  C   LIG    1       -1.329  -9.907  -2.212  0.00  0.00    +0.029 A 
ATOM      6  C   LIG    1       -1.336  -8.708  -1.529  0.00  0.00    +0.013 A 
ENDROOT
BRANCH   1  12
ATOM      7  N   LIG    1       -1.410  -2.051   0.117  0.00  0.00    -0.263 N 
ATOM      8  C   LIG    1       -1.404  -2.697  -1.082  0.00  0.00    +0.227 A 
ATOM      9  C   LIG    1       -1.388  -4.094  -1.106  0.00  0.00    +0.168 A 
ATOM     10  C   LIG    1       -1.379  -4.798   0.122  0.00  0.00    +0.168 A 
ATOM     11  N   LIG    1       -1.364  -6.083  -0.177  0.00  0.00    -0.208 NA
ATOM     12  C   LIG    1       -1.365  -6.215  -1.509  0.00  0.00    +0.163 A 
ATOM     13  N   LIG    1       -1.386  -4.079   1.305  0.00  0.00    -0.290 N 
ATOM     14  H   LIG    1       -1.379  -4.545   2.156  0.00  0.00    +0.172 HD
ATOM     15  N   LIG    1       -1.379  -5.023  -2.079  0.00  0.00    -0.219 NA
ATOM     16  C   LIG    1       -1.396  -2.732   1.276  0.00  0.00    +0.331 A 
ATOM     17  O   LIG    1       -1.397  -2.117   2.325  0.00  0.00    -0.246 OA
BRANCH   8  18
ATOM     18  O   LIG    1       -1.413  -1.998  -2.231  0.00  0.00    -0.492 OA
ATOM     19  H   LIG    1       -1.424  -1.061  -2.210  0.00  0.00    +0.294 HD
ENDBRANCH   8  18
BRANCH   7  20
ATOM     20  C   LIG    1       -1.427  -0.587   0.145  0.00  0.00    +0.129 C 
BRANCH  20  22
ATOM     21  C   LIG    1       -0.009   1.470   0.176  0.00  0.00    +0.005 C 
ATOM     22  C   LIG    1        0.009  -0.060   0.147  0.00  0.00    +0.018 C 
ENDBRANCH  20  22
ENDBRANCH   7  20
ENDBRANCH   1  12
BRANCH   4  23
ATOM     23  S   LIG    1       -1.309 -11.454  -4.459  0.00  0.00    +0.061 S 
ATOM     24  O   LIG    1       -1.858 -11.202  -5.745  0.00  0.00    -0.153 OA
ATOM     25  O   LIG    1       -1.854 -12.424  -3.575  0.00  0.00    -0.153 OA
BRANCH  23  26
ATOM     26  N   LIG    1        0.278 -11.867  -4.695  0.00  0.00    -0.174 NA
ATOM     27  C   LIG    1        0.994 -11.428  -5.901  0.00  0.00    +0.128 C 
ATOM     28  C   LIG    1        2.259 -10.674  -5.472  0.00  0.00    +0.122 C 
ATOM     29  N   LIG    1        2.975 -11.486  -4.479  0.00  0.00    -0.327 N 
ATOM     30  C   LIG    1        2.259 -11.925  -3.273  0.00  0.00    +0.122 C 
ATOM     31  C   LIG    1        0.996 -12.675  -3.699  0.00  0.00    +0.128 C 
BRANCH  29  32
ATOM     32  C   LIG    1        4.314 -11.835  -4.678  0.00  0.00    +0.030 A 
ATOM     33  C   LIG    1        4.947 -11.513  -5.872  0.00  0.00    +0.024 A 
ATOM     34  C   LIG    1        6.270 -11.858  -6.065  0.00  0.00    +0.022 A 
ATOM     35  C   LIG    1        6.965 -12.525  -5.071  0.00  0.00    +0.041 A 
ATOM     36 CL   LIG    1        8.628 -12.958  -5.318  0.00  0.00    -0.084 Cl
ATOM     37  C   LIG    1        6.337 -12.846  -3.881  0.00  0.00    +0.022 A 
ATOM     38  C   LIG    1        5.016 -12.498  -3.679  0.00  0.00    +0.024 A 
ENDBRANCH  29  32
ENDBRANCH  23  26
ENDBRANCH   4  23
TORSDOF 7
