REMARK  Name = ZINC13761967
REMARK                            x       y       z     vdW  Elec       q    Type
REMARK                         _______ _______ _______ _____ _____    ______ ____
ROOT
ATOM      1  C   LIG    1       -2.689  -4.459   1.585  0.00  0.00    +0.162 C 
ENDROOT
BRANCH   1   7
ATOM      2  C   LIG    1       -0.653   1.442   1.318  0.00  0.00    +0.007 C 
ATOM      3  C   LIG    1       -0.378  -0.056   1.170  0.00  0.00    -0.010 C 
ATOM      4  C   LIG    1       -1.617  -0.748   0.598  0.00  0.00    +0.022 C 
ATOM      5  C   LIG    1       -1.327  -2.241   0.419  0.00  0.00    +0.109 C 
ATOM      6  N   LIG    1       -0.867  -2.790   1.702  0.00  0.00    -0.287 N 
ATOM      7  C   LIG    1       -1.470  -3.867   2.244  0.00  0.00    +0.235 C 
ATOM      8  O   LIG    1       -1.032  -4.360   3.262  0.00  0.00    -0.274 OA
ATOM      9  C   LIG    1        0.262  -2.143   2.384  0.00  0.00    +0.185 C 
ATOM     10  C   LIG    1       -0.046  -0.651   2.541  0.00  0.00    +0.037 C 
BRANCH   9  11
ATOM     11  C   LIG    1        0.458  -2.767   3.742  0.00  0.00    +0.325 C 
ATOM     12  O   LIG    1        1.494  -3.354   3.999  0.00  0.00    -0.249 OA
BRANCH  11  13
ATOM     13  O   LIG    1       -0.421  -2.684   4.583  0.00  0.00    -0.479 OA
ATOM     14  H   LIG    1       -1.218  -2.233   4.385  0.00  0.00    +0.295 HD
ENDBRANCH  11  13
ENDBRANCH   9  11
ENDBRANCH   1   7
BRANCH   1  15
ATOM     15  N   LIG    1       -3.063  -5.697   2.272  0.00  0.00    -0.178 NA
ATOM     16  H   LIG    1       -3.600  -5.661   3.079  0.00  0.00    +0.149 HD
BRANCH  15  17
ATOM     17  S   LIG    1       -2.570  -7.160   1.671  0.00  0.00    +0.061 S 
ATOM     18  O   LIG    1       -2.858  -7.145   0.280  0.00  0.00    -0.153 OA
ATOM     19  O   LIG    1       -3.087  -8.153   2.546  0.00  0.00    -0.153 OA
BRANCH  17  20
ATOM     20  C   LIG    1       -0.816  -7.220   1.822  0.00  0.00    +0.126 A 
ATOM     21  C   LIG    1       -0.026  -7.242   0.689  0.00  0.00    +0.030 A 
ATOM     22  C   LIG    1        1.350  -7.289   0.809  0.00  0.00    +0.002 A 
ATOM     23  C   LIG    1        1.938  -7.317   2.059  0.00  0.00    +0.005 A 
ATOM     24  C   LIG    1        1.154  -7.297   3.200  0.00  0.00    -0.024 A 
ATOM     25  C   LIG    1        1.826  -7.335   4.547  0.00  0.00    +0.041 C 
ATOM     26  C   LIG    1        0.886  -6.786   5.627  0.00  0.00    +0.007 C 
ATOM     27  C   LIG    1        1.499  -7.026   7.008  0.00  0.00    +0.009 C 
ATOM     28  C   LIG    1       -0.456  -7.521   5.525  0.00  0.00    +0.105 C 
ATOM     29  N   LIG    1       -1.044  -7.204   4.216  0.00  0.00    -0.342 N 
ATOM     30  H   LIG    1       -1.983  -6.972   4.140  0.00  0.00    +0.146 HD
ATOM     31  C   LIG    1       -0.227  -7.240   3.081  0.00  0.00    +0.057 A 
ENDBRANCH  17  20
ENDBRANCH  15  17
ENDBRANCH   1  15
BRANCH   1  32
ATOM     32  C   LIG    1       -3.847  -3.462   1.664  0.00  0.00    +0.033 C 
BRANCH  32  33
ATOM     33  C   LIG    1       -5.062  -4.032   0.929  0.00  0.00    +0.039 C 
BRANCH  33  34
ATOM     34  C   LIG    1       -6.220  -3.035   1.009  0.00  0.00    +0.196 C 
BRANCH  34  35
ATOM     35  N   LIG    1       -7.383  -3.580   0.306  0.00  0.00    -0.279 N 
ATOM     36  H   LIG    1       -7.330  -4.452  -0.116  0.00  0.00    +0.258 HD
ATOM     37  C   LIG    1       -8.490  -2.894   0.246  0.00  0.00    +0.341 C 
BRANCH  37  38
ATOM     38  N   LIG    1       -9.582  -3.406  -0.413  0.00  0.00    -0.292 N 
ATOM     39  H   LIG    1      -10.405  -2.896  -0.458  0.00  0.00    +0.255 HD
ATOM     40  H   LIG    1       -9.529  -4.278  -0.835  0.00  0.00    +0.255 HD
ENDBRANCH  37  38
BRANCH  37  41
ATOM     41  N   LIG    1       -8.565  -1.658   0.844  0.00  0.00    -0.292 N 
ATOM     42  H   LIG    1       -9.388  -1.147   0.800  0.00  0.00    +0.255 HD
ATOM     43  H   LIG    1       -7.795  -1.297   1.309  0.00  0.00    +0.255 HD
ENDBRANCH  37  41
ENDBRANCH  34  35
ENDBRANCH  33  34
ENDBRANCH  32  33
ENDBRANCH   1  32
TORSDOF 12
