REMARK  Name = ZINC18847037
REMARK                            x       y       z     vdW  Elec       q    Type
REMARK                         _______ _______ _______ _____ _____    ______ ____
ROOT
ATOM      1  C   LIG    1        2.577  -2.541   4.295  0.00  0.00    +0.064 A 
ATOM      2  C   LIG    1        2.090  -2.442   5.559  0.00  0.00    +0.208 A 
ATOM      3  O   LIG    1        2.664  -3.042   6.604  0.00  0.00    -0.462 OA
ATOM      4  C   LIG    1        3.920  -3.526   6.541  0.00  0.00    +0.145 A 
ATOM      5  C   LIG    1        4.611  -3.850   7.700  0.00  0.00    +0.092 A 
ATOM      6  C   LIG    1        5.899  -4.356   7.624  0.00  0.00    +0.124 A 
ATOM      7  C   LIG    1        6.516  -4.547   6.392  0.00  0.00    +0.091 A 
ATOM      8  C   LIG    1        5.847  -4.228   5.225  0.00  0.00    +0.135 A 
ATOM      9  C   LIG    1        4.548  -3.710   5.296  0.00  0.00    +0.106 A 
ATOM     10  C   LIG    1        3.800  -3.340   4.081  0.00  0.00    +0.204 A 
ATOM     11  O   LIG    1        4.169  -3.670   2.967  0.00  0.00    -0.286 OA
ENDROOT
BRANCH   1  15
ATOM     12  C   LIG    1        0.626  -0.618   1.042  0.00  0.00    +0.120 A 
ATOM     13  C   LIG    1        1.202   0.141   2.050  0.00  0.00    +0.046 A 
ATOM     14  C   LIG    1        1.835  -0.479   3.107  0.00  0.00    +0.012 A 
ATOM     15  C   LIG    1        1.897  -1.871   3.161  0.00  0.00    -0.011 A 
ATOM     16  C   LIG    1        1.317  -2.631   2.146  0.00  0.00    +0.012 A 
ATOM     17  C   LIG    1        0.681  -2.004   1.095  0.00  0.00    +0.046 A 
BRANCH  12  19
ATOM     18  C   LIG    1       -0.017   1.425   0.010  0.00  0.00    +0.277 C 
ATOM     19  O   LIG    1        0.002  -0.004   0.002  0.00  0.00    -0.495 OA
ENDBRANCH  12  19
ENDBRANCH   1  15
BRANCH   6  20
ATOM     20  O   LIG    1        6.566  -4.667   8.764  0.00  0.00    -0.507 OA
ATOM     21  H   LIG    1        6.435  -5.578   9.060  0.00  0.00    +0.292 HD
ENDBRANCH   6  20
BRANCH   8  22
ATOM     22  O   LIG    1        6.444  -4.416   4.021  0.00  0.00    -0.506 OA
ATOM     23  H   LIG    1        6.289  -5.289   3.636  0.00  0.00    +0.292 HD
ENDBRANCH   8  22
TORSDOF 4
