REMARK  Name = ZINC43075785
REMARK                            x       y       z     vdW  Elec       q    Type
REMARK                         _______ _______ _______ _____ _____    ______ ____
ROOT
ATOM      1  C   LIG    1        5.208  -1.836  -4.945  0.00  0.00    +0.163 C 
ENDROOT
BRANCH   1   3
ATOM      2  C   LIG    1        3.682  -1.040  -3.220  0.00  0.00    +0.263 C 
ATOM      3  N   LIG    1        3.857  -1.638  -4.415  0.00  0.00    -0.298 N 
ATOM      4  H   LIG    1        3.087  -1.937  -4.925  0.00  0.00    +0.150 HD
ATOM      5  O   LIG    1        4.638  -0.583  -2.624  0.00  0.00    -0.269 OA
BRANCH   2   8
ATOM      6  C   LIG    1        0.152  -1.025  -2.290  0.00  0.00    +0.069 A 
ATOM      7  C   LIG    1        1.142  -1.308  -3.234  0.00  0.00    +0.058 A 
ATOM      8  C   LIG    1        2.335  -0.940  -2.637  0.00  0.00    +0.123 A 
ATOM      9  N   LIG    1        2.011  -0.467  -1.397  0.00  0.00    -0.262 N 
ATOM     10  C   LIG    1        2.969   0.036  -0.409  0.00  0.00    +0.173 C 
ATOM     11  N   LIG    1        0.739  -0.526  -1.231  0.00  0.00    -0.175 NA
BRANCH   6  13
ATOM     12  C   LIG    1       -1.638  -2.740  -2.332  0.00  0.00    +0.017 C 
ATOM     13  C   LIG    1       -1.328  -1.247  -2.462  0.00  0.00    +0.006 C 
ATOM     14  C   LIG    1       -2.089  -0.473  -1.383  0.00  0.00    +0.017 C 
ATOM     15  C   LIG    1       -1.761  -0.755  -3.844  0.00  0.00    +0.017 C 
ENDBRANCH   6  13
ENDBRANCH   2   8
ENDBRANCH   1   3
BRANCH   1  16
ATOM     16  C   LIG    1        5.653  -0.590  -5.666  0.00  0.00    +0.234 C 
ATOM     17  N   LIG    1        6.872  -0.542  -6.239  0.00  0.00    -0.301 N 
ATOM     18  H   LIG    1        7.463  -1.309  -6.187  0.00  0.00    +0.150 HD
ATOM     19  O   LIG    1        4.914   0.369  -5.731  0.00  0.00    -0.274 OA
BRANCH  17  20
ATOM     20  C   LIG    1        7.304   0.670  -6.940  0.00  0.00    +0.223 C 
BRANCH  20  21
ATOM     21  C   LIG    1        8.662   0.471  -7.472  0.00  0.00    +0.081 C 
ATOM     22  N   LIG    1        9.710   0.317  -7.883  0.00  0.00    -0.195 NA
ENDBRANCH  20  21
ENDBRANCH  17  20
ENDBRANCH   1  16
BRANCH   1  23
ATOM     23  C   LIG    1        5.206  -3.016  -5.919  0.00  0.00    +0.067 C 
BRANCH  23  24
ATOM     24  C   LIG    1        4.880  -4.284  -5.173  0.00  0.00    -0.044 A 
ATOM     25  C   LIG    1        5.896  -5.038  -4.615  0.00  0.00    +0.004 A 
ATOM     26  C   LIG    1        5.598  -6.201  -3.930  0.00  0.00    +0.002 A 
ATOM     27  C   LIG    1        4.284  -6.611  -3.802  0.00  0.00    +0.020 A 
ATOM     28  C   LIG    1        3.268  -5.857  -4.360  0.00  0.00    +0.041 A 
ATOM     29 CL   LIG    1        1.617  -6.371  -4.199  0.00  0.00    -0.084 Cl
ATOM     30  C   LIG    1        3.566  -4.689  -5.040  0.00  0.00    +0.023 A 
ENDBRANCH  23  24
ENDBRANCH   1  23
TORSDOF 8
