REMARK  Name = ZINC25627483
REMARK                            x       y       z     vdW  Elec       q    Type
REMARK                         _______ _______ _______ _____ _____    ______ ____
ROOT
ATOM      1  C   LIG    1        3.711  -0.707  -0.038  0.00  0.00    +0.258 C 
ENDROOT
BRANCH   1   5
ATOM      2  C   LIG    1       -0.017   1.378   0.010  0.00  0.00    +0.000 A 
ATOM      3  C   LIG    1        1.171   2.086   0.002  0.00  0.00    +0.000 A 
ATOM      4  C   LIG    1        2.377   1.411  -0.013  0.00  0.00    +0.007 A 
ATOM      5  C   LIG    1        2.396   0.029  -0.020  0.00  0.00    -0.007 A 
ATOM      6  C   LIG    1        1.208  -0.679  -0.012  0.00  0.00    +0.007 A 
ATOM      7  C   LIG    1        0.002  -0.004   0.002  0.00  0.00    +0.000 A 
ENDBRANCH   1   5
BRANCH   1   8
ATOM      8  P   LIG    1        4.223  -0.995  -1.763  0.00  0.00    +0.360 P 
ATOM      9  O   LIG    1        3.151  -1.841  -2.485  0.00  0.00    -0.256 OA
BRANCH   8  10
ATOM     10  O   LIG    1        5.628  -1.781  -1.782  0.00  0.00    -0.322 OA
ATOM     11  H   LIG    1        5.963  -1.969  -2.670  0.00  0.00    +0.220 HD
ENDBRANCH   8  10
BRANCH   8  12
ATOM     12  O   LIG    1        4.382   0.361  -2.486  0.00  0.00    -0.322 OA
ATOM     13  H   LIG    1        3.536   0.834  -2.475  0.00  0.00    +0.220 HD
ENDBRANCH   8  12
ENDBRANCH   1   8
BRANCH   1  14
ATOM     14  O   LIG    1        3.564  -1.961   0.631  0.00  0.00    -0.375 OA
ATOM     15  H   LIG    1        2.905  -2.545   0.232  0.00  0.00    +0.211 HD
ENDBRANCH   1  14
TORSDOF 5
