REMARK  Name = ZINC27652141
REMARK                            x       y       z     vdW  Elec       q    Type
REMARK                         _______ _______ _______ _____ _____    ______ ____
ROOT
ATOM      1  C   LIG    1        1.319   1.632  -2.262  0.00  0.00    -0.011 C 
ATOM      2  C   LIG    1        2.344   1.029  -1.299  0.00  0.00    -0.041 C 
ENDROOT
BRANCH   2   3
ATOM      3  N   LIG    1        2.288  -0.437  -1.379  0.00  0.00    +0.386 N 
ATOM      4  H   LIG    1        1.313  -0.745  -1.785  0.00  0.00    -0.085 HD
ATOM      5  H   LIG    1        2.418  -0.864  -0.374  0.00  0.00    -0.085 HD
BRANCH   3   6
ATOM      6  C   LIG    1        3.347  -0.958  -2.253  0.00  0.00    -0.076 C 
ATOM      7  C   LIG    1        3.199  -0.353  -3.651  0.00  0.00    -0.011 C 
ATOM      8  C   LIG    1        3.233  -2.481  -2.341  0.00  0.00    -0.011 C 
ATOM      9  C   LIG    1        4.714  -0.581  -1.677  0.00  0.00    -0.011 C 
ENDBRANCH   3   6
ENDBRANCH   2   3
BRANCH   2  10
ATOM     10  C   LIG    1        2.025   1.475   0.129  0.00  0.00    +0.130 C 
BRANCH  10  11
ATOM     11  C   LIG    1        3.035   0.881   1.078  0.00  0.00    -0.021 A 
ATOM     12  C   LIG    1        2.900  -0.429   1.499  0.00  0.00    +0.006 A 
ATOM     13  C   LIG    1        3.828  -0.975   2.366  0.00  0.00    +0.000 A 
ATOM     14  C   LIG    1        4.886  -0.209   2.818  0.00  0.00    +0.000 A 
ATOM     15  C   LIG    1        5.018   1.103   2.401  0.00  0.00    +0.000 A 
ATOM     16  C   LIG    1        4.092   1.647   1.531  0.00  0.00    +0.006 A 
ENDBRANCH  10  11
BRANCH  10  17
ATOM     17  O   LIG    1        0.716   1.028   0.487  0.00  0.00    -0.389 OA
ATOM     18  H   LIG    1        0.310   1.256   1.483  0.00  0.00    +0.210 HD
ENDBRANCH  10  17
ENDBRANCH   2  10
TORSDOF 5
