REMARK  Name = ZINC20719446
REMARK                            x       y       z     vdW  Elec       q    Type
REMARK                         _______ _______ _______ _____ _____    ______ ____
ROOT
ATOM      1  C   LIG    1       -5.774  -1.292   0.028  0.00  0.00    +0.250 A 
ATOM      2  N   LIG    1       -5.056  -2.392   0.017  0.00  0.00    -0.107 NA
ATOM      3  N   LIG    1       -3.806  -2.087   0.011  0.00  0.00    -0.107 NA
ATOM      4  C   LIG    1       -3.676  -0.780   0.019  0.00  0.00    +0.249 A 
ATOM      5  O   LIG    1       -4.916  -0.250   0.035  0.00  0.00    -0.416 OA
ENDROOT
BRANCH   4   6
ATOM      6  C   LIG    1       -2.405  -0.028   0.016  0.00  0.00    +0.042 A 
ATOM      7  C   LIG    1       -2.417   1.368   0.026  0.00  0.00    +0.017 A 
ATOM      8  C   LIG    1       -1.229   2.067   0.019  0.00  0.00    +0.050 A 
ATOM      9  C   LIG    1       -0.017   1.388   0.010  0.00  0.00    +0.162 A 
ATOM     10  C   LIG    1        0.002  -0.004   0.002  0.00  0.00    +0.163 A 
ATOM     11  O   LIG    1        1.181  -0.685  -0.007  0.00  0.00    -0.485 OA
ATOM     12  C   LIG    1        2.347   0.054  -0.387  0.00  0.00    +0.270 C 
ATOM     13  C   LIG    1        2.334   1.392   0.365  0.00  0.00    +0.270 C 
ATOM     14  O   LIG    1        1.144   2.099   0.002  0.00  0.00    -0.485 OA
ATOM     15  C   LIG    1       -1.187  -0.712   0.004  0.00  0.00    +0.062 A 
ENDBRANCH   4   6
BRANCH   1  18
ATOM     16  C   LIG    1       -9.404  -2.243   0.042  0.00  0.00    +0.020 A 
ATOM     17  C   LIG    1       -8.026  -2.374   0.028  0.00  0.00    +0.016 A 
ATOM     18  C   LIG    1       -7.249  -1.210   0.037  0.00  0.00    +0.057 A 
ATOM     19  C   LIG    1       -7.891   0.030   0.048  0.00  0.00    +0.124 A 
ATOM     20  N   LIG    1       -9.205   0.102   0.056  0.00  0.00    -0.263 NA
ATOM     21  C   LIG    1       -9.963  -0.978   0.053  0.00  0.00    +0.111 A 
ENDBRANCH   1  18
TORSDOF 2
