REMARK  Name = ZINC22012325
REMARK                            x       y       z     vdW  Elec       q    Type
REMARK                         _______ _______ _______ _____ _____    ______ ____
ROOT
ATOM      1  N   LIG    1       -0.723   1.572  -1.182  0.00  0.00    -0.306 NA
ATOM      2  C   LIG    1       -2.058   0.966  -1.283  0.00  0.00    +0.066 C 
ATOM      3  C   LIG    1       -2.794   1.557  -2.488  0.00  0.00    -0.063 C 
ATOM      4  N   LIG    1       -2.012   1.308  -3.707  0.00  0.00    +0.381 N 
ATOM      5  H   LIG    1       -1.885   0.220  -3.812  0.00  0.00    -0.082 HD
ATOM      6  C   LIG    1       -0.677   1.914  -3.606  0.00  0.00    -0.063 C 
ATOM      7  C   LIG    1        0.059   1.323  -2.401  0.00  0.00    +0.066 C 
ENDROOT
BRANCH   1   8
ATOM      8  C   LIG    1       -0.013   1.086   0.008  0.00  0.00    +0.089 C 
BRANCH   8   9
ATOM      9  C   LIG    1       -0.729   1.579   1.267  0.00  0.00    +0.050 C 
BRANCH   9  13
ATOM     10  C   LIG    1        1.336   0.158   4.731  0.00  0.00    +0.161 A 
ATOM     11  C   LIG    1        0.321  -0.598   4.168  0.00  0.00    +0.049 A 
ATOM     12  C   LIG    1       -0.349  -0.134   3.051  0.00  0.00    +0.007 A 
ATOM     13  C   LIG    1        0.000   1.080   2.488  0.00  0.00    -0.042 A 
ATOM     14  C   LIG    1        1.012   1.839   3.045  0.00  0.00    +0.053 A 
ATOM     15  C   LIG    1        1.683   1.381   4.168  0.00  0.00    +0.162 A 
BRANCH  10  17
ATOM     16  C   LIG    1        1.583  -1.561   6.357  0.00  0.00    +0.277 C 
ATOM     17  O   LIG    1        1.992  -0.296   5.833  0.00  0.00    -0.491 OA
ENDBRANCH  10  17
BRANCH  15  18
ATOM     18  O   LIG    1        2.679   2.127   4.717  0.00  0.00    -0.491 OA
ATOM     19  C   LIG    1        2.982   3.372   4.085  0.00  0.00    +0.277 C 
ENDBRANCH  15  18
ENDBRANCH   9  13
ENDBRANCH   8   9
ENDBRANCH   1   8
BRANCH   4  20
ATOM     20  C   LIG    1       -2.723   1.794  -4.897  0.00  0.00    -0.078 C 
BRANCH  20  21
ATOM     21  C   LIG    1       -4.184   1.344  -4.838  0.00  0.00    -0.014 C 
BRANCH  21  22
ATOM     22  C   LIG    1       -4.923   1.851  -6.078  0.00  0.00    +0.033 C 
BRANCH  22  23
ATOM     23  C   LIG    1       -6.362   1.407  -6.021  0.00  0.00    -0.047 A 
ATOM     24  C   LIG    1       -6.737   0.200  -6.582  0.00  0.00    +0.003 A 
ATOM     25  C   LIG    1       -8.056  -0.209  -6.525  0.00  0.00    +0.000 A 
ATOM     26  C   LIG    1       -9.002   0.593  -5.915  0.00  0.00    +0.000 A 
ATOM     27  C   LIG    1       -8.630   1.802  -5.359  0.00  0.00    +0.000 A 
ATOM     28  C   LIG    1       -7.309   2.209  -5.412  0.00  0.00    +0.003 A 
ENDBRANCH  22  23
ENDBRANCH  21  22
ENDBRANCH  20  21
ENDBRANCH   4  20
TORSDOF 9
