REMARK  Name = ZINC13780673
REMARK                            x       y       z     vdW  Elec       q    Type
REMARK                         _______ _______ _______ _____ _____    ______ ____
ROOT
ATOM      1  C   LIG    1        0.002  -0.004   0.002  0.00  0.00    +0.144 C 
ATOM      2  C   LIG    1       -1.435  -0.542   0.045  0.00  0.00    +0.173 C 
ATOM      3  C   LIG    1       -1.386  -2.071  -0.028  0.00  0.00    +0.129 C 
ATOM      4  C   LIG    1       -2.808  -2.635  -0.013  0.00  0.00    +0.284 C 
ATOM      5  N   LIG    1       -2.784  -4.076   0.212  0.00  0.00    -0.256 N 
ATOM      6  H   LIG    1       -3.559  -4.592  -0.059  0.00  0.00    +0.260 HD
ATOM      7  C   LIG    1       -1.793  -4.707   0.751  0.00  0.00    +0.329 C 
ATOM      8  N   LIG    1       -0.643  -4.063   1.150  0.00  0.00    -0.230 N 
ATOM      9  H   LIG    1        0.151  -4.567   1.386  0.00  0.00    +0.245 HD
ATOM     10  C   LIG    1       -0.623  -2.599   1.196  0.00  0.00    +0.152 C 
ATOM     11  C   LIG    1        0.802  -2.050   1.183  0.00  0.00    +0.188 C 
ATOM     12  C   LIG    1       -1.332  -2.120   2.466  0.00  0.00    +0.245 C 
ATOM     13  C   LIG    1       -1.338  -0.585   2.447  0.00  0.00    +0.315 C 
ATOM     14  O   LIG    1        0.013  -0.118   2.407  0.00  0.00    -0.315 OA
ATOM     15  O   LIG    1       -2.043  -0.121   1.270  0.00  0.00    -0.318 OA
ATOM     16  C   LIG    1        0.743  -0.519   1.243  0.00  0.00    +0.192 C 
ENDROOT
BRANCH   7  17
ATOM     17  N   LIG    1       -1.890  -6.067   0.932  0.00  0.00    -0.254 N 
ATOM     18  H   LIG    1       -1.156  -6.556   1.335  0.00  0.00    +0.241 HD
ATOM     19  H   LIG    1       -2.693  -6.537   0.657  0.00  0.00    +0.241 HD
ENDBRANCH   7  17
BRANCH   1  20
ATOM     20  O   LIG    1        0.657  -0.471  -1.179  0.00  0.00    -0.381 OA
ATOM     21  H   LIG    1        1.574  -0.175  -1.263  0.00  0.00    +0.210 HD
ENDBRANCH   1  20
BRANCH   4  22
ATOM     22  O   LIG    1       -3.435  -2.368  -1.269  0.00  0.00    -0.360 OA
ATOM     23  H   LIG    1       -4.342  -2.697  -1.334  0.00  0.00    +0.213 HD
ENDBRANCH   4  22
BRANCH  11  24
ATOM     24  O   LIG    1        1.518  -2.549   2.315  0.00  0.00    -0.385 OA
ATOM     25  H   LIG    1        2.433  -2.239   2.369  0.00  0.00    +0.210 HD
ENDBRANCH  11  24
BRANCH  12  26
ATOM     26  O   LIG    1       -2.675  -2.608   2.485  0.00  0.00    -0.381 OA
ATOM     27  H   LIG    1       -3.180  -2.340   3.264  0.00  0.00    +0.210 HD
ENDBRANCH  12  26
BRANCH  13  28
ATOM     28  O   LIG    1       -1.982  -0.092   3.623  0.00  0.00    -0.341 OA
ATOM     29  H   LIG    1       -2.013   0.873   3.679  0.00  0.00    +0.215 HD
ENDBRANCH  13  28
BRANCH   1  30
ATOM     30  C   LIG    1       -0.019   1.526   0.010  0.00  0.00    +0.195 C 
BRANCH  30  31
ATOM     31  O   LIG    1        1.322   2.020   0.000  0.00  0.00    -0.392 OA
ATOM     32  H   LIG    1        1.385   2.985   0.005  0.00  0.00    +0.210 HD
ENDBRANCH  30  31
ENDBRANCH   1  30
TORSDOF 8
