REMARK  Name = ZINC13757952
REMARK                            x       y       z     vdW  Elec       q    Type
REMARK                         _______ _______ _______ _____ _____    ______ ____
ROOT
ATOM      1  C   LIG    1        5.529  -1.802   1.834  0.00  0.00    +0.048 A 
ATOM      2  C   LIG    1        5.644  -2.568   2.991  0.00  0.00    +0.025 A 
ATOM      3  C   LIG    1        6.828  -3.207   3.281  0.00  0.00    +0.015 A 
ATOM      4  C   LIG    1        7.917  -3.086   2.413  0.00  0.00    +0.037 A 
ATOM      5  C   LIG    1        7.798  -2.316   1.252  0.00  0.00    +0.015 A 
ATOM      6  C   LIG    1        6.610  -1.685   0.964  0.00  0.00    +0.025 A 
ENDROOT
BRANCH   4   7
ATOM      7  C   LIG    1        9.187  -3.768   2.721  0.00  0.00    +0.251 C 
ATOM      8  N   LIG    1        9.596  -3.886   4.000  0.00  0.00    -0.267 N 
ATOM      9  C   LIG    1       10.902  -4.481   4.327  0.00  0.00    +0.114 C 
ATOM     10  C   LIG    1       10.740  -5.943   4.673  0.00  0.00    +0.020 C 
ATOM     11  C   LIG    1        9.911  -6.185   5.926  0.00  0.00    +0.006 C 
ATOM     12  C   LIG    1        8.443  -5.844   5.690  0.00  0.00    +0.037 C 
ATOM     13  C   LIG    1        8.230  -4.359   5.931  0.00  0.00    -0.026 A 
ATOM     14  C   LIG    1        7.478  -3.932   7.003  0.00  0.00    +0.005 A 
ATOM     15  C   LIG    1        7.271  -2.562   7.192  0.00  0.00    +0.000 A 
ATOM     16  C   LIG    1        7.810  -1.648   6.305  0.00  0.00    +0.002 A 
ATOM     17  C   LIG    1        8.573  -2.081   5.237  0.00  0.00    +0.024 A 
ATOM     18  C   LIG    1        8.796  -3.441   5.056  0.00  0.00    +0.040 A 
ATOM     19  O   LIG    1        9.866  -4.225   1.821  0.00  0.00    -0.270 OA
ENDBRANCH   4   7
BRANCH   1  20
ATOM     20  N   LIG    1        4.332  -1.159   1.544  0.00  0.00    -0.216 N 
ATOM     21  H   LIG    1        4.248  -0.620   0.724  0.00  0.00    +0.174 HD
BRANCH  20  22
ATOM     22  S   LIG    1        3.045  -1.297   2.577  0.00  0.00    +0.072 S 
ATOM     23  O   LIG    1        2.640  -2.659   2.541  0.00  0.00    -0.150 OA
ATOM     24  O   LIG    1        3.421  -0.646   3.783  0.00  0.00    -0.150 OA
BRANCH  22  28
ATOM     25  C   LIG    1       -0.357   1.111   0.814  0.00  0.00    +0.000 A 
ATOM     26  C   LIG    1       -0.213  -0.224   0.485  0.00  0.00    +0.002 A 
ATOM     27  C   LIG    1        0.827  -0.959   1.024  0.00  0.00    +0.029 A 
ATOM     28  C   LIG    1        1.721  -0.360   1.890  0.00  0.00    +0.108 A 
ATOM     29  C   LIG    1        1.577   0.976   2.218  0.00  0.00    +0.029 A 
ATOM     30  C   LIG    1        0.537   1.711   1.681  0.00  0.00    +0.002 A 
ENDBRANCH  22  28
ENDBRANCH  20  22
ENDBRANCH   1  20
TORSDOF 4
