REMARK  Name = ZINC28255070
REMARK                            x       y       z     vdW  Elec       q    Type
REMARK                         _______ _______ _______ _____ _____    ______ ____
ROOT
ATOM      1  C   LIG    1       -0.018   1.465   0.010  0.00  0.00    -0.096 C 
ATOM      2  N   LIG    1        0.002  -0.004   0.002  0.00  0.00    +0.380 N 
ATOM      3  H   LIG    1        0.494  -0.362  -0.914  0.00  0.00    -0.082 HD
ATOM      4  C   LIG    1       -1.344  -0.543  -0.121  0.00  0.00    -0.078 C 
ATOM      5  C   LIG    1       -1.384  -2.086  -0.181  0.00  0.00    -0.003 C 
ATOM      6  C   LIG    1       -0.604  -2.535   1.040  0.00  0.00    +0.042 C 
ATOM      7  C   LIG    1       -1.294  -1.986   2.261  0.00  0.00    +0.011 A 
ATOM      8  C   LIG    1       -1.026  -0.798   2.880  0.00  0.00    -0.041 A 
ATOM      9  C   LIG    1       -1.928  -0.451   3.869  0.00  0.00    +0.007 A 
ATOM     10  C   LIG    1       -2.961  -1.318   4.198  0.00  0.00    +0.050 A 
ATOM     11  C   LIG    1       -3.154  -2.570   3.610  0.00  0.00    +0.162 A 
ATOM     12  C   LIG    1        0.175  -0.047   2.430  0.00  0.00    +0.021 C 
ATOM     13  C   LIG    1       -2.260  -2.937   2.610  0.00  0.00    +0.167 A 
ATOM     14  O   LIG    1       -2.060  -4.086   1.868  0.00  0.00    -0.481 OA
ATOM     15  C   LIG    1        0.816  -2.042   0.891  0.00  0.00    +0.012 C 
ATOM     16  C   LIG    1        1.797  -2.932   1.559  0.00  0.00    -0.026 C 
ATOM     17  C   LIG    1        1.633  -4.252   1.545  0.00  0.00    +0.004 C 
ATOM     18  C   LIG    1        0.344  -4.827   0.926  0.00  0.00    +0.178 C 
ATOM     19  C   LIG    1       -0.700  -3.970   1.534  0.00  0.00    +0.217 C 
ATOM     20  C   LIG    1        0.821  -0.535   1.136  0.00  0.00    -0.057 C 
ENDROOT
BRANCH  11  21
ATOM     21  O   LIG    1       -4.168  -3.390   3.996  0.00  0.00    -0.491 OA
ATOM     22  C   LIG    1       -5.029  -2.914   5.032  0.00  0.00    +0.277 C 
ENDBRANCH  11  21
BRANCH  18  23
ATOM     23  O   LIG    1        0.354  -4.688  -0.496  0.00  0.00    -0.384 OA
ATOM     24  H   LIG    1        1.074  -5.260  -1.100  0.00  0.00    +0.210 HD
ENDBRANCH  18  23
TORSDOF 2
