REMARK  Name = ZINC28098746
REMARK                            x       y       z     vdW  Elec       q    Type
REMARK                         _______ _______ _______ _____ _____    ______ ____
ROOT
ATOM      1  C   LIG    1        0.606  -0.689  -1.055  0.00  0.00    +0.027 A 
ATOM      2  C   LIG    1        1.194   0.018  -2.097  0.00  0.00    +0.025 A 
ATOM      3  C   LIG    1        1.791  -0.662  -3.140  0.00  0.00    +0.030 A 
ATOM      4  C   LIG    1        1.804  -2.044  -3.149  0.00  0.00    +0.105 A 
ATOM      5  C   LIG    1        1.220  -2.751  -2.114  0.00  0.00    +0.030 A 
ATOM      6  C   LIG    1        0.626  -2.077  -1.064  0.00  0.00    +0.025 A 
ENDROOT
BRANCH   1   8
ATOM      7  C   LIG    1       -0.018   1.461   0.010  0.00  0.00    +0.125 C 
ATOM      8  N   LIG    1        0.002  -0.004   0.002  0.00  0.00    -0.347 N 
ATOM      9  H   LIG    1       -0.404  -0.499   0.731  0.00  0.00    +0.146 HD
ENDBRANCH   1   8
BRANCH   4  10
ATOM     10  S   LIG    1        2.565  -2.908  -4.483  0.00  0.00    +0.056 S 
ATOM     11  O   LIG    1        2.558  -2.024  -5.595  0.00  0.00    -0.153 OA
ATOM     12  O   LIG    1        1.965  -4.195  -4.529  0.00  0.00    -0.153 OA
BRANCH  10  13
ATOM     13  N   LIG    1        4.153  -3.140  -4.073  0.00  0.00    -0.204 NA
ATOM     14  H   LIG    1        4.749  -3.602  -4.683  0.00  0.00    +0.144 HD
ATOM     15  H   LIG    1        4.487  -2.813  -3.222  0.00  0.00    +0.144 HD
ENDBRANCH  10  13
ENDBRANCH   4  10
TORSDOF 3
