REMARK  Name = ZINC13779485
REMARK                            x       y       z     vdW  Elec       q    Type
REMARK                         _______ _______ _______ _____ _____    ______ ____
ROOT
ATOM      1  C   LIG    1       -0.013   1.086   0.008  0.00  0.00    +0.075 C 
ATOM      2  C   LIG    1       -0.729   1.579   1.267  0.00  0.00    +0.022 C 
ATOM      3  C   LIG    1       -2.164   1.050   1.278  0.00  0.00    +0.002 C 
ATOM      4  C   LIG    1       -2.904   1.556   0.038  0.00  0.00    +0.000 C 
ATOM      5  C   LIG    1       -2.188   1.063  -1.221  0.00  0.00    +0.002 C 
ATOM      6  C   LIG    1       -0.753   1.593  -1.232  0.00  0.00    +0.022 C 
ENDROOT
BRANCH   1   8
ATOM      7  C   LIG    1        2.488   0.656  -0.018  0.00  0.00    +0.132 C 
ATOM      8  N   LIG    1        1.362   1.593  -0.002  0.00  0.00    -0.304 N 
ATOM      9  C   LIG    1        1.590   2.921   0.003  0.00  0.00    +0.328 C 
ATOM     10  O   LIG    1        2.728   3.341  -0.006  0.00  0.00    -0.279 OA
ENDBRANCH   1   8
TORSDOF 1
