REMARK  Name = ZINC18057956
REMARK                            x       y       z     vdW  Elec       q    Type
REMARK                         _______ _______ _______ _____ _____    ______ ____
ROOT
ATOM      1  N   LIG    1        0.059  -4.173  -0.022  0.00  0.00    -0.210 N 
ATOM      2  C   LIG    1       -0.030  -4.891  -1.148  0.00  0.00    +0.233 C 
ATOM      3  C   LIG    1        0.017  -6.364  -0.811  0.00  0.00    +0.125 C 
ATOM      4  C   LIG    1        1.349  -6.957  -1.322  0.00  0.00    +0.163 C 
ATOM      5  O   LIG    1        1.854  -7.747  -0.221  0.00  0.00    -0.348 OA
ATOM      6  C   LIG    1        1.571  -6.974   0.956  0.00  0.00    +0.206 C 
ATOM      7  C   LIG    1        2.601  -5.897   1.157  0.00  0.00    +0.204 C 
ATOM      8  C   LIG    1        3.218  -6.133   2.476  0.00  0.00    +0.031 A 
ATOM      9  C   LIG    1        4.227  -5.439   3.147  0.00  0.00    +0.012 A 
ATOM     10  C   LIG    1        4.643  -5.856   4.397  0.00  0.00    +0.001 A 
ATOM     11  C   LIG    1        4.065  -6.963   4.994  0.00  0.00    +0.001 A 
ATOM     12  C   LIG    1        3.066  -7.666   4.347  0.00  0.00    +0.012 A 
ATOM     13  C   LIG    1        2.632  -7.262   3.083  0.00  0.00    +0.031 A 
ATOM     14  O   LIG    1        2.871  -5.005   0.382  0.00  0.00    -0.288 OA
ATOM     15  C   LIG    1        1.603  -7.831   2.190  0.00  0.00    +0.204 C 
ATOM     16  O   LIG    1        0.915  -8.804   2.412  0.00  0.00    -0.288 OA
ATOM     17  C   LIG    1        0.155  -6.371   0.739  0.00  0.00    +0.138 C 
ATOM     18  O   LIG    1       -0.132  -4.431  -2.265  0.00  0.00    -0.274 OA
ATOM     19  C   LIG    1        0.172  -4.902   1.094  0.00  0.00    +0.234 C 
ATOM     20  O   LIG    1        0.270  -4.454   2.216  0.00  0.00    -0.274 OA
ENDROOT
BRANCH   1  25
ATOM     21  C   LIG    1       -0.015   1.503   0.010  0.00  0.00    +0.045 C 
ATOM     22  C   LIG    1        0.004  -0.004   0.002  0.00  0.00    -0.032 A 
ATOM     23  C   LIG    1        1.070  -0.677  -0.566  0.00  0.00    +0.006 A 
ATOM     24  C   LIG    1        1.091  -2.058  -0.575  0.00  0.00    +0.024 A 
ATOM     25  C   LIG    1        0.040  -2.771  -0.013  0.00  0.00    +0.045 A 
ATOM     26  C   LIG    1       -1.029  -2.094   0.556  0.00  0.00    +0.044 A 
ATOM     27  C   LIG    1       -1.042  -0.711   0.567  0.00  0.00    +0.046 A 
ATOM     28 CL   LIG    1       -2.376   0.138   1.284  0.00  0.00    -0.083 Cl
ENDBRANCH   1  25
BRANCH   4  29
ATOM     29  C   LIG    1        1.105  -7.830  -2.526  0.00  0.00    -0.018 A 
ATOM     30  C   LIG    1        0.639  -9.121  -2.361  0.00  0.00    +0.006 A 
ATOM     31  C   LIG    1        0.416  -9.922  -3.465  0.00  0.00    +0.000 A 
ATOM     32  C   LIG    1        0.658  -9.431  -4.735  0.00  0.00    +0.000 A 
ATOM     33  C   LIG    1        1.123  -8.140  -4.900  0.00  0.00    +0.000 A 
ATOM     34  C   LIG    1        1.342  -7.338  -3.796  0.00  0.00    +0.006 A 
ENDBRANCH   4  29
TORSDOF 2
