REMARK  Name = ZINC36184714
REMARK                            x       y       z     vdW  Elec       q    Type
REMARK                         _______ _______ _______ _____ _____    ______ ____
ROOT
ATOM      1  C   LIG    1       -6.614  -9.508   0.745  0.00  0.00    +0.139 C 
ATOM      2  C   LIG    1       -6.751  -9.900  -0.727  0.00  0.00    +0.036 C 
ENDROOT
BRANCH   1   3
ATOM      3  C   LIG    1       -7.374 -10.490   1.599  0.00  0.00    +0.138 A 
ATOM      4  N   LIG    1       -8.659 -10.341   1.714  0.00  0.00    -0.231 NA
ATOM      5  C   LIG    1       -9.409 -11.186   2.465  0.00  0.00    +0.078 A 
ATOM      6  C   LIG    1      -10.790 -11.026   2.588  0.00  0.00    +0.028 A 
ATOM      7  C   LIG    1      -11.512 -11.908   3.361  0.00  0.00    +0.002 A 
ATOM      8  C   LIG    1      -10.884 -12.955   4.021  0.00  0.00    +0.001 A 
ATOM      9  C   LIG    1       -9.522 -13.133   3.916  0.00  0.00    +0.015 A 
ATOM     10  C   LIG    1       -8.772 -12.253   3.138  0.00  0.00    +0.065 A 
ATOM     11  C   LIG    1       -7.317 -12.394   2.987  0.00  0.00    +0.266 A 
ATOM     12  O   LIG    1       -6.708 -13.292   3.540  0.00  0.00    -0.267 OA
ATOM     13  N   LIG    1       -6.680 -11.490   2.206  0.00  0.00    -0.263 N 
BRANCH  13  14
ATOM     14  C   LIG    1       -5.294 -11.582   2.026  0.00  0.00    +0.051 A 
ATOM     15  C   LIG    1       -4.432 -11.073   2.988  0.00  0.00    +0.029 A 
ATOM     16  C   LIG    1       -3.066 -11.166   2.809  0.00  0.00    +0.040 A 
ATOM     17  C   LIG    1       -2.555 -11.766   1.670  0.00  0.00    +0.124 A 
ATOM     18  F   LIG    1       -1.218 -11.855   1.496  0.00  0.00    -0.205 F 
ATOM     19  C   LIG    1       -3.413 -12.274   0.709  0.00  0.00    +0.040 A 
ATOM     20  C   LIG    1       -4.780 -12.188   0.887  0.00  0.00    +0.029 A 
ENDBRANCH  13  14
ENDBRANCH   1   3
BRANCH   1  22
ATOM     21  C   LIG    1       -6.366  -7.178   1.415  0.00  0.00    +0.216 C 
ATOM     22  N   LIG    1       -7.158  -8.163   0.946  0.00  0.00    -0.293 N 
ATOM     23  O   LIG    1       -5.203  -7.406   1.671  0.00  0.00    -0.276 OA
BRANCH  21  24
ATOM     24  C   LIG    1       -6.926  -5.795   1.621  0.00  0.00    +0.096 C 
BRANCH  24  25
ATOM     25  C   LIG    1       -5.827  -4.874   2.157  0.00  0.00    +0.009 C 
BRANCH  25  26
ATOM     26  C   LIG    1       -6.395  -3.469   2.366  0.00  0.00    +0.000 C 
BRANCH  26  27
ATOM     27  C   LIG    1       -5.297  -2.549   2.902  0.00  0.00    +0.000 C 
BRANCH  27  28
ATOM     28  C   LIG    1       -5.865  -1.144   3.111  0.00  0.00    +0.000 C 
BRANCH  28  29
ATOM     29  C   LIG    1       -4.766  -0.224   3.647  0.00  0.00    -0.000 C 
BRANCH  29  30
ATOM     30  C   LIG    1       -5.335   1.181   3.856  0.00  0.00    -0.000 C 
BRANCH  30  32
ATOM     31  C   LIG    1       -4.804   3.506   4.601  0.00  0.00    +0.004 C 
ATOM     32  C   LIG    1       -4.236   2.101   4.391  0.00  0.00    -0.003 C 
ENDBRANCH  30  32
ENDBRANCH  29  30
ENDBRANCH  28  29
ENDBRANCH  27  28
ENDBRANCH  26  27
ENDBRANCH  25  26
ENDBRANCH  24  25
ENDBRANCH  21  24
BRANCH  22  33
ATOM     33  C   LIG    1       -8.563  -7.887   0.635  0.00  0.00    +0.090 C 
BRANCH  33  34
ATOM     34  C   LIG    1       -8.686  -7.442  -0.823  0.00  0.00    -0.060 C 
BRANCH  34  35
ATOM     35  N   LIG    1      -10.095  -7.166  -1.134  0.00  0.00    +0.377 N 
ATOM     36  H   LIG    1      -10.459  -6.493  -0.476  0.00  0.00    -0.083 HD
ATOM     37  C   LIG    1      -10.870  -8.411  -1.041  0.00  0.00    -0.097 C 
ATOM     38  C   LIG    1      -10.199  -6.625  -2.496  0.00  0.00    -0.097 C 
ENDBRANCH  34  35
ENDBRANCH  33  34
ENDBRANCH  22  33
ENDBRANCH   1  22
TORSDOF 14
