REMARK  Name = ZINC29046739
REMARK                            x       y       z     vdW  Elec       q    Type
REMARK                         _______ _______ _______ _____ _____    ______ ____
ROOT
ATOM      1  C   LIG    1        0.238  -3.373  -1.492  0.00  0.00    +0.096 C 
ATOM      2  C   LIG    1        1.339  -4.180  -1.486  0.00  0.00    +0.089 C 
ENDROOT
BRANCH   1   6
ATOM      3  C   LIG    1        0.032   1.401   0.208  0.00  0.00    +0.069 C 
ATOM      4  C   LIG    1        0.085  -0.105   0.171  0.00  0.00    +0.081 A 
ATOM      5  C   LIG    1        0.139  -0.895  -0.984  0.00  0.00    +0.076 A 
ATOM      6  C   LIG    1        0.177  -2.203  -0.598  0.00  0.00    +0.174 A 
ATOM      7  O   LIG    1        0.147  -2.232   0.749  0.00  0.00    -0.354 OA
ATOM      8  N   LIG    1        0.094  -0.894   1.210  0.00  0.00    -0.083 NA
ENDBRANCH   1   6
BRANCH   1   9
ATOM      9  C   LIG    1       -0.884  -3.669  -2.390  0.00  0.00    +0.253 C 
ATOM     10  N   LIG    1       -1.921  -2.813  -2.477  0.00  0.00    -0.281 N 
ATOM     11  H   LIG    1       -1.957  -2.034  -1.901  0.00  0.00    +0.155 HD
ATOM     12  O   LIG    1       -0.878  -4.688  -3.055  0.00  0.00    -0.270 OA
BRANCH  10  13
ATOM     13  C   LIG    1       -2.947  -3.049  -3.400  0.00  0.00    +0.034 A 
ATOM     14  C   LIG    1       -3.567  -1.982  -4.038  0.00  0.00    +0.025 A 
ATOM     15  C   LIG    1       -4.578  -2.217  -4.948  0.00  0.00    +0.022 A 
ATOM     16  C   LIG    1       -4.974  -3.514  -5.224  0.00  0.00    +0.041 A 
ATOM     17 CL   LIG    1       -6.246  -3.806  -6.369  0.00  0.00    -0.084 Cl
ATOM     18  C   LIG    1       -4.358  -4.579  -4.590  0.00  0.00    +0.022 A 
ATOM     19  C   LIG    1       -3.342  -4.349  -3.683  0.00  0.00    +0.025 A 
ENDBRANCH  10  13
ENDBRANCH   1   9
BRANCH   2  20
ATOM     20  N   LIG    1        1.351  -5.320  -2.231  0.00  0.00    -0.320 N 
ATOM     21  H   LIG    1        0.612  -5.518  -2.828  0.00  0.00    +0.152 HD
BRANCH  20  22
ATOM     22  C   LIG    1        2.429  -6.205  -2.136  0.00  0.00    +0.031 A 
ATOM     23  C   LIG    1        3.485  -5.926  -1.278  0.00  0.00    +0.024 A 
ATOM     24  C   LIG    1        4.549  -6.802  -1.187  0.00  0.00    +0.022 A 
ATOM     25  C   LIG    1        4.563  -7.957  -1.949  0.00  0.00    +0.041 A 
ATOM     26 CL   LIG    1        5.903  -9.056  -1.832  0.00  0.00    -0.084 Cl
ATOM     27  C   LIG    1        3.513  -8.238  -2.805  0.00  0.00    +0.022 A 
ATOM     28  C   LIG    1        2.443  -7.368  -2.896  0.00  0.00    +0.024 A 
ENDBRANCH  20  22
ENDBRANCH   2  20
TORSDOF 5
