REMARK  Name = ZINC33359111
REMARK                            x       y       z     vdW  Elec       q    Type
REMARK                         _______ _______ _______ _____ _____    ______ ____
ROOT
ATOM      1  C   LIG    1       -0.228   1.495   0.008  0.00  0.00    +0.068 C 
ATOM      2  C   LIG    1       -0.133  -0.009   0.001  0.00  0.00    +0.071 A 
ATOM      3  C   LIG    1       -0.060  -0.717  -1.212  0.00  0.00    +0.128 A 
ATOM      4  C   LIG    1        0.028  -2.124  -1.159  0.00  0.00    +0.167 A 
ATOM      5  N   LIG    1        0.102  -2.854  -2.321  0.00  0.00    -0.287 N 
ATOM      6  C   LIG    1        0.089  -2.204  -3.506  0.00  0.00    +0.279 A 
ATOM      7  C   LIG    1       -0.003  -0.734  -3.519  0.00  0.00    +0.138 A 
ATOM      8  O   LIG    1        0.153  -2.826  -4.550  0.00  0.00    -0.265 OA
ATOM      9  N   LIG    1        0.038  -2.725   0.025  0.00  0.00    -0.195 NA
ATOM     10  C   LIG    1       -0.033  -2.014   1.140  0.00  0.00    +0.215 A 
ATOM     11  N   LIG    1       -0.072  -0.070  -2.388  0.00  0.00    -0.236 NA
ATOM     12  N   LIG    1       -0.111  -0.687   1.132  0.00  0.00    -0.218 NA
ENDROOT
BRANCH   7  13
ATOM     13  C   LIG    1       -0.019  -0.005  -4.806  0.00  0.00    +0.024 A 
ATOM     14  C   LIG    1       -0.531  -0.612  -5.961  0.00  0.00    +0.017 A 
ATOM     15  C   LIG    1       -0.524   0.109  -7.138  0.00  0.00    +0.068 A 
ATOM     16  C   LIG    1       -0.013   1.403  -7.141  0.00  0.00    +0.214 A 
ATOM     17  N   LIG    1        0.464   1.948  -6.033  0.00  0.00    -0.221 NA
ATOM     18  C   LIG    1        0.471   1.298  -4.887  0.00  0.00    +0.124 A 
BRANCH  16  19
ATOM     19  O   LIG    1       -0.003   2.115  -8.295  0.00  0.00    -0.480 OA
ATOM     20  C   LIG    1        0.534   3.438  -8.236  0.00  0.00    +0.279 C 
ENDBRANCH  16  19
ENDBRANCH   7  13
BRANCH   5  21
ATOM     21  C   LIG    1        0.194  -4.316  -2.277  0.00  0.00    +0.086 C 
ATOM     22  C   LIG    1        1.491  -4.766  -2.952  0.00  0.00    +0.031 C 
ATOM     23  C   LIG    1       -1.002  -4.925  -3.011  0.00  0.00    +0.031 C 
ENDBRANCH   5  21
BRANCH  10  24
ATOM     24  N   LIG    1       -0.020  -2.674   2.353  0.00  0.00    -0.327 N 
ATOM     25  H   LIG    1       -0.071  -2.169   3.180  0.00  0.00    +0.145 HD
ATOM     26  H   LIG    1        0.041  -3.641   2.378  0.00  0.00    +0.145 HD
ENDBRANCH  10  24
TORSDOF 4
