REMARK  Name = ZINC14956507
REMARK                            x       y       z     vdW  Elec       q    Type
REMARK                         _______ _______ _______ _____ _____    ______ ____
ROOT
ATOM      1  N   LIG    1       -5.623  -3.070   0.308  0.00  0.00    -0.311 N 
ATOM      2  C   LIG    1       -5.534  -2.080   1.412  0.00  0.00    +0.110 C 
ATOM      3  C   LIG    1       -4.008  -1.861   1.569  0.00  0.00    +0.065 C 
ATOM      4  C   LIG    1       -3.501  -1.908   0.109  0.00  0.00    +0.194 C 
ATOM      5  C   LIG    1       -4.583  -2.680  -0.668  0.00  0.00    +0.151 C 
ENDROOT
BRANCH   1  14
ATOM      6  C   LIG    1       -8.015  -6.552   0.105  0.00  0.00    +0.162 A 
ATOM      7  C   LIG    1       -7.215  -5.447   0.188  0.00  0.00    +0.062 A 
ATOM      8  C   LIG    1       -7.664  -4.227  -0.331  0.00  0.00    +0.044 A 
ATOM      9  C   LIG    1       -8.941  -4.144  -0.938  0.00  0.00    +0.080 A 
ATOM     10  N   LIG    1       -9.347  -2.962  -1.428  0.00  0.00    -0.235 NA
ATOM     11  C   LIG    1       -8.573  -1.906  -1.343  0.00  0.00    +0.223 A 
ATOM     12  N   LIG    1       -7.375  -1.935  -0.781  0.00  0.00    -0.220 NA
ATOM     13  C   LIG    1       -9.744  -5.289  -1.012  0.00  0.00    +0.078 A 
ATOM     14  C   LIG    1       -6.875  -3.053  -0.271  0.00  0.00    +0.132 A 
ATOM     15  C   LIG    1       -9.280  -6.478  -0.494  0.00  0.00    +0.164 A 
BRANCH   6  17
ATOM     16  C   LIG    1       -6.280  -7.750   1.206  0.00  0.00    +0.277 C 
ATOM     17  O   LIG    1       -7.578  -7.737   0.608  0.00  0.00    -0.491 OA
ENDBRANCH   6  17
BRANCH  15  18
ATOM     18  O   LIG    1      -10.057  -7.590  -0.564  0.00  0.00    -0.491 OA
ATOM     19  C   LIG    1      -11.335  -7.450  -1.187  0.00  0.00    +0.277 C 
ENDBRANCH  15  18
ENDBRANCH   1  14
BRANCH   4  20
ATOM     20  O   LIG    1       -2.252  -2.600   0.041  0.00  0.00    -0.470 OA
BRANCH  20  21
ATOM     21  C   LIG    1       -1.127  -1.846   0.092  0.00  0.00    +0.234 A 
ATOM     22  C   LIG    1        0.131  -2.467   0.029  0.00  0.00    +0.178 A 
ATOM     23  N   LIG    1        1.231  -1.755   0.076  0.00  0.00    -0.248 NA
ATOM     24  C   LIG    1        1.157  -0.423   0.186  0.00  0.00    +0.089 A 
ATOM     25  C   LIG    1        2.321   0.364   0.239  0.00  0.00    +0.030 A 
ATOM     26  C   LIG    1        2.216   1.717   0.350  0.00  0.00    +0.002 A 
ATOM     27  C   LIG    1        0.969   2.336   0.413  0.00  0.00    +0.002 A 
ATOM     28  C   LIG    1       -0.179   1.606   0.365  0.00  0.00    +0.030 A 
ATOM     29  C   LIG    1       -0.110   0.207   0.250  0.00  0.00    +0.093 A 
ATOM     30  N   LIG    1       -1.222  -0.537   0.200  0.00  0.00    -0.210 NA
ENDBRANCH  20  21
ENDBRANCH   4  20
TORSDOF 5
