REMARK  Name = ZINC14979641
REMARK                            x       y       z     vdW  Elec       q    Type
REMARK                         _______ _______ _______ _____ _____    ______ ____
ROOT
ATOM      1  C   LIG    1        2.751  -1.983  -1.217  0.00  0.00    +0.017 C 
ENDROOT
BRANCH   1   2
ATOM      2  C   LIG    1        1.810  -1.793  -0.025  0.00  0.00    +0.055 C 
BRANCH   2   4
ATOM      3  C   LIG    1        0.002  -0.004   0.002  0.00  0.00    +0.105 A 
ATOM      4  C   LIG    1        1.296  -0.376  -0.012  0.00  0.00    +0.033 A 
ATOM      5  N   LIG    1        2.047   0.735  -0.013  0.00  0.00    -0.350 N 
ATOM      6  H   LIG    1        3.145   0.657  -0.024  0.00  0.00    +0.166 HD
ATOM      7  C   LIG    1        1.268   1.782  -0.001  0.00  0.00    +0.171 A 
ATOM      8  N   LIG    1       -0.017   1.365   0.009  0.00  0.00    -0.352 N 
ATOM      9  H   LIG    1       -0.977   1.901   0.021  0.00  0.00    +0.166 HD
ENDBRANCH   2   4
ENDBRANCH   1   2
BRANCH   1  10
ATOM     10  C   LIG    1        3.273  -3.421  -1.229  0.00  0.00    +0.077 C 
BRANCH  10  11
ATOM     11  S   LIG    1        4.385  -3.647  -2.639  0.00  0.00    -0.093 S 
BRANCH  11  12
ATOM     12  C   LIG    1        4.824  -5.339  -2.415  0.00  0.00    +0.123 C 
ATOM     13  N   LIG    1        4.331  -6.013  -1.413  0.00  0.00    -0.382 N 
ATOM     14  H   LIG    1        3.642  -5.526  -0.708  0.00  0.00    +0.158 HD
ATOM     15  H   LIG    1        4.605  -7.069  -1.273  0.00  0.00    +0.158 HD
BRANCH  12  16
ATOM     16  N   LIG    1        5.687  -5.948  -3.296  0.00  0.00    -0.340 N 
ATOM     17  H   LIG    1        6.103  -5.380  -4.141  0.00  0.00    +0.144 HD
ATOM     18  H   LIG    1        5.961  -7.004  -3.156  0.00  0.00    +0.144 HD
ENDBRANCH  12  16
ENDBRANCH  11  12
ENDBRANCH  10  11
ENDBRANCH   1  10
TORSDOF 6
