REMARK  Name = ZINC26995614
REMARK                            x       y       z     vdW  Elec       q    Type
REMARK                         _______ _______ _______ _____ _____    ______ ____
ROOT
ATOM      1  CA  TYR A  1        2.709  -1.175  -2.476  0.00  0.00    +0.161 C 
ENDROOT
BRANCH   1   4
ATOM      2  N   TYR A  1        0.862   0.220  -1.602  0.00  0.00    -0.303 N 
ATOM      3  H   TYR A  1        0.569   0.352  -2.518  0.00  0.00    +0.149 HD
ATOM      4  C   TYR A  1        1.977  -0.494  -1.348  0.00  0.00    +0.234 C 
ATOM      5  O   TYR A  1        2.391  -0.589  -0.212  0.00  0.00    -0.274 OA
BRANCH   2   7
ATOM      6  CB  TYR A  1        0.693   2.147  -0.106  0.00  0.00    +0.038 C 
ATOM      7  CA  TYR A  1        0.093   0.795  -0.496  0.00  0.00    +0.156 C 
BRANCH   7   8
ATOM      8  C   TYR A  1       -1.339   0.986  -0.926  0.00  0.00    +0.234 C 
ATOM      9  N   ASP A  2       -2.237   1.505  -0.066  0.00  0.00    -0.304 N 
ATOM     10  H   ASP A  2       -1.963   1.756   0.830  0.00  0.00    +0.149 HD
ATOM     11  O   TYR A  1       -1.683   0.672  -2.046  0.00  0.00    -0.274 OA
BRANCH   9  12
ATOM     12  CA  ASP A  2       -3.629   1.690  -0.484  0.00  0.00    +0.146 C 
BRANCH  12  13
ATOM     13  C   ASP A  2       -4.391   0.406  -0.279  0.00  0.00    +0.246 C 
ATOM     14  O   ASP A  2       -3.829  -0.564   0.170  0.00  0.00    -0.299 OA
ENDBRANCH  12  13
BRANCH  12  15
ATOM     15  CB  ASP A  2       -4.269   2.802   0.351  0.00  0.00    +0.150 C 
BRANCH  15  16
ATOM     16  CG  ASP A  2       -3.585   4.111   0.053  0.00  0.00    +0.307 C 
ATOM     17  OD1 ASP A  2       -2.671   4.152  -0.753  0.00  0.00    -0.251 OA
BRANCH  16  18
ATOM     18  OD2 ASP A  2       -3.946   5.130   0.617  0.00  0.00    -0.481 OA
ATOM     19  HD2 ASP A  2       -4.648   5.098   1.237  0.00  0.00    +0.295 HD
ENDBRANCH  16  18
ENDBRANCH  15  16
ENDBRANCH  12  15
ENDBRANCH   9  12
ENDBRANCH   7   8
ENDBRANCH   2   7
ENDBRANCH   1   4
BRANCH   1  20
ATOM     20  N   TYR A  1        4.123  -1.323  -2.121  0.00  0.00    -0.302 N 
ATOM     21  H   TYR A  1        4.388  -1.351  -1.188  0.00  0.00    +0.150 HD
ATOM     22  C   TYR A  1        5.054  -1.421  -3.090  0.00  0.00    +0.234 C 
ATOM     23  O   TYR A  1        4.722  -1.386  -4.256  0.00  0.00    -0.274 OA
BRANCH  22  24
ATOM     24  CA  TYR A  1        6.508  -1.574  -2.725  0.00  0.00    +0.163 C 
BRANCH  24  25
ATOM     25  N   TYR A  1        7.243  -2.126  -3.866  0.00  0.00    -0.304 N 
ATOM     26  H   TYR A  1        7.710  -2.971  -3.779  0.00  0.00    +0.149 HD
ATOM     27  C   UNK A  0        7.269  -1.459  -5.037  0.00  0.00    +0.211 C 
ATOM     28  C   UNK A  0        8.025  -2.027  -6.210  0.00  0.00    +0.109 C 
ATOM     29  O   UNK A  0        6.685  -0.402  -5.146  0.00  0.00    -0.276 OA
ENDBRANCH  24  25
BRANCH  24  30
ATOM     30  CB  TYR A  1        7.088  -0.206  -2.358  0.00  0.00    +0.067 C 
BRANCH  30  31
ATOM     31  CG  TYR A  1        8.506  -0.375  -1.876  0.00  0.00    -0.045 A 
ATOM     32  CD2 TYR A  1        8.757  -0.590  -0.533  0.00  0.00    +0.007 A 
ATOM     33  CE2 TYR A  1       10.056  -0.745  -0.088  0.00  0.00    +0.045 A 
ATOM     34  CZ  TYR A  1       11.108  -0.685  -0.990  0.00  0.00    +0.117 A 
ATOM     35  CE1 TYR A  1       10.854  -0.469  -2.336  0.00  0.00    +0.045 A 
ATOM     36  CD1 TYR A  1        9.553  -0.320  -2.777  0.00  0.00    +0.007 A 
BRANCH  34  37
ATOM     37  OH  TYR A  1       12.387  -0.836  -0.554  0.00  0.00    -0.507 OA
ATOM     38  HH  TYR A  1       12.697  -1.752  -0.557  0.00  0.00    +0.292 HD
ENDBRANCH  34  37
ENDBRANCH  30  31
ENDBRANCH  24  30
ENDBRANCH  22  24
ENDBRANCH   1  20
BRANCH   1  39
ATOM     39  CB  TYR A  1        2.097  -2.555  -2.722  0.00  0.00    +0.012 C 
ATOM     40  CG2 TYR A  1        0.659  -2.395  -3.217  0.00  0.00    +0.009 C 
ATOM     41  CG1 TYR A  1        2.101  -3.354  -1.417  0.00  0.00    +0.009 C 
ENDBRANCH   1  39
TORSDOF 15
