REMARK  Name = ZINC16052627
REMARK                            x       y       z     vdW  Elec       q    Type
REMARK                         _______ _______ _______ _____ _____    ______ ____
ROOT
ATOM      1  C   LIG    1       -0.731   1.580   1.267  0.00  0.00    -0.017 C 
ATOM      2  C   LIG    1       -0.013   1.086   0.008  0.00  0.00    +0.028 C 
ATOM      3  C   LIG    1       -0.754   1.594  -1.231  0.00  0.00    +0.107 C 
ATOM      4  N   LIG    1       -0.793   3.061  -1.212  0.00  0.00    -0.315 N 
ATOM      5  C   LIG    1       -1.520   3.559  -0.037  0.00  0.00    +0.107 C 
ATOM      6  C   LIG    1       -0.801   3.110   1.237  0.00  0.00    +0.028 C 
ENDROOT
BRANCH   4   7
ATOM      7  C   LIG    1       -1.341   3.558  -2.381  0.00  0.00    +0.134 A 
ATOM      8  C   LIG    1       -1.482   4.940  -2.579  0.00  0.00    +0.059 A 
ATOM      9  C   LIG    1       -1.161   6.136  -1.803  0.00  0.00    +0.032 A 
ATOM     10  C   LIG    1       -1.532   7.192  -2.545  0.00  0.00    +0.085 A 
ATOM     11  N   LIG    1       -2.061   6.761  -3.734  0.00  0.00    -0.346 N 
ATOM     12  H   LIG    1       -2.399   7.340  -4.435  0.00  0.00    +0.167 HD
ATOM     13  C   LIG    1       -2.042   5.395  -3.788  0.00  0.00    +0.143 A 
ATOM     14  N   LIG    1       -2.424   4.493  -4.691  0.00  0.00    -0.218 NA
ATOM     15  C   LIG    1       -2.278   3.207  -4.460  0.00  0.00    +0.225 A 
ATOM     16  N   LIG    1       -1.753   2.737  -3.343  0.00  0.00    -0.220 NA
ENDBRANCH   4   7
BRANCH   1  23
ATOM     17  C   LIG    1        1.185   0.388   2.349  0.00  0.00    +0.005 A 
ATOM     18  C   LIG    1        1.886  -0.017   3.470  0.00  0.00    +0.020 A 
ATOM     19  C   LIG    1        1.424   0.315   4.731  0.00  0.00    +0.041 A 
ATOM     20 CL   LIG    1        2.300  -0.199   6.139  0.00  0.00    -0.084 Cl
ATOM     21  C   LIG    1        0.265   1.056   4.870  0.00  0.00    +0.020 A 
ATOM     22  C   LIG    1       -0.432   1.465   3.749  0.00  0.00    +0.005 A 
ATOM     23  C   LIG    1        0.029   1.134   2.489  0.00  0.00    -0.043 A 
ENDBRANCH   1  23
BRANCH   1  24
ATOM     24  C   LIG    1       -2.148   1.005   1.306  0.00  0.00    -0.075 C 
BRANCH  24  25
ATOM     25  N   LIG    1       -2.821   1.470   2.531  0.00  0.00    +0.379 N 
ATOM     26  H   LIG    1       -2.307   1.125   3.350  0.00  0.00    -0.090 HD
ATOM     27  H   LIG    1       -3.775   1.114   2.563  0.00  0.00    -0.090 HD
ATOM     28  H   LIG    1       -2.839   2.488   2.555  0.00  0.00    -0.090 HD
ENDBRANCH  24  25
ENDBRANCH   1  24
TORSDOF 4
