REMARK  Name = ZINC20094599
REMARK                            x       y       z     vdW  Elec       q    Type
REMARK                         _______ _______ _______ _____ _____    ______ ____
ROOT
ATOM      1  C   LIG    1       -0.076   5.328   0.029  0.00  0.00    +0.023 A 
ATOM      2  C   LIG    1        0.428   6.056   1.126  0.00  0.00    +0.100 A 
ATOM      3  C   LIG    1        0.389   7.462   1.086  0.00  0.00    +0.136 A 
ATOM      4  N   LIG    1       -0.121   8.099   0.044  0.00  0.00    -0.224 NA
ATOM      5  C   LIG    1       -0.611   7.456  -1.005  0.00  0.00    +0.117 A 
ATOM      6  C   LIG    1       -0.609   6.049  -1.057  0.00  0.00    +0.093 A 
ENDROOT
BRANCH   1   9
ATOM      7  C   LIG    1       -1.220   1.748   0.017  0.00  0.00    +0.004 A 
ATOM      8  C   LIG    1       -1.247   3.128   0.030  0.00  0.00    +0.009 A 
ATOM      9  C   LIG    1       -0.051   3.848   0.022  0.00  0.00    -0.012 A 
ATOM     10  C   LIG    1        1.167   3.168   0.007  0.00  0.00    +0.054 A 
ATOM     11  C   LIG    1        1.182   1.784   0.000  0.00  0.00    +0.117 A 
ATOM     12  C   LIG    1       -0.013   1.076   0.008  0.00  0.00    +0.045 A 
BRANCH  11  13
ATOM     13  O   LIG    1        2.366   1.118  -0.015  0.00  0.00    -0.507 OA
ATOM     14  H   LIG    1        2.379   0.018  -0.020  0.00  0.00    +0.292 HD
ENDBRANCH  11  13
ENDBRANCH   1   9
BRANCH   3  15
ATOM     15  N   LIG    1        0.884   8.187   2.151  0.00  0.00    -0.342 N 
ATOM     16  H   LIG    1        1.306   7.665   3.023  0.00  0.00    +0.144 HD
ATOM     17  H   LIG    1        0.858   9.286   2.128  0.00  0.00    +0.144 HD
ENDBRANCH   3  15
BRANCH   2  18
ATOM     18  C   LIG    1        0.976   5.375   2.260  0.00  0.00    +0.103 C 
ATOM     19  N   LIG    1        1.410   4.836   3.161  0.00  0.00    -0.191 NA
ENDBRANCH   2  18
BRANCH   6  20
ATOM     20  C   LIG    1       -1.140   5.362  -2.195  0.00  0.00    +0.102 C 
ATOM     21  N   LIG    1       -1.562   4.817  -3.098  0.00  0.00    -0.191 NA
ENDBRANCH   6  20
BRANCH   5  22
ATOM     22  S   LIG    1       -1.273   8.374  -2.356  0.00  0.00    -0.102 S 
BRANCH  22  23
ATOM     23  C   LIG    1       -1.014  10.059  -1.747  0.00  0.00    +0.103 C 
BRANCH  23  24
ATOM     24  C   LIG    1       -1.528  11.060  -2.784  0.00  0.00    +0.167 C 
BRANCH  24  25
ATOM     25  O   LIG    1       -1.323  12.390  -2.304  0.00  0.00    -0.394 OA
ATOM     26  H   LIG    1       -1.632  13.250  -2.917  0.00  0.00    +0.209 HD
ENDBRANCH  24  25
ENDBRANCH  23  24
ENDBRANCH  22  23
ENDBRANCH   5  22
TORSDOF 9
