REMARK  Name = ZINC38337299
REMARK                            x       y       z     vdW  Elec       q    Type
REMARK                         _______ _______ _______ _____ _____    ______ ____
ROOT
ATOM      1  C   LIG    1        1.445  -2.518  -2.503  0.00  0.00    -0.047 A 
ATOM      2  C   LIG    1        0.727  -2.733  -3.666  0.00  0.00    +0.005 A 
ATOM      3  C   LIG    1        1.370  -3.176  -4.804  0.00  0.00    +0.024 A 
ATOM      4  C   LIG    1        2.740  -3.405  -4.782  0.00  0.00    +0.035 A 
ATOM      5  C   LIG    1        3.458  -3.188  -3.613  0.00  0.00    -0.029 A 
ATOM      6  C   LIG    1        4.944  -3.435  -3.584  0.00  0.00    +0.045 C 
ATOM      7  C   LIG    1        2.809  -2.740  -2.479  0.00  0.00    +0.008 A 
ENDROOT
BRANCH   4   8
ATOM      8  N   LIG    1        3.394  -3.854  -5.933  0.00  0.00    -0.303 N 
ATOM      9  H   LIG    1        4.361  -3.934  -5.941  0.00  0.00    +0.153 HD
BRANCH   8  10
ATOM     10  C   LIG    1        2.666  -4.182  -7.056  0.00  0.00    +0.228 C 
ATOM     11  N   LIG    1        3.259  -4.690  -8.085  0.00  0.00    -0.080 NA
BRANCH  11  12
ATOM     12  O   LIG    1        4.637  -5.009  -8.022  0.00  0.00    -0.408 OA
ATOM     13  H   LIG    1        4.975  -5.453  -8.812  0.00  0.00    +0.328 HD
ENDBRANCH  11  12
ENDBRANCH   8  10
ENDBRANCH   4   8
BRANCH   1  14
ATOM     14  C   LIG    1        0.739  -2.035  -1.262  0.00  0.00    +0.035 C 
BRANCH  14  15
ATOM     15  C   LIG    1        0.730  -0.505  -1.244  0.00  0.00    +0.004 C 
BRANCH  15  17
ATOM     16  C   LIG    1        0.004   1.516   0.033  0.00  0.00    +0.004 C 
ATOM     17  C   LIG    1        0.014  -0.014   0.015  0.00  0.00    -0.003 C 
ENDBRANCH  15  17
ENDBRANCH  14  15
ENDBRANCH   1  14
TORSDOF 6
