REMARK  Name = ZINC64447975
REMARK                            x       y       z     vdW  Elec       q    Type
REMARK                         _______ _______ _______ _____ _____    ______ ____
ROOT
ATOM      1  N   LIG    1       -0.177   0.225   2.300  0.00  0.00    -0.218 N 
ATOM      2  C   LIG    1       -0.931  -0.125   3.362  0.00  0.00    +0.281 A 
ATOM      3  C   LIG    1       -0.524   0.728   4.487  0.00  0.00    +0.085 A 
ATOM      4  C   LIG    1       -0.902   0.858   5.798  0.00  0.00    +0.034 A 
ATOM      5  C   LIG    1       -1.988  -0.025   6.359  0.00  0.00    +0.064 C 
ATOM      6  N   LIG    1       -0.304   1.774   6.588  0.00  0.00    -0.306 N 
ATOM      7  C   LIG    1        0.667   2.583   6.134  0.00  0.00    +0.254 A 
ATOM      8  C   LIG    1        1.113   2.516   4.809  0.00  0.00    +0.098 A 
ATOM      9  O   LIG    1        1.172   3.393   6.894  0.00  0.00    -0.268 OA
ATOM     10  C   LIG    1        0.537   1.598   3.958  0.00  0.00    +0.075 A 
ATOM     11  O   LIG    1       -1.789  -0.987   3.385  0.00  0.00    -0.265 OA
ATOM     12  N   LIG    1        0.710   1.250   2.641  0.00  0.00    -0.289 N 
ATOM     13  H   LIG    1        1.350   1.657   2.036  0.00  0.00    +0.187 HD
ENDROOT
BRANCH   1  20
ATOM     14  C   LIG    1       -0.621   1.924   0.061  0.00  0.00    +0.046 C 
ATOM     15  C   LIG    1       -0.483   0.431  -0.086  0.00  0.00    -0.025 A 
ATOM     16  C   LIG    1       -0.566  -0.151  -1.336  0.00  0.00    +0.005 A 
ATOM     17  C   LIG    1       -0.439  -1.521  -1.473  0.00  0.00    +0.000 A 
ATOM     18  C   LIG    1       -0.229  -2.313  -0.359  0.00  0.00    +0.002 A 
ATOM     19  C   LIG    1       -0.145  -1.738   0.894  0.00  0.00    +0.028 A 
ATOM     20  C   LIG    1       -0.267  -0.361   1.034  0.00  0.00    +0.070 A 
ENDBRANCH   1  20
BRANCH   6  21
ATOM     21  C   LIG    1       -0.729   1.890   7.985  0.00  0.00    +0.180 C 
BRANCH  21  22
ATOM     22  C   LIG    1        0.023   0.888   8.823  0.00  0.00    +0.061 A 
ATOM     23  C   LIG    1        1.171   1.277   9.487  0.00  0.00    +0.025 A 
ATOM     24  C   LIG    1        1.855   0.348  10.256  0.00  0.00    +0.003 A 
ATOM     25  C   LIG    1        1.356  -0.944  10.328  0.00  0.00    +0.020 A 
ATOM     26  C   LIG    1        0.203  -1.260   9.636  0.00  0.00    +0.111 A 
ATOM     27  N   LIG    1       -0.425  -0.348   8.919  0.00  0.00    -0.258 NA
ENDBRANCH  21  22
ENDBRANCH   6  21
TORSDOF 3
