REMARK  Name = ZINC24671770
REMARK                            x       y       z     vdW  Elec       q    Type
REMARK                         _______ _______ _______ _____ _____    ______ ____
ROOT
ATOM      1  N   LIG    1        0.978  -0.335  -1.257  0.00  0.00    -0.300 NA
ATOM      2  C   LIG    1        0.212   0.041  -2.454  0.00  0.00    +0.100 C 
ATOM      3  C   LIG    1        0.923  -0.495  -3.699  0.00  0.00    +0.100 C 
ATOM      4  N   LIG    1        1.053  -1.955  -3.596  0.00  0.00    -0.296 NA
ATOM      5  C   LIG    1        1.818  -2.330  -2.399  0.00  0.00    +0.100 C 
ATOM      6  C   LIG    1        1.107  -1.795  -1.154  0.00  0.00    +0.100 C 
ENDROOT
BRANCH   1   7
ATOM      7  C   LIG    1        0.367   0.226  -0.044  0.00  0.00    +0.085 C 
BRANCH   7   8
ATOM      8  C   LIG    1        0.475   1.752  -0.078  0.00  0.00    +0.020 C 
BRANCH   8   9
ATOM      9  C   LIG    1       -0.161   2.336   1.185  0.00  0.00    +0.036 C 
BRANCH   9  13
ATOM     10  C   LIG    1        0.140   6.596   1.092  0.00  0.00    +0.000 A 
ATOM     11  C   LIG    1       -0.965   5.969   0.547  0.00  0.00    +0.000 A 
ATOM     12  C   LIG    1       -1.062   4.591   0.577  0.00  0.00    +0.003 A 
ATOM     13  C   LIG    1       -0.055   3.839   1.152  0.00  0.00    -0.047 A 
ATOM     14  C   LIG    1        1.047   4.466   1.703  0.00  0.00    +0.003 A 
ATOM     15  C   LIG    1        1.147   5.845   1.668  0.00  0.00    +0.000 A 
ENDBRANCH   9  13
ENDBRANCH   8   9
ENDBRANCH   7   8
ENDBRANCH   1   7
BRANCH   4  16
ATOM     16  C   LIG    1        1.663  -2.516  -4.809  0.00  0.00    +0.122 C 
BRANCH  16  17
ATOM     17  C   LIG    1        0.911  -2.030  -6.021  0.00  0.00    -0.003 A 
ATOM     18  C   LIG    1        1.465  -1.060  -6.835  0.00  0.00    +0.007 A 
ATOM     19  C   LIG    1        0.777  -0.618  -7.950  0.00  0.00    +0.000 A 
ATOM     20  C   LIG    1       -0.470  -1.138  -8.244  0.00  0.00    +0.002 A 
ATOM     21  C   LIG    1       -1.026  -2.104  -7.427  0.00  0.00    +0.033 A 
ATOM     22  C   LIG    1       -0.335  -2.550  -6.315  0.00  0.00    +0.126 A 
BRANCH  22  23
ATOM     23  N   LIG    1       -0.931  -3.585  -5.440  0.00  0.00    +0.006 N 
ATOM     24  O   LIG    1       -1.980  -4.118  -5.754  0.00  0.00    -0.130 OA
BRANCH  23  25
ATOM     25  O   LIG    1       -0.372  -3.903  -4.405  0.00  0.00    -0.396 OA
ATOM     26  H   LIG    1        0.435  -3.493  -4.164  0.00  0.00    +0.329 HD
ENDBRANCH  23  25
ENDBRANCH  22  23
ENDBRANCH  16  17
ENDBRANCH   4  16
TORSDOF 8
