REMARK  Name = ZINC38334036
REMARK                            x       y       z     vdW  Elec       q    Type
REMARK                         _______ _______ _______ _____ _____    ______ ____
ROOT
ATOM      1  C   LIG    1        3.484  -2.014  -0.886  0.00  0.00    -0.071 C 
ATOM      2  C   LIG    1        4.787  -2.816  -0.911  0.00  0.00    -0.082 C 
ATOM      3  C   LIG    1        4.537  -4.185  -0.266  0.00  0.00    -0.030 C 
ATOM      4  C   LIG    1        4.046  -3.961   1.171  0.00  0.00    -0.017 C 
ATOM      5  C   LIG    1        2.767  -3.121   1.129  0.00  0.00    -0.078 C 
ATOM      6  C   LIG    1        3.427  -4.896  -1.051  0.00  0.00    -0.017 C 
ATOM      7  C   LIG    1        2.169  -4.028  -1.019  0.00  0.00    -0.078 C 
ATOM      8  N   LIG    1        2.423  -2.803  -0.256  0.00  0.00    +0.381 N 
ATOM      9  H   LIG    1        1.575  -2.256  -0.254  0.00  0.00    -0.081 HD
ENDROOT
BRANCH   2  10
ATOM     10  N   LIG    1        5.823  -2.096  -0.160  0.00  0.00    +0.383 N 
ATOM     11  H   LIG    1        5.528  -1.985   0.798  0.00  0.00    -0.085 HD
ATOM     12  H   LIG    1        5.968  -1.187  -0.574  0.00  0.00    -0.085 HD
BRANCH  10  13
ATOM     13  C   LIG    1        7.078  -2.859  -0.202  0.00  0.00    -0.045 C 
BRANCH  13  14
ATOM     14  C   LIG    1        8.141  -2.120   0.569  0.00  0.00    -0.046 A 
ATOM     15  C   LIG    1        9.077  -1.356  -0.103  0.00  0.00    +0.003 A 
ATOM     16  C   LIG    1       10.052  -0.678   0.604  0.00  0.00    +0.000 A 
ATOM     17  C   LIG    1       10.093  -0.764   1.983  0.00  0.00    +0.001 A 
ATOM     18  C   LIG    1        9.158  -1.528   2.656  0.00  0.00    +0.020 A 
ATOM     19  C   LIG    1        8.178  -2.202   1.949  0.00  0.00    +0.042 A 
ATOM     20 CL   LIG    1        6.999  -3.156   2.794  0.00  0.00    -0.083 Cl
ENDBRANCH  13  14
ENDBRANCH  10  13
ENDBRANCH   2  10
BRANCH   1  21
ATOM     21  C   LIG    1        3.697  -0.724  -0.090  0.00  0.00    +0.034 C 
BRANCH  21  25
ATOM     22  C   LIG    1        6.373   1.835  -2.220  0.00  0.00    +0.000 A 
ATOM     23  C   LIG    1        6.490   1.700  -0.849  0.00  0.00    +0.000 A 
ATOM     24  C   LIG    1        5.624   0.872  -0.160  0.00  0.00    +0.004 A 
ATOM     25  C   LIG    1        4.641   0.179  -0.841  0.00  0.00    -0.042 A 
ATOM     26  C   LIG    1        4.524   0.315  -2.212  0.00  0.00    +0.004 A 
ATOM     27  C   LIG    1        5.391   1.142  -2.901  0.00  0.00    +0.000 A 
ENDBRANCH  21  25
BRANCH  21  28
ATOM     28  C   LIG    1        2.375  -0.025   0.098  0.00  0.00    -0.042 A 
ATOM     29  C   LIG    1        1.948   0.315   1.367  0.00  0.00    +0.004 A 
ATOM     30  C   LIG    1        0.735   0.956   1.540  0.00  0.00    +0.000 A 
ATOM     31  C   LIG    1       -0.050   1.257   0.442  0.00  0.00    +0.000 A 
ATOM     32  C   LIG    1        0.379   0.918  -0.827  0.00  0.00    +0.000 A 
ATOM     33  C   LIG    1        1.593   0.281  -1.000  0.00  0.00    +0.004 A 
ENDBRANCH  21  28
ENDBRANCH   1  21
TORSDOF 6
