REMARK  Name = ZINC36124475
REMARK                            x       y       z     vdW  Elec       q    Type
REMARK                         _______ _______ _______ _____ _____    ______ ____
ROOT
ATOM      1  C   LIG    1       -1.242  -2.232   0.002  0.00  0.00    +0.065 C 
ATOM      2  C   LIG    1       -2.403  -2.930   0.113  0.00  0.00    +0.050 C 
ATOM      3  C   LIG    1       -3.779  -2.392   0.141  0.00  0.00    +0.009 A 
ATOM      4  C   LIG    1       -4.298  -1.102   0.069  0.00  0.00    +0.025 A 
ATOM      5  C   LIG    1       -5.665  -0.910   0.123  0.00  0.00    +0.019 A 
ATOM      6 BR   LIG    1       -6.378   0.839   0.028  0.00  0.00    -0.050 Br
ATOM      7  C   LIG    1       -6.514  -1.998   0.247  0.00  0.00    +0.017 A 
ATOM      8  C   LIG    1       -6.008  -3.281   0.319  0.00  0.00    +0.025 A 
ATOM      9  C   LIG    1       -4.636  -3.495   0.266  0.00  0.00    +0.042 A 
ATOM     10  N   LIG    1       -3.881  -4.664   0.317  0.00  0.00    -0.281 N 
ATOM     11  H   LIG    1       -4.258  -5.554   0.404  0.00  0.00    +0.155 HD
ATOM     12  C   LIG    1       -2.566  -4.404   0.226  0.00  0.00    +0.249 C 
ATOM     13  O   LIG    1       -1.671  -5.226   0.236  0.00  0.00    -0.270 OA
ENDROOT
BRANCH   1  14
ATOM     14  C   LIG    1       -1.193  -0.819   0.404  0.00  0.00    +0.187 C 
ATOM     15  O   LIG    1       -2.151  -0.310   0.954  0.00  0.00    -0.287 OA
BRANCH  14  22
ATOM     16  C   LIG    1        0.067   1.327   0.520  0.00  0.00    +0.014 A 
ATOM     17  C   LIG    1        1.200   2.070   0.271  0.00  0.00    +0.039 A 
ATOM     18  C   LIG    1        2.291   1.487  -0.356  0.00  0.00    +0.123 A 
ATOM     19  F   LIG    1        3.400   2.220  -0.598  0.00  0.00    -0.205 F 
ATOM     20  C   LIG    1        2.248   0.153  -0.737  0.00  0.00    +0.039 A 
ATOM     21  C   LIG    1        1.121  -0.600  -0.493  0.00  0.00    +0.014 A 
ATOM     22  C   LIG    1        0.018  -0.017   0.139  0.00  0.00    +0.022 A 
ENDBRANCH  14  22
ENDBRANCH   1  14
TORSDOF 2
