REMARK  Name = ZINC28638129
REMARK                            x       y       z     vdW  Elec       q    Type
REMARK                         _______ _______ _______ _____ _____    ______ ____
ROOT
ATOM      1  C   LIG    1        6.097   5.582  -0.026  0.00  0.00    +0.150 A 
ATOM      2  C   LIG    1        5.986   6.983  -0.024  0.00  0.00    +0.147 A 
ATOM      3  C   LIG    1        7.168   7.742  -0.026  0.00  0.00    +0.167 A 
ATOM      4  N   LIG    1        6.774   9.056  -0.015  0.00  0.00    -0.286 N 
ATOM      5  C   LIG    1        5.411   9.074  -0.001  0.00  0.00    +0.203 A 
ATOM      6  N   LIG    1        8.339   7.114  -0.040  0.00  0.00    -0.216 NA
ATOM      7  C   LIG    1        8.395   5.799  -0.047  0.00  0.00    +0.225 A 
ATOM      8  N   LIG    1        4.950   7.856  -0.003  0.00  0.00    -0.231 NA
ATOM      9  N   LIG    1        7.311   5.043  -0.041  0.00  0.00    -0.219 NA
ENDROOT
BRANCH   4  10
ATOM     10  C1* LIG    1        7.656  10.226  -0.018  0.00  0.00    +0.253 C 
ATOM     11  C2* LIG    1        8.026  10.626  -1.469  0.00  0.00    +0.195 C 
ATOM     12  C3* LIG    1        8.366  12.128  -1.314  0.00  0.00    +0.178 C 
ATOM     13  C4* LIG    1        7.664  12.541  -0.006  0.00  0.00    +0.177 C 
ATOM     14  O4* LIG    1        6.963  11.387   0.489  0.00  0.00    -0.346 OA
BRANCH  11  15
ATOM     15  O2* LIG    1        9.163   9.891  -1.926  0.00  0.00    -0.385 OA
ATOM     16  H2* LIG    1        9.555  10.058  -2.940  0.00  0.00    +0.210 HD
ENDBRANCH  11  15
BRANCH  12  17
ATOM     17  O3* LIG    1        9.779  12.313  -1.207  0.00  0.00    -0.386 OA
ATOM     18  H3* LIG    1       10.194  13.325  -1.091  0.00  0.00    +0.210 HD
ENDBRANCH  12  17
BRANCH  13  19
ATOM     19  C5* LIG    1        6.677  13.678  -0.281  0.00  0.00    +0.190 C 
BRANCH  19  20
ATOM     20  O5* LIG    1        6.118  14.132   0.953  0.00  0.00    -0.392 OA
ATOM     21  H5* LIG    1        5.382  14.950   0.955  0.00  0.00    +0.210 HD
ENDBRANCH  19  20
ENDBRANCH  13  19
ENDBRANCH   4  10
BRANCH   1  22
ATOM     22  N   LIG    1        4.967   4.782  -0.020  0.00  0.00    -0.323 N 
ATOM     23  H   LIG    1        3.968   5.242  -0.008  0.00  0.00    +0.148 HD
BRANCH  22  24
ATOM     24  C   LIG    1        5.103   3.323  -0.029  0.00  0.00    +0.138 C 
BRANCH  24  30
ATOM     25  C   LIG    1        3.096   2.409  -1.213  0.00  0.00    +0.009 A 
ATOM     26  C   LIG    1        1.842   1.830  -1.207  0.00  0.00    +0.046 A 
ATOM     27  C   LIG    1        1.223   1.532  -0.001  0.00  0.00    +0.117 A 
ATOM     28  C   LIG    1        1.863   1.822   1.195  0.00  0.00    +0.046 A 
ATOM     29  C   LIG    1        3.119   2.397   1.183  0.00  0.00    +0.009 A 
ATOM     30  C   LIG    1        3.735   2.692  -0.019  0.00  0.00    -0.030 A 
BRANCH  27  31
ATOM     31  O   LIG    1       -0.011   0.963   0.007  0.00  0.00    -0.507 OA
ATOM     32  H   LIG    1       -0.501   0.727   0.963  0.00  0.00    +0.292 HD
ENDBRANCH  27  31
ENDBRANCH  24  30
ENDBRANCH  22  24
ENDBRANCH   1  22
TORSDOF 9
