REMARK  Name = ZINC42893657
REMARK                            x       y       z     vdW  Elec       q    Type
REMARK                         _______ _______ _______ _____ _____    ______ ____
ROOT
ATOM      1  C   LIG    1        0.705  -2.094  -0.405  0.00  0.00    +0.190 C 
ENDROOT
BRANCH   1   2
ATOM      2  C   LIG    1        1.563  -2.987  -1.265  0.00  0.00    -0.022 A 
ATOM      3  C   LIG    1        1.236  -3.184  -2.594  0.00  0.00    +0.006 A 
ATOM      4  C   LIG    1        2.018  -4.000  -3.386  0.00  0.00    +0.009 A 
ATOM      5  C   LIG    1        3.139  -4.626  -2.844  0.00  0.00    -0.018 A 
ATOM      6  C   LIG    1        3.463  -4.423  -1.504  0.00  0.00    +0.009 A 
ATOM      7  C   LIG    1        2.678  -3.601  -0.723  0.00  0.00    +0.006 A 
BRANCH   5   8
ATOM      8  C   LIG    1        3.983  -5.505  -3.690  0.00  0.00    -0.018 A 
ATOM      9  C   LIG    1        3.661  -5.704  -5.031  0.00  0.00    +0.010 A 
ATOM     10  C   LIG    1        4.450  -6.522  -5.814  0.00  0.00    +0.027 A 
ATOM     11  C   LIG    1        5.559  -7.145  -5.269  0.00  0.00    +0.088 A 
ATOM     12  C   LIG    1        5.882  -6.952  -3.938  0.00  0.00    +0.027 A 
ATOM     13  C   LIG    1        5.104  -6.131  -3.148  0.00  0.00    +0.010 A 
BRANCH  11  14
ATOM     14  S   LIG    1        6.561  -8.189  -6.274  0.00  0.00    -0.006 S 
ATOM     15  C   LIG    1        7.818  -7.088  -6.981  0.00  0.00    +0.200 C 
ATOM     16  O   LIG    1        5.689  -8.656  -7.294  0.00  0.00    -0.170 OA
ATOM     17  O   LIG    1        7.164  -9.098  -5.363  0.00  0.00    -0.170 OA
ENDBRANCH  11  14
ENDBRANCH   5   8
ENDBRANCH   1   2
BRANCH   1  18
ATOM     18  C   LIG    1        1.059  -0.631  -0.677  0.00  0.00    +0.409 C 
ATOM     19  F   LIG    1        0.718  -0.306  -1.995  0.00  0.00    -0.169 F 
ATOM     20  F   LIG    1        2.432  -0.440  -0.490  0.00  0.00    -0.169 F 
ATOM     21  F   LIG    1        0.350   0.192   0.204  0.00  0.00    -0.169 F 
ENDBRANCH   1  18
BRANCH   1  22
ATOM     22  N   LIG    1       -0.711  -2.323  -0.722  0.00  0.00    -0.292 NA
ATOM     23  H   LIG    1       -0.855  -3.255  -1.080  0.00  0.00    +0.123 HD
BRANCH  22  24
ATOM     24  C   LIG    1       -1.560  -2.071   0.450  0.00  0.00    +0.144 C 
BRANCH  24  25
ATOM     25  C   LIG    1       -1.514  -3.264   1.369  0.00  0.00    +0.231 C 
ATOM     26  N   LIG    1       -2.221  -3.258   2.517  0.00  0.00    -0.296 N 
ATOM     27  H   LIG    1       -2.760  -2.486   2.750  0.00  0.00    +0.150 HD
ATOM     28  O   LIG    1       -0.839  -4.229   1.078  0.00  0.00    -0.274 OA
BRANCH  26  29
ATOM     29  C   LIG    1       -2.176  -4.418   3.411  0.00  0.00    +0.121 C 
ATOM     30  C   LIG    1       -3.449  -5.255   3.548  0.00  0.00    +0.044 C 
ATOM     31  C   LIG    1       -3.001  -4.350   4.697  0.00  0.00    +0.044 C 
BRANCH  29  32
ATOM     32  C   LIG    1       -0.887  -5.126   3.466  0.00  0.00    +0.088 C 
ATOM     33  N   LIG    1        0.108  -5.673   3.509  0.00  0.00    -0.194 NA
ENDBRANCH  29  32
ENDBRANCH  26  29
ENDBRANCH  24  25
BRANCH  24  34
ATOM     34  C   LIG    1       -3.002  -1.835  -0.006  0.00  0.00    +0.068 C 
BRANCH  34  36
ATOM     35  C   LIG    1       -4.499  -0.344  -1.339  0.00  0.00    +0.047 C 
ATOM     36  C   LIG    1       -3.073  -0.543  -0.824  0.00  0.00    +0.108 C 
ATOM     37  F   LIG    1       -2.193  -0.629  -1.908  0.00  0.00    -0.242 F 
ATOM     38  C   LIG    1       -2.679   0.642   0.060  0.00  0.00    +0.047 C 
ENDBRANCH  34  36
ENDBRANCH  24  34
ENDBRANCH  22  24
ENDBRANCH   1  22
TORSDOF 11
