REMARK  Name = ZINC28256102
REMARK                            x       y       z     vdW  Elec       q    Type
REMARK                         _______ _______ _______ _____ _____    ______ ____
ROOT
ATOM      1  C   LIG    1        2.489   1.043  -0.016  0.00  0.00    +0.173 C 
ENDROOT
BRANCH   1   2
ATOM      2  C   LIG    1        1.176   1.782   0.000  0.00  0.00    -0.019 A 
ATOM      3  C   LIG    1       -0.013   1.076   0.008  0.00  0.00    +0.009 A 
ATOM      4  C   LIG    1       -1.220   1.749   0.017  0.00  0.00    +0.049 A 
ATOM      5  C   LIG    1       -1.240   3.135   0.030  0.00  0.00    +0.158 A 
ATOM      6  C   LIG    1       -0.044   3.845   0.022  0.00  0.00    +0.159 A 
ATOM      7  C   LIG    1        1.163   3.164   0.007  0.00  0.00    +0.054 A 
BRANCH   5   8
ATOM      8  O   LIG    1       -2.427   3.799   0.044  0.00  0.00    -0.503 OA
ATOM      9  H   LIG    1       -2.442   4.898   0.054  0.00  0.00    +0.292 HD
ENDBRANCH   5   8
BRANCH   6  10
ATOM     10  O   LIG    1       -0.059   5.205   0.029  0.00  0.00    -0.503 OA
ATOM     11  H   LIG    1        0.887   5.766   0.022  0.00  0.00    +0.292 HD
ENDBRANCH   6  10
ENDBRANCH   1   2
BRANCH   1  12
ATOM     12  S   LIG    1        2.611  -0.006   1.459  0.00  0.00    +0.085 S 
ATOM     13  O   LIG    1        2.361   0.762   2.628  0.00  0.00    -0.147 OA
ATOM     14  O   LIG    1        3.757  -0.842   1.372  0.00  0.00    -0.147 OA
BRANCH  12  15
ATOM     15  O   LIG    1        1.428  -0.959   1.360  0.00  0.00    -0.254 OA
ATOM     16  H   LIG    1        1.530  -1.521   0.577  0.00  0.00    +0.244 HD
ENDBRANCH  12  15
ENDBRANCH   1  12
BRANCH   1  17
ATOM     17  C   LIG    1        2.568   0.170  -1.270  0.00  0.00    -0.049 C 
BRANCH  17  19
ATOM     18  C   LIG    1        3.960  -1.400  -2.479  0.00  0.00    -0.100 C 
ATOM     19  N   LIG    1        3.849  -0.550  -1.286  0.00  0.00    +0.379 N 
ATOM     20  H   LIG    1        4.667   0.185  -1.281  0.00  0.00    -0.086 HD
ATOM     21  H   LIG    1        3.912  -1.175  -0.383  0.00  0.00    -0.086 HD
ENDBRANCH  17  19
ENDBRANCH   1  17
TORSDOF 7
