REMARK  Name = ZINC22003756
REMARK                            x       y       z     vdW  Elec       q    Type
REMARK                         _______ _______ _______ _____ _____    ______ ____
ROOT
ATOM      1  C   LIG    1        1.460   7.776   0.025  0.00  0.00    -0.040 A 
ATOM      2  C   LIG    1        0.077   7.675   0.038  0.00  0.00    +0.005 A 
ATOM      3  C   LIG    1       -0.529   6.438   0.038  0.00  0.00    +0.011 A 
ATOM      4  C   LIG    1        0.252   5.284   0.025  0.00  0.00    +0.007 A 
ATOM      5  C   LIG    1       -0.065   3.844   0.022  0.00  0.00    +0.007 A 
ATOM      6  C   LIG    1       -1.257   3.124   0.030  0.00  0.00    +0.010 A 
ATOM      7  C   LIG    1       -1.226   1.747   0.017  0.00  0.00    +0.001 A 
ATOM      8  C   LIG    1       -0.013   1.076   0.008  0.00  0.00    +0.002 A 
ATOM      9  C   LIG    1        1.175   1.775   0.000  0.00  0.00    +0.026 A 
ATOM     10  C   LIG    1        1.164   3.167   0.007  0.00  0.00    +0.047 A 
ATOM     11  N   LIG    1        2.179   4.106   0.001  0.00  0.00    -0.354 N 
ATOM     12  H   LIG    1        3.230   3.780  -0.010  0.00  0.00    +0.166 HD
ATOM     13  C   LIG    1        1.651   5.384   0.012  0.00  0.00    +0.048 A 
ATOM     14  C   LIG    1        2.244   6.643   0.012  0.00  0.00    +0.030 A 
ENDROOT
BRANCH   1  16
ATOM     15  C   LIG    1        2.969   9.290  -1.231  0.00  0.00    +0.015 C 
ATOM     16  C   LIG    1        2.110   9.135   0.026  0.00  0.00    -0.013 C 
ATOM     17  C   LIG    1        2.992   9.278   1.267  0.00  0.00    +0.015 C 
ATOM     18  C   LIG    1        1.029  10.218   0.041  0.00  0.00    +0.015 C 
ENDBRANCH   1  16
TORSDOF 1
