REMARK  Name = ZINC38358483
REMARK                            x       y       z     vdW  Elec       q    Type
REMARK                         _______ _______ _______ _____ _____    ______ ____
ROOT
ATOM      1  C   LIG    1       -1.201  -0.638   0.010  0.00  0.00    +0.162 A 
ATOM      2  C   LIG    1       -2.374   0.097   0.019  0.00  0.00    +0.053 A 
ATOM      3  C   LIG    1       -3.603  -0.545   0.029  0.00  0.00    -0.044 A 
ATOM      4  C   LIG    1       -3.661  -1.924   0.031  0.00  0.00    -0.054 A 
ATOM      5  C   LIG    1       -4.975  -2.657   0.051  0.00  0.00    -0.036 C 
ATOM      6  C   LIG    1       -4.907  -3.875  -0.872  0.00  0.00    +0.009 C 
ATOM      7  C   LIG    1       -6.235  -4.635  -0.795  0.00  0.00    +0.068 C 
ATOM      8  C   LIG    1       -7.380  -3.687  -1.159  0.00  0.00    +0.076 C 
ATOM      9  C   LIG    1       -7.350  -2.471  -0.229  0.00  0.00    -0.054 C 
ATOM     10  N   LIG    1       -6.063  -1.782  -0.389  0.00  0.00    +0.386 N 
ATOM     11  H   LIG    1       -5.924  -1.536  -1.358  0.00  0.00    -0.081 HD
ATOM     12  C   LIG    1       -6.056  -0.557   0.422  0.00  0.00    -0.073 C 
ATOM     13  C   LIG    1       -2.488  -2.664   0.019  0.00  0.00    +0.051 A 
ATOM     14  C   LIG    1       -4.854   0.295   0.035  0.00  0.00    +0.017 C 
ATOM     15  C   LIG    1       -1.259  -2.028   0.003  0.00  0.00    +0.162 A 
ENDROOT
BRANCH   8  16
ATOM     16  N   LIG    1       -8.659  -4.386  -1.008  0.00  0.00    -0.298 N 
ATOM     17  C   LIG    1       -9.618  -4.602  -2.097  0.00  0.00    +0.114 C 
ATOM     18  C   LIG    1      -10.562  -5.719  -1.600  0.00  0.00    +0.046 C 
ATOM     19  C   LIG    1      -10.453  -5.564  -0.065  0.00  0.00    +0.103 C 
ATOM     20  C   LIG    1       -9.102  -4.916   0.145  0.00  0.00    +0.216 C 
ATOM     21  O   LIG    1       -8.508  -4.878   1.202  0.00  0.00    -0.276 OA
BRANCH  18  22
ATOM     22  C   LIG    1      -10.066  -7.096  -2.048  0.00  0.00    +0.218 C 
ATOM     23  F   LIG    1      -11.000  -8.070  -1.681  0.00  0.00    -0.249 F 
ENDBRANCH  18  22
ENDBRANCH   8  16
BRANCH   7  24
ATOM     24  N   LIG    1       -6.211  -5.762  -1.737  0.00  0.00    -0.326 NA
ATOM     25  H   LIG    1       -7.099  -6.240  -1.751  0.00  0.00    +0.119 HD
ATOM     26  H   LIG    1       -5.460  -6.400  -1.519  0.00  0.00    +0.119 HD
ENDBRANCH   7  24
BRANCH   1  28
ATOM     27  C   LIG    1       -0.017   1.425   0.010  0.00  0.00    +0.277 C 
ATOM     28  O   LIG    1        0.002  -0.004   0.002  0.00  0.00    -0.491 OA
ENDBRANCH   1  28
BRANCH  15  29
ATOM     29  O   LIG    1       -0.112  -2.759  -0.014  0.00  0.00    -0.491 OA
ATOM     30  C   LIG    1       -0.250  -4.182  -0.020  0.00  0.00    +0.277 C 
ENDBRANCH  15  29
TORSDOF 5
