REMARK  Name = ZINC13747368
REMARK                            x       y       z     vdW  Elec       q    Type
REMARK                         _______ _______ _______ _____ _____    ______ ____
ROOT
ATOM      1  C   LIG    1        1.052   2.320   0.004  0.00  0.00    +0.105 A 
ATOM      2  C   LIG    1       -0.018   1.503   0.010  0.00  0.00    +0.033 A 
ATOM      3  N   LIG    1       -1.128   2.304   0.019  0.00  0.00    -0.350 N 
ATOM      4  C   LIG    1       -0.697   3.583   0.027  0.00  0.00    +0.171 A 
ATOM      5  H   LIG    1       -2.132   1.853   0.019  0.00  0.00    +0.166 HD
ATOM      6  N   LIG    1        0.608   3.586   0.015  0.00  0.00    -0.352 N 
ATOM      7  H   LIG    1        1.324   4.420   0.012  0.00  0.00    +0.166 HD
ENDROOT
BRANCH   2   8
ATOM      8  C   LIG    1        0.002  -0.004   0.002  0.00  0.00    +0.057 C 
BRANCH   8   9
ATOM      9  C   LIG    1        0.148  -0.520   1.435  0.00  0.00    +0.034 C 
BRANCH   9  10
ATOM     10  C   LIG    1        0.169  -2.050   1.427  0.00  0.00    +0.156 C 
BRANCH  10  11
ATOM     11  O   LIG    1        0.305  -2.532   2.765  0.00  0.00    -0.395 OA
ATOM     12  H   LIG    1        0.339  -3.614   2.959  0.00  0.00    +0.209 HD
ENDBRANCH  10  11
ENDBRANCH   9  10
ENDBRANCH   8   9
ENDBRANCH   2   8
TORSDOF 4
