REMARK  Name = ZINC28475907
REMARK                            x       y       z     vdW  Elec       q    Type
REMARK                         _______ _______ _______ _____ _____    ______ ____
ROOT
ATOM      1  C   LIG    1        2.671   0.616  -1.414  0.00  0.00    +0.033 C 
ENDROOT
BRANCH   1   2
ATOM      2  C   LIG    1        2.422   1.183  -0.015  0.00  0.00    +0.140 C 
BRANCH   2   5
ATOM      3  C   LIG    1       -1.330   1.944   0.019  0.00  0.00    +0.111 C 
ATOM      4  C   LIG    1       -0.014   1.209   0.009  0.00  0.00    +0.235 C 
ATOM      5  N   LIG    1        1.143   1.898   0.001  0.00  0.00    -0.184 N 
ATOM      6  O   LIG    1        0.002  -0.004   0.002  0.00  0.00    -0.274 OA
BRANCH   5   7
ATOM      7  O   LIG    1        1.124   3.314   0.009  0.00  0.00    -0.292 OA
ATOM      8  H   LIG    1        2.069   3.877   0.003  0.00  0.00    +0.242 HD
ENDBRANCH   5   7
ENDBRANCH   2   5
ENDBRANCH   1   2
BRANCH   1   9
ATOM      9  C   LIG    1        4.007  -0.131  -1.430  0.00  0.00    +0.128 C 
BRANCH   9  10
ATOM     10  P   LIG    1        4.304  -0.807  -3.097  0.00  0.00    +0.328 P 
ATOM     11  O   LIG    1        4.226   0.285  -4.093  0.00  0.00    -0.259 OA
BRANCH  10  12
ATOM     12  O   LIG    1        3.189  -1.919  -3.432  0.00  0.00    -0.324 OA
ATOM     13  H   LIG    1        3.207  -2.442  -4.400  0.00  0.00    +0.220 HD
ENDBRANCH  10  12
BRANCH  10  14
ATOM     14  O   LIG    1        5.766  -1.479  -3.151  0.00  0.00    -0.324 OA
ATOM     15  H   LIG    1        6.438  -0.809  -2.949  0.00  0.00    +0.220 HD
ENDBRANCH  10  14
ENDBRANCH   9  10
ENDBRANCH   1   9
TORSDOF 7
