REMARK  Name = ZINC22446634
REMARK                            x       y       z     vdW  Elec       q    Type
REMARK                         _______ _______ _______ _____ _____    ______ ____
ROOT
ATOM      1  C   LIG    1       -4.571  -7.207  -0.096  0.00  0.00    +0.019 A 
ATOM      2  C   LIG    1       -5.516  -6.811  -1.052  0.00  0.00    +0.012 A 
ATOM      3  C   LIG    1       -5.416  -5.570  -1.637  0.00  0.00    +0.017 A 
ATOM      4  C   LIG    1       -4.381  -4.707  -1.287  0.00  0.00    +0.034 A 
ATOM      5  C   LIG    1       -3.431  -5.092  -0.338  0.00  0.00    +0.049 A 
ATOM      6  N   LIG    1       -2.377  -4.258   0.026  0.00  0.00    -0.298 N 
ATOM      7  C   LIG    1       -2.387  -2.871  -0.082  0.00  0.00    +0.048 A 
ATOM      8  C   LIG    1       -1.555  -2.127   0.748  0.00  0.00    +0.024 A 
ATOM      9  C   LIG    1       -1.537  -0.748   0.664  0.00  0.00    +0.002 A 
ATOM     10  C   LIG    1       -2.345  -0.096  -0.248  0.00  0.00    +0.001 A 
ATOM     11  C   LIG    1       -3.177  -0.825  -1.078  0.00  0.00    +0.017 A 
ATOM     12  C   LIG    1       -3.204  -2.210  -0.995  0.00  0.00    +0.034 A 
ATOM     13  S   LIG    1       -4.282  -3.121  -2.048  0.00  0.00    -0.086 S 
ATOM     14  C   LIG    1       -3.533  -6.337   0.260  0.00  0.00    +0.036 A 
ENDROOT
BRANCH   1  16
ATOM     15  C   LIG    1       -5.790  -9.462   0.149  0.00  0.00    +0.091 C 
ATOM     16  C   LIG    1       -4.673  -8.528   0.534  0.00  0.00    +0.160 C 
ATOM     17  O   LIG    1       -3.857  -8.867   1.365  0.00  0.00    -0.292 OA
ENDBRANCH   1  16
BRANCH   6  18
ATOM     18  C   LIG    1       -1.167  -4.888   0.562  0.00  0.00    +0.109 C 
BRANCH  18  19
ATOM     19  C   LIG    1       -1.286  -5.006   2.083  0.00  0.00    +0.001 C 
BRANCH  19  20
ATOM     20  C   LIG    1       -0.023  -5.664   2.643  0.00  0.00    -0.077 C 
BRANCH  20  21
ATOM     21  N   LIG    1       -0.136  -5.778   4.104  0.00  0.00    +0.381 N 
ATOM     22  H   LIG    1       -0.984  -6.272   4.337  0.00  0.00    -0.082 HD
ATOM     23  C   LIG    1       -0.173  -4.435   4.697  0.00  0.00    -0.063 C 
ATOM     24  C   LIG    1       -0.310  -4.553   6.217  0.00  0.00    +0.066 C 
ATOM     25  N   LIG    1        0.829  -5.312   6.751  0.00  0.00    -0.304 NA
ATOM     26  C   LIG    1        0.893  -6.651   6.147  0.00  0.00    +0.066 C 
ATOM     27  C   LIG    1        1.021  -6.516   4.628  0.00  0.00    -0.063 C 
BRANCH  25  28
ATOM     28  C   LIG    1        0.763  -5.399   8.216  0.00  0.00    +0.112 C 
BRANCH  28  29
ATOM     29  C   LIG    1        2.077  -5.971   8.753  0.00  0.00    +0.171 C 
BRANCH  29  30
ATOM     30  O   LIG    1        3.142  -5.061   8.475  0.00  0.00    -0.394 OA
ATOM     31  H   LIG    1        4.007  -5.360   8.788  0.00  0.00    +0.209 HD
ENDBRANCH  29  30
ENDBRANCH  28  29
ENDBRANCH  25  28
ENDBRANCH  20  21
ENDBRANCH  19  20
ENDBRANCH  18  19
ENDBRANCH   6  18
TORSDOF 8
