REMARK  Name = ZINC28087711
REMARK                            x       y       z     vdW  Elec       q    Type
REMARK                         _______ _______ _______ _____ _____    ______ ____
ROOT
ATOM      1  C   LIG    1       -1.609   3.600  -2.252  0.00  0.00    -0.001 C 
ENDROOT
BRANCH   1   2
ATOM      2  C   LIG    1       -1.607   5.130  -2.210  0.00  0.00    +0.007 C 
BRANCH   2   3
ATOM      3  C   LIG    1       -2.424   5.673  -3.384  0.00  0.00    +0.074 C 
BRANCH   3   5
ATOM      4  C   LIG    1       -3.159   7.964  -4.397  0.00  0.00    +0.086 C 
ATOM      5  C   LIG    1       -2.421   7.180  -3.343  0.00  0.00    +0.130 C 
ATOM      6  O   LIG    1       -1.828   7.759  -2.465  0.00  0.00    -0.298 OA
ENDBRANCH   3   5
ENDBRANCH   2   3
ENDBRANCH   1   2
BRANCH   1   7
ATOM      7  C   LIG    1       -0.793   3.056  -1.078  0.00  0.00    -0.020 C 
BRANCH   7   8
ATOM      8  C   LIG    1       -0.795   1.527  -1.120  0.00  0.00    -0.086 C 
BRANCH   8   9
ATOM      9  N   LIG    1       -0.012   1.005   0.008  0.00  0.00    +0.378 N 
ATOM     10  H   LIG    1        1.023   1.372  -0.064  0.00  0.00    -0.090 HD
ATOM     11  H   LIG    1       -0.457   1.346   0.954  0.00  0.00    -0.090 HD
ATOM     12  H   LIG    1       -0.013  -0.095  -0.023  0.00  0.00    -0.090 HD
ENDBRANCH   8   9
ENDBRANCH   7   8
ENDBRANCH   1   7
TORSDOF 6
