REMARK  Name = ZINC40430394
REMARK                            x       y       z     vdW  Elec       q    Type
REMARK                         _______ _______ _______ _____ _____    ______ ____
ROOT
ATOM      1  C   LIG    1       -0.017   1.383   0.010  0.00  0.00    +0.004 A 
ATOM      2  C   LIG    1        1.150   2.094   0.002  0.00  0.00    +0.010 A 
ATOM      3  C   LIG    1        2.377   1.420  -0.013  0.00  0.00    +0.005 A 
ATOM      4  C   LIG    1        3.638   2.164  -0.020  0.00  0.00    +0.061 A 
ATOM      5  C   LIG    1        4.805   1.468  -0.034  0.00  0.00    +0.182 A 
ATOM      6  C   LIG    1        4.775   0.007  -0.042  0.00  0.00    +0.291 A 
ATOM      7  N   LIG    1        3.607  -0.659  -0.035  0.00  0.00    -0.317 N 
ATOM      8  H   LIG    1        3.611  -1.629  -0.040  0.00  0.00    +0.169 HD
ATOM      9  O   LIG    1        5.822  -0.616  -0.054  0.00  0.00    -0.264 OA
ATOM     10  C   LIG    1        2.402   0.014  -0.021  0.00  0.00    +0.085 A 
ATOM     11  C   LIG    1        1.199  -0.691  -0.014  0.00  0.00    +0.147 A 
ATOM     12  F   LIG    1        1.205  -2.042  -0.021  0.00  0.00    -0.203 F 
ATOM     13  C   LIG    1        0.002  -0.004   0.002  0.00  0.00    +0.040 A 
ENDROOT
BRANCH   5  14
ATOM     14  O   LIG    1        5.994   2.128  -0.041  0.00  0.00    -0.502 OA
ATOM     15  H   LIG    1        6.767   1.546  -0.051  0.00  0.00    +0.292 HD
ENDBRANCH   5  14
TORSDOF 1
