REMARK  Name = ZINC28879001
REMARK                            x       y       z     vdW  Elec       q    Type
REMARK                         _______ _______ _______ _____ _____    ______ ____
ROOT
ATOM      1  C   LIG    1       -3.227  14.213   1.202  0.00  0.00    +0.089 C 
ATOM      2  C   LIG    1       -2.081  14.188   0.186  0.00  0.00    +0.006 C 
ATOM      3  C   LIG    1       -1.313  12.872   0.323  0.00  0.00    -0.077 C 
ATOM      4  N   LIG    1       -2.224  11.745   0.087  0.00  0.00    +0.381 N 
ATOM      5  H   LIG    1       -2.681  11.885  -0.904  0.00  0.00    -0.082 HD
ATOM      6  C   LIG    1       -3.307  11.721   1.079  0.00  0.00    -0.077 C 
ATOM      7  C   LIG    1       -4.134  13.003   0.965  0.00  0.00    +0.006 C 
ENDROOT
BRANCH   1  17
ATOM      8  C   LIG    1       -4.915  18.656   3.482  0.00  0.00    +0.002 A 
ATOM      9  C   LIG    1       -4.130  17.670   4.055  0.00  0.00    +0.002 A 
ATOM     10  C   LIG    1       -3.767  16.556   3.323  0.00  0.00    +0.028 A 
ATOM     11  C   LIG    1       -4.192  16.424   2.010  0.00  0.00    +0.070 A 
ATOM     12  C   LIG    1       -4.985  17.418   1.433  0.00  0.00    +0.067 A 
ATOM     13  N   LIG    1       -5.250  17.014   0.127  0.00  0.00    -0.306 N 
ATOM     14  C   LIG    1       -4.642  15.830  -0.083  0.00  0.00    +0.328 A 
ATOM     15  O   LIG    1       -4.671  15.202  -1.124  0.00  0.00    -0.247 OA
ATOM     16  H   LIG    1       -5.868  17.644  -0.530  0.00  0.00    +0.170 HD
ATOM     17  N   LIG    1       -4.000  15.446   1.037  0.00  0.00    -0.289 N 
ATOM     18  C   LIG    1       -5.343  18.533   2.175  0.00  0.00    +0.028 A 
ENDBRANCH   1  17
BRANCH   4  19
ATOM     19  C   LIG    1       -1.494  10.471   0.073  0.00  0.00    -0.060 C 
BRANCH  19  20
ATOM     20  C   LIG    1       -2.491   9.311   0.076  0.00  0.00    +0.086 C 
BRANCH  20  21
ATOM     21  N   LIG    1       -1.763   8.040   0.062  0.00  0.00    -0.312 N 
ATOM     22  H   LIG    1       -0.663   8.037   0.052  0.00  0.00    +0.149 HD
ATOM     23  C   LIG    1       -2.440   6.875   0.062  0.00  0.00    +0.260 C 
ATOM     24  O   LIG    1       -3.656   6.878   0.073  0.00  0.00    -0.269 OA
BRANCH  23  25
ATOM     25  C   LIG    1       -1.709   5.599   0.048  0.00  0.00    +0.103 A 
ATOM     26  C   LIG    1       -2.277   4.365   0.046  0.00  0.00    +0.041 A 
ATOM     27  C   LIG    1       -1.233   3.409   0.031  0.00  0.00    +0.003 A 
ATOM     28  C   LIG    1       -1.212   2.008   0.019  0.00  0.00    +0.048 A 
ATOM     29  C   LIG    1       -0.016   1.347   0.009  0.00  0.00    +0.124 A 
ATOM     30  F   LIG    1        0.002  -0.004   0.002  0.00  0.00    -0.205 F 
ATOM     31  C   LIG    1        1.183   2.053   0.002  0.00  0.00    +0.040 A 
ATOM     32  C   LIG    1        1.186   3.429   0.009  0.00  0.00    +0.029 A 
ATOM     33  C   LIG    1       -0.020   4.125   0.024  0.00  0.00    +0.047 A 
ATOM     34  N   LIG    1       -0.334   5.464   0.034  0.00  0.00    -0.351 N 
ATOM     35  H   LIG    1        0.306   6.359   0.034  0.00  0.00    +0.166 HD
ENDBRANCH  23  25
ENDBRANCH  20  21
ENDBRANCH  19  20
ENDBRANCH   4  19
TORSDOF 5
