REMARK  Name = ZINC14618977
REMARK                            x       y       z     vdW  Elec       q    Type
REMARK                         _______ _______ _______ _____ _____    ______ ____
ROOT
ATOM      1  C   LIG    1       -4.285   0.937   2.401  0.00  0.00    +0.267 C 
ATOM      2  C   LIG    1       -4.519  -0.568   2.547  0.00  0.00    +0.267 C 
ATOM      3  O   LIG    1       -4.720   0.345   3.627  0.00  0.00    -0.345 OA
ENDROOT
BRANCH   1   4
ATOM      4  C   LIG    1       -2.860   1.421   2.322  0.00  0.00    +0.339 C 
ATOM      5  O   LIG    1       -2.409   2.120   3.199  0.00  0.00    -0.248 OA
BRANCH   4   6
ATOM      6  O   LIG    1       -2.091   1.077   1.277  0.00  0.00    -0.463 OA
BRANCH   6   8
ATOM      7  C   LIG    1       -0.013   1.086   0.008  0.00  0.00    +0.048 C 
ATOM      8  C   LIG    1       -0.729   1.579   1.267  0.00  0.00    +0.229 C 
ENDBRANCH   6   8
ENDBRANCH   4   6
ENDBRANCH   1   4
BRANCH   2   9
ATOM      9  C   LIG    1       -5.741  -1.155   1.888  0.00  0.00    +0.337 C 
ATOM     10  O   LIG    1       -6.619  -1.637   2.563  0.00  0.00    -0.248 OA
BRANCH   9  11
ATOM     11  O   LIG    1       -5.853  -1.143   0.550  0.00  0.00    -0.479 OA
ATOM     12  H   LIG    1       -5.172  -0.769   0.026  0.00  0.00    +0.295 HD
ENDBRANCH   9  11
ENDBRANCH   2   9
TORSDOF 5
