REMARK  Name = ZINC40665067
REMARK                            x       y       z     vdW  Elec       q    Type
REMARK                         _______ _______ _______ _____ _____    ______ ____
ROOT
ATOM      1  C   UNK A  0        0.333   0.305   0.742  0.00  0.00    +0.004 A 
ATOM      2  C   UNK A  0        1.637   0.733   0.882  0.00  0.00    +0.013 A 
ATOM      3  C   UNK A  0        2.662  -0.202   1.036  0.00  0.00    +0.037 A 
ATOM      4  C   UNK A  0        2.360  -1.564   1.048  0.00  0.00    +0.013 A 
ATOM      5  C   UNK A  0        1.052  -1.978   0.907  0.00  0.00    +0.004 A 
ATOM      6  C   UNK A  0        0.040  -1.047   0.754  0.00  0.00    -0.047 A 
ENDROOT
BRANCH   3   7
ATOM      7  C   UNK A  0        4.062   0.250   1.186  0.00  0.00    +0.245 C 
ATOM      8  N   GLU A  1        5.050  -0.655   1.335  0.00  0.00    -0.298 N 
ATOM      9  H   GLU A  1        4.842  -1.603   1.344  0.00  0.00    +0.150 HD
ATOM     10  O   UNK A  0        4.322   1.437   1.175  0.00  0.00    -0.270 OA
BRANCH   8  11
ATOM     11  CA  GLU A  1        6.437  -0.208   1.484  0.00  0.00    +0.182 C 
BRANCH  11  12
ATOM     12  C   GLU A  1        7.042   0.013   0.121  0.00  0.00    +0.325 C 
ATOM     13  O   GLU A  1        7.912   0.854  -0.030  0.00  0.00    -0.249 OA
BRANCH  12  14
ATOM     14  OXT GLU A  1        6.661  -0.647  -0.830  0.00  0.00    -0.479 OA
ATOM     15  HXT GLU A  1        5.992  -1.293  -0.714  0.00  0.00    +0.295 HD
ENDBRANCH  12  14
ENDBRANCH  11  12
BRANCH  11  16
ATOM     16  CB  GLU A  1        7.239  -1.275   2.231  0.00  0.00    +0.045 C 
BRANCH  16  17
ATOM     17  CG  GLU A  1        6.703  -1.411   3.657  0.00  0.00    +0.123 C 
BRANCH  17  18
ATOM     18  CD  GLU A  1        7.493  -2.462   4.393  0.00  0.00    +0.305 C 
ATOM     19  OE1 GLU A  1        8.402  -3.048   3.829  0.00  0.00    -0.251 OA
BRANCH  18  20
ATOM     20  OE2 GLU A  1        7.225  -2.727   5.552  0.00  0.00    -0.481 OA
ATOM     21  HE2 GLU A  1        6.527  -2.277   5.986  0.00  0.00    +0.295 HD
ENDBRANCH  18  20
ENDBRANCH  17  18
ENDBRANCH  16  17
ENDBRANCH  11  16
ENDBRANCH   8  11
ENDBRANCH   3   7
BRANCH   6  22
ATOM     22  C   UNK A  0       -1.387  -1.507   0.601  0.00  0.00    +0.035 C 
BRANCH  22  23
ATOM     23  C   UNK A  0       -1.700  -1.713  -0.882  0.00  0.00    +0.005 C 
BRANCH  23  24
ATOM     24  C   UNK A  0       -3.148  -2.180  -1.038  0.00  0.00    +0.004 C 
BRANCH  24  25
ATOM     25  C   UNK A  0       -3.493  -2.284  -2.525  0.00  0.00    -0.004 C 
ATOM     26  C   UNK A  0       -2.705  -3.441  -3.178  0.00  0.00    +0.005 C 
ATOM     27  C   UNK A  0       -3.712  -3.982  -4.216  0.00  0.00    +0.019 C 
ATOM     28  C   UNK A  0       -5.076  -3.623  -3.671  0.00  0.00    +0.062 C 
ATOM     29  N   UNK A  0       -6.284  -4.081  -3.972  0.00  0.00    -0.286 NA
ATOM     30  H   UNK A  0       -6.379  -4.765  -4.653  0.00  0.00    +0.125 HD
ATOM     31  C   UNK A  0       -7.363  -3.610  -3.358  0.00  0.00    +0.193 C 
ATOM     32  N   UNK A  0       -7.281  -2.675  -2.423  0.00  0.00    -0.274 NA
ATOM     33  H   UNK A  0       -7.848  -1.890  -2.744  0.00  0.00    +0.126 HD
ATOM     34  C   UNK A  0       -6.101  -2.174  -2.071  0.00  0.00    +0.126 C 
ATOM     35  C   UNK A  0       -4.949  -2.647  -2.701  0.00  0.00    +0.040 C 
BRANCH  31  36
ATOM     36  N   UNK A  0       -8.606  -4.111  -3.702  0.00  0.00    -0.303 NA
ATOM     37  H   UNK A  0       -8.681  -4.796  -4.385  0.00  0.00    +0.121 HD
ATOM     38  H   UNK A  0       -9.403  -3.779  -3.260  0.00  0.00    +0.121 HD
ENDBRANCH  31  36
BRANCH  34  39
ATOM     39  N   UNK A  0       -6.016  -1.197  -1.092  0.00  0.00    -0.315 NA
ATOM     40  H   UNK A  0       -6.771  -1.031  -0.506  0.00  0.00    +0.120 HD
ATOM     41  H   UNK A  0       -5.202  -0.679  -0.993  0.00  0.00    +0.120 HD
ENDBRANCH  34  39
ENDBRANCH  24  25
ENDBRANCH  23  24
ENDBRANCH  22  23
ENDBRANCH   6  22
TORSDOF 14
