REMARK  Name = ZINC36295018
REMARK                            x       y       z     vdW  Elec       q    Type
REMARK                         _______ _______ _______ _____ _____    ______ ____
ROOT
ATOM      1  C   LIG    1       -0.018   1.503   0.010  0.00  0.00    +0.044 C 
ATOM      2  C   LIG    1        0.002  -0.004   0.002  0.00  0.00    -0.044 C 
ATOM      3  C   LIG    1        0.005  -0.654  -1.182  0.00  0.00    +0.058 C 
ATOM      4  C   LIG    1        0.030  -2.131  -1.169  0.00  0.00    +0.226 C 
ATOM      5  C   LIG    1        0.582  -2.763   0.087  0.00  0.00    +0.226 C 
ATOM      6  C   LIG    1        0.294  -2.041   1.343  0.00  0.00    +0.058 C 
ATOM      7  O   LIG    1        1.219  -3.796   0.066  0.00  0.00    -0.284 OA
ATOM      8  O   LIG    1       -0.366  -2.793  -2.106  0.00  0.00    -0.284 OA
ATOM      9  C   LIG    1        0.024  -0.720   1.273  0.00  0.00    -0.044 C 
ATOM     10  C   LIG    1       -0.271   0.034   2.544  0.00  0.00    +0.044 C 
ENDROOT
TORSDOF 0
