REMARK  Name = ZINC29043518
REMARK                            x       y       z     vdW  Elec       q    Type
REMARK                         _______ _______ _______ _____ _____    ______ ____
ROOT
ATOM      1  C   LIG    1        1.831   2.785   0.846  0.00  0.00    +0.233 C 
ATOM      2  N   LIG    1        0.944   3.780   1.046  0.00  0.00    -0.299 N 
ATOM      3  C   LIG    1        1.395   5.174   1.155  0.00  0.00    +0.108 C 
ATOM      4  C   LIG    1        0.848   5.769   2.457  0.00  0.00    +0.019 C 
ATOM      5  C   LIG    1       -0.672   5.596   2.493  0.00  0.00    +0.003 C 
ATOM      6  C   LIG    1       -1.018   4.105   2.460  0.00  0.00    +0.021 C 
ATOM      7  C   LIG    1       -0.492   3.492   1.159  0.00  0.00    +0.060 C 
ATOM      8  O   LIG    1        1.439   1.653   0.657  0.00  0.00    -0.274 OA
ENDROOT
BRANCH   1   9
ATOM      9  C   LIG    1        3.309   3.080   0.857  0.00  0.00    +0.200 C 
BRANCH   9  11
ATOM     10  C   LIG    1        4.362   1.037   1.934  0.00  0.00    +0.130 C 
ATOM     11  N   LIG    1        4.057   1.826   0.737  0.00  0.00    -0.324 N 
BRANCH  11  12
ATOM     12  C   LIG    1        4.480   1.382  -0.518  0.00  0.00    +0.031 A 
ATOM     13  C   LIG    1        4.281   2.177  -1.641  0.00  0.00    +0.024 A 
ATOM     14  C   LIG    1        4.706   1.739  -2.880  0.00  0.00    +0.023 A 
ATOM     15  C   LIG    1        5.319   0.505  -3.007  0.00  0.00    +0.059 A 
ATOM     16 CL   LIG    1        5.846  -0.045  -4.567  0.00  0.00    -0.082 Cl
ATOM     17  C   LIG    1        5.514  -0.292  -1.891  0.00  0.00    +0.061 A 
ATOM     18 CL   LIG    1        6.284  -1.839  -2.054  0.00  0.00    -0.082 Cl
ATOM     19  C   LIG    1        5.096   0.144  -0.647  0.00  0.00    +0.044 A 
ENDBRANCH  11  12
ENDBRANCH   9  11
ENDBRANCH   1   9
BRANCH   7  20
ATOM     20  C   LIG    1       -0.711   1.978   1.181  0.00  0.00    -0.056 C 
BRANCH  20  21
ATOM     21  N   LIG    1       -2.142   1.692   1.347  0.00  0.00    +0.381 N 
ATOM     22  H   LIG    1       -2.378   1.942   2.392  0.00  0.00    -0.082 HD
ATOM     23  C   LIG    1       -2.958   2.485   0.391  0.00  0.00    -0.079 C 
ATOM     24  C   LIG    1       -4.294   1.703   0.333  0.00  0.00    -0.020 C 
ATOM     25  C   LIG    1       -3.837   0.229   0.407  0.00  0.00    -0.020 C 
ATOM     26  C   LIG    1       -2.438   0.274   1.049  0.00  0.00    -0.079 C 
ENDBRANCH  20  21
ENDBRANCH   7  20
TORSDOF 5
