REMARK  Name = ZINC29467598
REMARK                            x       y       z     vdW  Elec       q    Type
REMARK                         _______ _______ _______ _____ _____    ______ ____
ROOT
ATOM      1  C   LIG    1        0.073  -3.782   0.345  0.00  0.00    +0.048 A 
ATOM      2  C   LIG    1        0.485  -5.059   0.091  0.00  0.00    +0.115 A 
ATOM      3  N   LIG    1        0.142  -5.688  -1.022  0.00  0.00    -0.238 NA
ATOM      4  C   LIG    1       -0.615  -5.123  -1.947  0.00  0.00    +0.144 A 
ATOM      5  C   LIG    1       -1.083  -3.813  -1.766  0.00  0.00    +0.128 A 
ATOM      6  N   LIG    1       -1.852  -2.969  -2.496  0.00  0.00    -0.232 NA
ATOM      7  C   LIG    1       -1.988  -1.841  -1.860  0.00  0.00    +0.200 A 
ATOM      8  N   LIG    1       -1.313  -1.889  -0.677  0.00  0.00    -0.326 N 
ATOM      9  C   LIG    1       -0.723  -3.128  -0.593  0.00  0.00    +0.074 A 
ENDROOT
BRANCH   4  10
ATOM     10  N   LIG    1       -0.947  -5.826  -3.098  0.00  0.00    -0.341 N 
ATOM     11  H   LIG    1       -0.580  -6.854  -3.240  0.00  0.00    +0.144 HD
ATOM     12  H   LIG    1       -1.577  -5.356  -3.868  0.00  0.00    +0.144 HD
ENDBRANCH   4  10
BRANCH   8  13
ATOM     13  C   LIG    1       -1.227  -0.817   0.317  0.00  0.00    +0.150 C 
BRANCH  13  14
ATOM     14  C   LIG    1        0.031  -0.020   0.089  0.00  0.00    -0.008 C 
ATOM     15  C   LIG    1       -0.033   1.282  -0.041  0.00  0.00    -0.002 C 
BRANCH  15  16
ATOM     16  C   LIG    1       -1.339   1.999   0.188  0.00  0.00    +0.183 C 
BRANCH  16  17
ATOM     17  O   LIG    1       -1.108   3.170   0.974  0.00  0.00    -0.391 OA
ATOM     18  H   LIG    1       -1.949   3.825   1.245  0.00  0.00    +0.210 HD
ENDBRANCH  16  17
ENDBRANCH  15  16
ENDBRANCH  13  14
ENDBRANCH   8  13
TORSDOF 5
