REMARK  Name = ZINC72105511
REMARK                            x       y       z     vdW  Elec       q    Type
REMARK                         _______ _______ _______ _____ _____    ______ ____
ROOT
ATOM      1  N   LIG    1        4.621  -2.224   0.313  0.00  0.00    -0.297 NA
ATOM      2  C   LIG    1        3.695  -3.117   1.020  0.00  0.00    +0.092 C 
ATOM      3  C   LIG    1        3.582  -2.679   2.484  0.00  0.00    +0.090 C 
ATOM      4  C   LIG    1        4.979  -2.608   3.066  0.00  0.00    +0.140 C 
ATOM      5  C   LIG    1        6.034  -1.858   2.281  0.00  0.00    +0.081 C 
ATOM      6  O   LIG    1        5.242  -3.133   4.122  0.00  0.00    -0.297 OA
ATOM      7  C   LIG    1        5.990  -2.348   0.829  0.00  0.00    +0.096 C 
ENDROOT
BRANCH   1   8
ATOM      8  C   LIG    1        4.581  -2.463  -1.136  0.00  0.00    +0.119 C 
BRANCH   8  12
ATOM      9  C   LIG    1        0.729  -1.405  -2.650  0.00  0.00    +0.000 A 
ATOM     10  C   LIG    1        1.735  -0.459  -2.599  0.00  0.00    +0.000 A 
ATOM     11  C   LIG    1        2.982  -0.801  -2.109  0.00  0.00    +0.005 A 
ATOM     12  C   LIG    1        3.222  -2.090  -1.669  0.00  0.00    -0.033 A 
ATOM     13  C   LIG    1        2.215  -3.035  -1.719  0.00  0.00    +0.005 A 
ATOM     14  C   LIG    1        0.969  -2.694  -2.210  0.00  0.00    +0.000 A 
ENDBRANCH   8  12
ENDBRANCH   1   8
BRANCH   5  15
ATOM     15  C   LIG    1        7.415  -2.133   2.878  0.00  0.00    +0.060 C 
BRANCH  15  16
ATOM     16  C   LIG    1        7.442  -1.676   4.314  0.00  0.00    -0.039 A 
ATOM     17  C   LIG    1        7.031  -0.397   4.639  0.00  0.00    +0.004 A 
ATOM     18  C   LIG    1        7.055   0.023   5.956  0.00  0.00    +0.000 A 
ATOM     19  C   LIG    1        7.490  -0.836   6.947  0.00  0.00    +0.000 A 
ATOM     20  C   LIG    1        7.901  -2.115   6.622  0.00  0.00    +0.000 A 
ATOM     21  C   LIG    1        7.872  -2.537   5.306  0.00  0.00    +0.004 A 
ENDBRANCH  15  16
BRANCH  15  22
ATOM     22  C   LIG    1        8.460  -1.385   2.092  0.00  0.00    -0.039 A 
ATOM     23  C   LIG    1        8.321  -0.027   1.875  0.00  0.00    +0.004 A 
ATOM     24  C   LIG    1        9.280   0.660   1.155  0.00  0.00    +0.000 A 
ATOM     25  C   LIG    1       10.379  -0.011   0.652  0.00  0.00    +0.000 A 
ATOM     26  C   LIG    1       10.519  -1.369   0.870  0.00  0.00    +0.000 A 
ATOM     27  C   LIG    1        9.562  -2.055   1.594  0.00  0.00    +0.004 A 
ENDBRANCH  15  22
ENDBRANCH   5  15
TORSDOF 5
