REMARK  Name = ZINC22309483
REMARK                            x       y       z     vdW  Elec       q    Type
REMARK                         _______ _______ _______ _____ _____    ______ ____
ROOT
ATOM      1  C   LIG    1       -0.017   1.385   0.010  0.00  0.00    +0.021 A 
ATOM      2  C   LIG    1        1.151   2.095   0.002  0.00  0.00    +0.012 A 
ATOM      3  C   LIG    1        2.372   1.420  -0.013  0.00  0.00    +0.013 A 
ATOM      4  C   LIG    1        2.398   0.012  -0.021  0.00  0.00    +0.049 A 
ATOM      5  N   LIG    1        3.607  -0.647  -0.037  0.00  0.00    -0.349 N 
ATOM      6  H   LIG    1        3.617  -1.617  -0.042  0.00  0.00    +0.166 HD
ATOM      7  CA  LIG    1        4.796   0.035  -0.045  0.00  0.00    +0.126 A 
ATOM      8  C   LIG    1        4.851   1.390  -0.039  0.00  0.00    +0.049 A 
ATOM      9  C   LIG    1        1.198  -0.692  -0.013  0.00  0.00    +0.046 A 
ATOM     10  C   LIG    1        3.650   2.150  -0.022  0.00  0.00    +0.030 A 
ATOM     11  S   LIG    1        3.689   3.861  -0.012  0.00  0.00    -0.051 S 
ATOM     12  C   LIG    1        0.002  -0.004   0.002  0.00  0.00    +0.043 A 
ATOM     13 CL   LIG    1       -1.494  -0.884   0.011  0.00  0.00    -0.083 Cl
ENDROOT
BRANCH   7  14
ATOM     14  C   LIG    1        6.060  -0.732  -0.062  0.00  0.00    +0.353 C 
ATOM     15  O   LIG    1        7.132  -0.144  -0.070  0.00  0.00    -0.243 OA
BRANCH  14  16
ATOM     16  OXT LIG    1        6.033  -1.955  -0.068  0.00  0.00    -0.476 OA
ATOM     17  HXT LIG    1        5.211  -2.405  -0.062  0.00  0.00    +0.295 HD
ENDBRANCH  14  16
ENDBRANCH   7  14
TORSDOF 2
