REMARK  Name = ZINC35793138
REMARK                            x       y       z     vdW  Elec       q    Type
REMARK                         _______ _______ _______ _____ _____    ______ ____
ROOT
ATOM      1  C   LIG    1       -1.717   0.902  -0.327  0.00  0.00    +0.047 C 
ATOM      2  C   LIG    1       -0.815  -0.293  -0.160  0.00  0.00    -0.006 A 
ATOM      3  C   LIG    1       -0.070  -0.759  -1.244  0.00  0.00    +0.007 A 
ATOM      4  C   LIG    1        0.764  -1.863  -1.089  0.00  0.00    +0.023 A 
ATOM      5  C   LIG    1        0.851  -2.497   0.149  0.00  0.00    +0.040 A 
ATOM      6  C   LIG    1        0.102  -2.022   1.227  0.00  0.00    +0.051 A 
ATOM      7  C   LIG    1       -0.722  -0.922   1.068  0.00  0.00    +0.128 A 
ATOM      8  F   LIG    1       -1.441  -0.463   2.115  0.00  0.00    -0.205 F 
ENDROOT
BRANCH   3   9
ATOM      9  C   LIG    1       -0.167  -0.081  -2.558  0.00  0.00    +0.071 A 
ATOM     10  C   LIG    1       -0.361  -0.840  -3.712  0.00  0.00    +0.029 A 
ATOM     11  C   LIG    1       -0.451  -0.201  -4.933  0.00  0.00    +0.016 A 
ATOM     12  C   LIG    1       -0.342   1.197  -4.962  0.00  0.00    +0.055 A 
ATOM     13  C   LIG    1       -0.147   1.888  -3.764  0.00  0.00    +0.124 A 
ATOM     14  N   LIG    1       -0.073   1.242  -2.621  0.00  0.00    -0.254 NA
BRANCH  12  15
ATOM     15  C   LIG    1       -0.430   1.928  -6.243  0.00  0.00    +0.246 C 
ATOM     16  N   LIG    1       -0.324   3.271  -6.260  0.00  0.00    -0.311 N 
ATOM     17  H   LIG    1       -0.189   3.758  -5.432  0.00  0.00    +0.149 HD
ATOM     18  O   LIG    1       -0.599   1.317  -7.280  0.00  0.00    -0.270 OA
BRANCH  16  19
ATOM     19  C   LIG    1       -0.412   3.996  -7.530  0.00  0.00    +0.110 C 
BRANCH  19  20
ATOM     20  C   LIG    1       -0.261   5.497  -7.272  0.00  0.00    -0.022 C 
ATOM     21  C   LIG    1       -1.377   5.968  -6.338  0.00  0.00    +0.012 C 
ATOM     22  C   LIG    1       -0.352   6.254  -8.599  0.00  0.00    +0.012 C 
ATOM     23  C   LIG    1        1.098   5.769  -6.623  0.00  0.00    +0.012 C 
ENDBRANCH  19  20
ENDBRANCH  16  19
ENDBRANCH  12  15
ENDBRANCH   3   9
BRANCH   5  24
ATOM     24  C   LIG    1        1.735  -3.670   0.320  0.00  0.00    +0.244 C 
ATOM     25  N   LIG    1        1.817  -4.282   1.518  0.00  0.00    -0.308 N 
ATOM     26  H   LIG    1        1.297  -3.953   2.268  0.00  0.00    +0.149 HD
ATOM     27  O   LIG    1        2.386  -4.082  -0.619  0.00  0.00    -0.270 OA
BRANCH  25  28
ATOM     28  C   LIG    1        2.693  -5.444   1.688  0.00  0.00    +0.073 C 
ATOM     29  C   LIG    1        2.140  -6.636   2.472  0.00  0.00    +0.024 C 
ATOM     30  C   LIG    1        3.210  -5.739   3.097  0.00  0.00    +0.024 C 
ENDBRANCH  25  28
ENDBRANCH   5  24
TORSDOF 6
