REMARK  Name = ZINC53297214
REMARK                            x       y       z     vdW  Elec       q    Type
REMARK                         _______ _______ _______ _____ _____    ______ ____
ROOT
ATOM      1  C   LIG    1       -2.046  -0.659   1.212  0.00  0.00    +0.137 A 
ATOM      2  C   LIG    1       -3.356  -1.148   1.224  0.00  0.00    +0.077 A 
ATOM      3  C   LIG    1       -4.069  -1.312   2.417  0.00  0.00    +0.087 A 
ATOM      4  N   LIG    1       -3.380  -0.954   3.579  0.00  0.00    -0.192 N 
ATOM      5  C   LIG    1       -2.101  -0.480   3.518  0.00  0.00    +0.204 A 
ATOM      6  C   LIG    1       -1.727  -0.227   4.828  0.00  0.00    +0.249 A 
ATOM      7  N   LIG    1       -2.743  -0.539   5.623  0.00  0.00    -0.108 NA
ATOM      8  N   LIG    1       -3.739  -0.972   4.931  0.00  0.00    -0.057 NA
ATOM      9  C   LIG    1       -5.366  -1.810   2.286  0.00  0.00    +0.036 A 
ATOM     10  C   LIG    1       -5.863  -2.102   1.063  0.00  0.00    +0.048 A 
ATOM     11  S   LIG    1       -4.504  -1.686  -0.017  0.00  0.00    -0.092 S 
ATOM     12  N   LIG    1       -1.451  -0.343   2.350  0.00  0.00    -0.209 NA
ENDROOT
BRANCH   6  13
ATOM     13  S   LIG    1       -0.166   0.402   5.351  0.00  0.00    +0.047 S 
ATOM     14  O   LIG    1        0.767   0.073   4.331  0.00  0.00    -0.163 OA
ATOM     15  O   LIG    1        0.006  -0.007   6.701  0.00  0.00    -0.163 OA
BRANCH  13  16
ATOM     16  C   LIG    1       -0.292   2.159   5.370  0.00  0.00    +0.095 A 
ATOM     17  C   LIG    1        0.019   2.887   4.236  0.00  0.00    +0.027 A 
ATOM     18  C   LIG    1       -0.080   4.266   4.251  0.00  0.00    +0.002 A 
ATOM     19  C   LIG    1       -0.490   4.917   5.399  0.00  0.00    +0.000 A 
ATOM     20  C   LIG    1       -0.802   4.189   6.533  0.00  0.00    +0.002 A 
ATOM     21  C   LIG    1       -0.707   2.810   6.517  0.00  0.00    +0.027 A 
ENDBRANCH  13  16
ENDBRANCH   6  13
BRANCH   1  22
ATOM     22  N   LIG    1       -1.372  -0.511   0.012  0.00  0.00    -0.325 N 
ATOM     23  H   LIG    1       -1.810  -0.743  -0.822  0.00  0.00    +0.148 HD
BRANCH  22  25
ATOM     24  C   LIG    1       -0.019   1.526   0.010  0.00  0.00    +0.028 C 
ATOM     25  C   LIG    1        0.002  -0.004   0.002  0.00  0.00    +0.075 C 
BRANCH  25  26
ATOM     26  C   LIG    1        0.718  -0.497  -1.257  0.00  0.00    -0.010 C 
ATOM     27  C   LIG    1       -0.022   0.009  -2.496  0.00  0.00    +0.012 C 
ATOM     28  C   LIG    1        0.694  -0.484  -3.755  0.00  0.00    -0.010 C 
ATOM     29  C   LIG    1        2.130   0.045  -3.766  0.00  0.00    +0.007 C 
ATOM     30  C   LIG    1        2.870  -0.461  -2.526  0.00  0.00    -0.010 C 
ATOM     31  C   LIG    1        2.890  -1.991  -2.535  0.00  0.00    +0.007 C 
ATOM     32  C   LIG    1        1.455  -2.521  -2.524  0.00  0.00    -0.010 C 
ATOM     33  C   LIG    1        0.715  -2.014  -3.764  0.00  0.00    +0.007 C 
ATOM     34  C   LIG    1        0.739  -2.027  -1.265  0.00  0.00    +0.012 C 
ATOM     35  C   LIG    1        2.154   0.032  -1.268  0.00  0.00    +0.012 C 
ENDBRANCH  25  26
ENDBRANCH  22  25
ENDBRANCH   1  22
TORSDOF 5
