REMARK  Name = ZINC00020440
REMARK                            x       y       z     vdW  Elec       q    Type
REMARK                         _______ _______ _______ _____ _____    ______ ____
ROOT
ATOM      1  C   LIG    1       -0.013   1.086   0.008  0.00  0.00    +0.086 C 
ATOM      2  C   LIG    1       -0.718   1.572   1.248  0.00  0.00    +0.107 A 
ATOM      3  N   LIG    1        0.022   1.791   2.367  0.00  0.00    -0.311 N 
ATOM      4  C   LIG    1       -0.565   2.228   3.506  0.00  0.00    +0.259 A 
ATOM      5  C   LIG    1       -2.018   2.451   3.476  0.00  0.00    +0.068 A 
ATOM      6  C   LIG    1       -2.717   2.901   4.595  0.00  0.00    +0.015 A 
ATOM      7  C   LIG    1       -4.079   3.095   4.514  0.00  0.00    +0.004 A 
ATOM      8  C   LIG    1       -4.760   2.847   3.330  0.00  0.00    +0.048 A 
ATOM      9  C   LIG    1       -4.088   2.401   2.209  0.00  0.00    +0.146 A 
ATOM     10  C   LIG    1       -2.703   2.197   2.268  0.00  0.00    +0.120 A 
ATOM     11  O   LIG    1        0.085   2.429   4.515  0.00  0.00    -0.267 OA
ATOM     12  H   LIG    1        1.008   1.628   2.349  0.00  0.00    +0.170 HD
ATOM     13  N   LIG    1       -2.001   1.765   1.191  0.00  0.00    -0.230 NA
ENDROOT
BRANCH   9  14
ATOM     14  O   LIG    1       -4.766   2.162   1.056  0.00  0.00    -0.493 OA
ATOM     15  C   LIG    1       -6.176   2.393   1.072  0.00  0.00    +0.277 C 
ENDBRANCH   9  14
TORSDOF 1
