REMARK  Name = ZINC00006369
REMARK                            x       y       z     vdW  Elec       q    Type
REMARK                         _______ _______ _______ _____ _____    ______ ____
ROOT
ATOM      1  C   LIG    1        2.946   3.857  -0.005  0.00  0.00    +0.039 A 
ATOM      2  C   LIG    1        1.599   4.144   0.009  0.00  0.00    +0.013 A 
ATOM      3  C   LIG    1        0.672   3.104   0.012  0.00  0.00    +0.007 A 
ATOM      4  C   LIG    1        1.110   1.769   0.001  0.00  0.00    +0.050 A 
ATOM      5  N   LIG    1       -0.011   0.966   0.007  0.00  0.00    -0.360 N 
ATOM      6  C   LIG    1       -1.140   1.729   0.016  0.00  0.00    +0.091 A 
ATOM      7  H   LIG    1        0.002  -0.004   0.002  0.00  0.00    +0.165 HD
ATOM      8  C   LIG    1        2.474   1.498  -0.013  0.00  0.00    +0.064 A 
ATOM      9  C   LIG    1       -0.801   3.048   0.026  0.00  0.00    +0.000 A 
ATOM     10  C   LIG    1        3.382   2.538  -0.017  0.00  0.00    +0.125 A 
ATOM     11  F   LIG    1        4.706   2.270  -0.032  0.00  0.00    -0.205 F 
ENDROOT
BRANCH   9  12
ATOM     12  C   LIG    1       -1.724   4.192   0.042  0.00  0.00    +0.010 C 
ATOM     13  C   LIG    1       -3.054   3.984   0.053  0.00  0.00    +0.008 C 
BRANCH  13  14
ATOM     14  C   LIG    1       -3.978   5.130   0.068  0.00  0.00    -0.022 A 
ATOM     15  C   LIG    1       -3.494   6.446   0.077  0.00  0.00    +0.027 A 
ATOM     16  C   LIG    1       -4.396   7.488   0.087  0.00  0.00    +0.111 A 
ATOM     17  N   LIG    1       -5.696   7.260   0.099  0.00  0.00    -0.263 NA
ATOM     18  C   LIG    1       -6.194   6.037   0.095  0.00  0.00    +0.111 A 
ATOM     19  C   LIG    1       -5.367   4.936   0.081  0.00  0.00    +0.027 A 
ENDBRANCH  13  14
ENDBRANCH   9  12
TORSDOF 2
