REMARK  Name = ZINC34321506
REMARK                            x       y       z     vdW  Elec       q    Type
REMARK                         _______ _______ _______ _____ _____    ______ ____
ROOT
ATOM      1  C   LIG    1        0.005   1.350   0.368  0.00  0.00    +0.002 A 
ATOM      2  C   LIG    1        1.166   2.081   0.152  0.00  0.00    +0.002 A 
ATOM      3  C   LIG    1        2.367   1.438  -0.060  0.00  0.00    +0.028 A 
ATOM      4  C   LIG    1        2.415   0.051  -0.058  0.00  0.00    +0.069 A 
ATOM      5  C   LIG    1        1.239  -0.690   0.160  0.00  0.00    +0.090 A 
ATOM      6  N   LIG    1        1.576  -2.000   0.109  0.00  0.00    -0.226 NA
ATOM      7  C   LIG    1        2.861  -2.116  -0.122  0.00  0.00    +0.167 A 
ATOM      8  N   LIG    1        3.425  -0.874  -0.234  0.00  0.00    -0.319 N 
ATOM      9  C   LIG    1        0.032  -0.015   0.373  0.00  0.00    +0.030 A 
ENDROOT
BRANCH   7  10
ATOM     10  C   LIG    1        3.591  -3.397  -0.244  0.00  0.00    +0.190 A 
ATOM     11  C   LIG    1        2.988  -4.735  -0.240  0.00  0.00    +0.191 A 
ATOM     12  N   LIG    1        3.943  -5.615  -0.367  0.00  0.00    -0.033 NA
ATOM     13  O   LIG    1        5.172  -4.916  -0.458  0.00  0.00    -0.240 OA
ATOM     14  N   LIG    1        4.885  -3.531  -0.380  0.00  0.00    -0.044 NA
BRANCH  11  15
ATOM     15  N   LIG    1        1.634  -5.017  -0.120  0.00  0.00    -0.339 N 
ATOM     16  H   LIG    1        1.327  -5.937  -0.127  0.00  0.00    +0.144 HD
ATOM     17  H   LIG    1        0.994  -4.293  -0.029  0.00  0.00    +0.144 HD
ENDBRANCH  11  15
ENDBRANCH   7  10
BRANCH   8  18
ATOM     18  C   LIG    1        4.837  -0.580  -0.492  0.00  0.00    +0.089 C 
ATOM     19  C   LIG    1        5.156   0.481  -1.547  0.00  0.00    +0.027 C 
ATOM     20  C   LIG    1        5.409  -0.998  -1.848  0.00  0.00    +0.027 C 
ENDBRANCH   8  18
TORSDOF 3
