REMARK  Name = ZINC25965899
REMARK                            x       y       z     vdW  Elec       q    Type
REMARK                         _______ _______ _______ _____ _____    ______ ____
ROOT
ATOM      1  C   LIG    1        0.301   7.475  -0.598  0.00  0.00    +0.002 A 
ATOM      2  C   LIG    1       -0.319   6.258  -0.741  0.00  0.00    +0.010 A 
ATOM      3  C   LIG    1        0.442   5.122  -0.450  0.00  0.00    +0.004 A 
ATOM      4  C   LIG    1        0.148   3.707  -0.483  0.00  0.00    -0.017 A 
ATOM      5  C   LIG    1        1.269   3.056  -0.098  0.00  0.00    +0.034 A 
ATOM      6  C   LIG    1        1.355   1.551  -0.003  0.00  0.00    +0.134 C 
ATOM      7  N   LIG    1       -0.012   1.005   0.008  0.00  0.00    -0.310 NA
ATOM      8  H   LIG    1        0.031  -0.091  -0.076  0.00  0.00    +0.122 HD
ATOM      9  C   LIG    1       -0.806   1.527  -1.113  0.00  0.00    +0.086 C 
ATOM     10  N   LIG    1        2.258   3.961   0.176  0.00  0.00    -0.356 N 
ATOM     11  H   LIG    1        3.248   3.611   0.505  0.00  0.00    +0.166 HD
ATOM     12  C   LIG    1       -1.132   3.006  -0.863  0.00  0.00    +0.052 C 
ATOM     13  C   LIG    1        1.793   5.229  -0.027  0.00  0.00    +0.061 A 
ATOM     14  C   LIG    1        2.396   6.478   0.109  0.00  0.00    +0.042 A 
ATOM     15 BR   LIG    1        4.193   6.652   0.671  0.00  0.00    -0.048 Br
ATOM     16  C   LIG    1        1.619   7.586  -0.185  0.00  0.00    +0.017 A 
ENDROOT
TORSDOF 0
