REMARK  Name = ZINC19479622
REMARK                            x       y       z     vdW  Elec       q    Type
REMARK                         _______ _______ _______ _____ _____    ______ ____
ROOT
ATOM      1  C   LIG    1        5.981  -0.737  -0.058  0.00  0.00    -0.010 A 
ATOM      2  C   LIG    1        6.523  -1.143  -1.264  0.00  0.00    +0.007 A 
ATOM      3  C   LIG    1        7.632  -1.969  -1.287  0.00  0.00    +0.001 A 
ATOM      4  C   LIG    1        8.205  -2.393  -0.105  0.00  0.00    +0.016 A 
ATOM      5  C   LIG    1        7.662  -1.987   1.114  0.00  0.00    +0.061 A 
ATOM      6  C   LIG    1        6.547  -1.149   1.130  0.00  0.00    +0.022 A 
ENDROOT
BRANCH   5   7
ATOM      7  C   LIG    1        8.272  -2.438   2.386  0.00  0.00    +0.266 C 
ATOM      8  N   LIG    1        7.763  -2.058   3.522  0.00  0.00    -0.288 N 
ATOM      9  H   LIG    1        6.881  -1.401   3.538  0.00  0.00    +0.301 HD
ATOM     10  H   LIG    1        8.216  -2.393   4.467  0.00  0.00    +0.301 HD
BRANCH   7  11
ATOM     11  N   LIG    1        9.377  -3.261   2.366  0.00  0.00    -0.250 N 
ATOM     12  H   LIG    1        9.807  -3.582   1.406  0.00  0.00    +0.288 HD
ATOM     13  H   LIG    1        9.830  -3.596   3.311  0.00  0.00    +0.288 HD
ENDBRANCH   7  11
ENDBRANCH   5   7
BRANCH   1  14
ATOM     14  C   LIG    1        4.772   0.164  -0.042  0.00  0.00    +0.264 C 
BRANCH  14  15
ATOM     15  O   LIG    1        3.586  -0.632  -0.035  0.00  0.00    -0.487 OA
BRANCH  15  19
ATOM     16  C   LIG    1       -0.017   1.378   0.010  0.00  0.00    +0.000 A 
ATOM     17  C   LIG    1        1.170   2.088   0.002  0.00  0.00    +0.004 A 
ATOM     18  C   LIG    1        2.377   1.417  -0.013  0.00  0.00    +0.045 A 
ATOM     19  C   LIG    1        2.399   0.030  -0.021  0.00  0.00    +0.121 A 
ATOM     20  C   LIG    1        1.207  -0.680  -0.013  0.00  0.00    +0.045 A 
ATOM     21  C   LIG    1        0.002  -0.004   0.002  0.00  0.00    +0.004 A 
ENDBRANCH  15  19
ENDBRANCH  14  15
ENDBRANCH   1  14
TORSDOF 5
