REMARK  Name = ZINC40917261
REMARK                            x       y       z     vdW  Elec       q    Type
REMARK                         _______ _______ _______ _____ _____    ______ ____
ROOT
ATOM      1  N   LIG    1        2.460  -4.100  -6.873  0.00  0.00    -0.343 N 
ATOM      2  H   LIG    1        1.560  -3.747  -6.786  0.00  0.00    +0.146 HD
ENDROOT
BRANCH   1   3
ATOM      3  C   LIG    1        2.923  -4.485  -8.091  0.00  0.00    +0.081 C 
ATOM      4  C   LIG    1        2.162  -4.267  -9.218  0.00  0.00    +0.058 C 
ATOM      5  C   LIG    1        2.546  -4.850 -10.520  0.00  0.00    +0.001 A 
ATOM      6  C   LIG    1        3.682  -5.637 -10.662  0.00  0.00    +0.023 A 
ATOM      7  C   LIG    1        3.998  -6.160 -11.900  0.00  0.00    +0.014 A 
ATOM      8  I   LIG    1        5.710  -7.348 -12.121  0.00  0.00    -0.044 I 
ATOM      9  C   LIG    1        3.191  -5.905 -13.000  0.00  0.00    +0.015 A 
ATOM     10  C   LIG    1        2.061  -5.126 -12.878  0.00  0.00    +0.014 A 
ATOM     11  C   LIG    1        1.723  -4.589 -11.636  0.00  0.00    +0.045 A 
ATOM     12  C   LIG    1        0.527  -3.755 -11.462  0.00  0.00    +0.251 C 
ATOM     13  N   LIG    1        0.207  -3.241 -10.264  0.00  0.00    -0.248 N 
ATOM     14  H   LIG    1       -0.592  -2.695 -10.191  0.00  0.00    +0.158 HD
ATOM     15  O   LIG    1       -0.187  -3.527 -12.421  0.00  0.00    -0.270 OA
ATOM     16  C   LIG    1        0.942  -3.453  -9.160  0.00  0.00    +0.252 C 
ATOM     17  O   LIG    1        0.594  -2.963  -8.101  0.00  0.00    -0.270 OA
ENDBRANCH   1   3
BRANCH   1  18
ATOM     18  C   LIG    1        3.318  -4.217  -5.692  0.00  0.00    +0.154 C 
BRANCH  18  22
ATOM     19  C   LIG    1        1.205  -2.759  -2.290  0.00  0.00    +0.183 A 
ATOM     20  C   LIG    1        1.540  -1.941  -3.317  0.00  0.00    +0.133 A 
ATOM     21  N   LIG    1        2.215  -2.424  -4.393  0.00  0.00    -0.360 N 
ATOM     22  C   LIG    1        2.572  -3.727  -4.478  0.00  0.00    +0.037 A 
ATOM     23  C   LIG    1        2.268  -4.594  -3.486  0.00  0.00    +0.077 A 
ATOM     24  H   LIG    1        2.445  -1.821  -5.118  0.00  0.00    +0.165 HD
ATOM     25  C   LIG    1        1.572  -4.127  -2.348  0.00  0.00    +0.223 A 
ATOM     26  O   LIG    1        1.289  -4.889  -1.434  0.00  0.00    -0.284 OA
BRANCH  19  27
ATOM     27  O   LIG    1        0.530  -2.272  -1.214  0.00  0.00    -0.487 OA
BRANCH  27  28
ATOM     28  C   LIG    1        0.197  -0.882  -1.231  0.00  0.00    +0.229 C 
BRANCH  28  30
ATOM     29  C   LIG    1       -0.911   0.966   0.033  0.00  0.00    +0.007 C 
ATOM     30  C   LIG    1       -0.554  -0.521   0.052  0.00  0.00    +0.038 C 
ENDBRANCH  28  30
ENDBRANCH  27  28
ENDBRANCH  19  27
ENDBRANCH  18  22
ENDBRANCH   1  18
TORSDOF 6
