REMARK  Name = ZINC29462723
REMARK                            x       y       z     vdW  Elec       q    Type
REMARK                         _______ _______ _______ _____ _____    ______ ____
ROOT
ATOM      1  C   LIG    1        0.495   5.635   0.026  0.00  0.00    -0.041 A 
ATOM      2  C   LIG    1       -0.892   5.573   0.039  0.00  0.00    +0.006 A 
ATOM      3  C   LIG    1       -1.541   4.358   0.040  0.00  0.00    +0.027 A 
ATOM      4  C   LIG    1       -0.801   3.180   0.027  0.00  0.00    +0.049 A 
ATOM      5  C   LIG    1        0.604   3.248   0.014  0.00  0.00    +0.003 A 
ATOM      6  C   LIG    1        1.076   1.861   0.002  0.00  0.00    -0.024 A 
ATOM      7  C   LIG    1       -0.013   1.076   0.008  0.00  0.00    +0.090 A 
ATOM      8  N   LIG    1       -1.143   1.846   0.017  0.00  0.00    -0.349 N 
ATOM      9  C   LIG    1       -2.514   1.329   0.020  0.00  0.00    +0.149 C 
ATOM     10  C   LIG    1        1.241   4.490   0.014  0.00  0.00    +0.014 A 
ENDROOT
BRANCH   1  12
ATOM     11  C   LIG    1        0.133   8.088   0.042  0.00  0.00    +0.015 C 
ATOM     12  C   LIG    1        1.183   6.976   0.026  0.00  0.00    -0.013 C 
ATOM     13  C   LIG    1        2.046   7.106  -1.231  0.00  0.00    +0.015 C 
ATOM     14  C   LIG    1        2.070   7.094   1.268  0.00  0.00    +0.015 C 
ENDBRANCH   1  12
BRANCH   6  15
ATOM     15  C   LIG    1        2.512   1.404  -0.014  0.00  0.00    +0.018 C 
BRANCH  15  16
ATOM     16  C   LIG    1        3.049   1.361   1.418  0.00  0.00    -0.082 C 
BRANCH  16  17
ATOM     17  N   LIG    1        4.449   0.914   1.403  0.00  0.00    +0.378 N 
ATOM     18  H   LIG    1        4.508  -0.090   0.958  0.00  0.00    -0.090 HD
ATOM     19  H   LIG    1        5.050   1.616   0.806  0.00  0.00    -0.090 HD
ATOM     20  H   LIG    1        4.835   0.883   2.432  0.00  0.00    -0.090 HD
ENDBRANCH  16  17
ENDBRANCH  15  16
ENDBRANCH   6  15
TORSDOF 4
