REMARK  Name = ZINC13781233
REMARK                            x       y       z     vdW  Elec       q    Type
REMARK                         _______ _______ _______ _____ _____    ______ ____
ROOT
ATOM      1  C   LIG    1        3.626   3.145   0.405  0.00  0.00    +0.078 C 
ATOM      2  C   LIG    1        3.638   1.864  -0.438  0.00  0.00    +0.027 C 
ATOM      3  C   LIG    1        2.465   0.989  -0.002  0.00  0.00    +0.037 C 
ATOM      4  C   LIG    1        1.184   1.781   0.000  0.00  0.00    -0.044 A 
ATOM      5  C   LIG    1       -0.013   1.076   0.008  0.00  0.00    +0.004 A 
ATOM      6  C   LIG    1       -1.220   1.744   0.017  0.00  0.00    +0.000 A 
ATOM      7  C   LIG    1       -1.239   3.126   0.030  0.00  0.00    +0.000 A 
ATOM      8  C   LIG    1       -0.052   3.828   0.020  0.00  0.00    +0.004 A 
ATOM      9  C   LIG    1        1.164   3.158   0.003  0.00  0.00    -0.042 A 
ATOM     10  C   LIG    1        2.422   3.986  -0.016  0.00  0.00    +0.057 C 
ENDROOT
BRANCH   1  13
ATOM     11  C   LIG    1        6.575   5.541   0.868  0.00  0.00    +0.109 C 
ATOM     12  C   LIG    1        5.305   4.765   1.106  0.00  0.00    +0.210 C 
ATOM     13  N   LIG    1        4.860   3.900   0.173  0.00  0.00    -0.312 N 
ATOM     14  H   LIG    1        5.356   3.777  -0.651  0.00  0.00    +0.149 HD
ATOM     15  O   LIG    1        4.684   4.919   2.136  0.00  0.00    -0.276 OA
ENDBRANCH   1  13
TORSDOF 1
