REMARK  Name = ZINC19536858
REMARK                            x       y       z     vdW  Elec       q    Type
REMARK                         _______ _______ _______ _____ _____    ______ ____
ROOT
ATOM      1  C   LIG    1        1.661  -2.374   2.297  0.00  0.00    +0.069 C 
ATOM      2  C   LIG    1        1.505  -3.709   2.635  0.00  0.00    +0.049 C 
ATOM      3  C   LIG    1        0.820  -4.633   1.662  0.00  0.00    +0.066 C 
ATOM      4  N   LIG    1        1.937  -4.195   3.782  0.00  0.00    -0.256 NA
ATOM      5  C   LIG    1        2.550  -3.503   4.723  0.00  0.00    +0.049 C 
ATOM      6  C   LIG    1        2.983  -4.208   5.982  0.00  0.00    +0.066 C 
ATOM      7  C   LIG    1        2.809  -2.148   4.589  0.00  0.00    +0.065 C 
ATOM      8  C   LIG    1        3.457  -1.434   5.590  0.00  0.00    +0.285 C 
ATOM      9  C   LIG    1        2.361  -1.477   3.303  0.00  0.00    +0.096 C 
ENDROOT
BRANCH   9  10
ATOM     10  C   LIG    1        3.571  -0.875   2.635  0.00  0.00    -0.033 A 
ATOM     11  C   LIG    1        4.565  -1.696   2.136  0.00  0.00    +0.005 A 
ATOM     12  C   LIG    1        5.674  -1.144   1.523  0.00  0.00    +0.003 A 
ATOM     13  C   LIG    1        5.790   0.229   1.410  0.00  0.00    +0.032 A 
ATOM     14  C   LIG    1        4.796   1.049   1.909  0.00  0.00    +0.122 A 
ATOM     15  C   LIG    1        3.684   0.497   2.517  0.00  0.00    +0.037 A 
BRANCH  14  16
ATOM     16  N   LIG    1        4.920   2.519   1.788  0.00  0.00    +0.006 N 
ATOM     17  O   LIG    1        5.891   3.002   1.253  0.00  0.00    -0.130 OA
BRANCH  16  18
ATOM     18  O   LIG    1        4.050   3.237   2.224  0.00  0.00    -0.396 OA
ATOM     19  H   LIG    1        3.298   2.863   2.638  0.00  0.00    +0.329 HD
ENDBRANCH  16  18
ENDBRANCH  14  16
ENDBRANCH   9  10
BRANCH   1  20
ATOM     20  C   LIG    1        1.201  -1.877   1.083  0.00  0.00    +0.338 C 
ATOM     21  O   LIG    1        0.715  -2.709   0.163  0.00  0.00    -0.245 OA
BRANCH  20  22
ATOM     22  O   LIG    1        1.245  -0.552   0.837  0.00  0.00    -0.462 OA
BRANCH  22  24
ATOM     23  C   LIG    1        0.886   1.410  -0.528  0.00  0.00    +0.048 C 
ATOM     24  C   LIG    1        0.755  -0.111  -0.431  0.00  0.00    +0.229 C 
ENDBRANCH  22  24
ENDBRANCH  20  22
ENDBRANCH   1  20
BRANCH   8  25
ATOM     25  O   LIG    1        3.692  -0.131   5.433  0.00  0.00    -0.480 OA
ATOM     26  H   LIG    1        3.420   0.303   4.648  0.00  0.00    +0.295 HD
ENDBRANCH   8  25
BRANCH   8  27
ATOM     27  O   LIG    1        3.847  -2.058   6.719  0.00  0.00    -0.464 OA
BRANCH  27  28
ATOM     28  C   LIG    1        4.507  -1.262   7.706  0.00  0.00    +0.229 C 
ATOM     29  C   LIG    1        4.872  -2.137   8.906  0.00  0.00    +0.048 C 
ENDBRANCH  27  28
ENDBRANCH   8  27
TORSDOF 9
