REMARK  Name = ZINC45339646
REMARK                            x       y       z     vdW  Elec       q    Type
REMARK                         _______ _______ _______ _____ _____    ______ ____
ROOT
ATOM      1  C   LIG    1        0.853  -0.425  -1.535  0.00  0.00    -0.011 C 
ATOM      2  C   LIG    1        2.377  -0.148  -1.517  0.00  0.00    +0.004 C 
ATOM      3  C   LIG    1        2.946  -1.315  -2.362  0.00  0.00    +0.006 C 
ATOM      4  C   LIG    1        2.077  -2.527  -1.967  0.00  0.00    -0.035 C 
ATOM      5  C   LIG    1        0.744  -1.961  -1.443  0.00  0.00    +0.009 C 
ENDROOT
BRANCH   1   7
ATOM      6  C   LIG    1        0.229   1.755  -0.484  0.00  0.00    +0.004 C 
ATOM      7  C   LIG    1        0.175   0.233  -0.331  0.00  0.00    +0.000 C 
ENDBRANCH   1   7
BRANCH   4   8
ATOM      8  C   LIG    1        1.824  -3.410  -3.190  0.00  0.00    -0.079 C 
BRANCH   8   9
ATOM      9  N   LIG    1        3.102  -3.937  -3.687  0.00  0.00    +0.378 N 
ATOM     10  H   LIG    1        3.579  -4.423  -2.941  0.00  0.00    -0.090 HD
ATOM     11  H   LIG    1        3.677  -3.174  -4.013  0.00  0.00    -0.090 HD
ATOM     12  H   LIG    1        2.929  -4.577  -4.448  0.00  0.00    -0.090 HD
ENDBRANCH   8   9
ENDBRANCH   4   8
BRANCH   4  13
ATOM     13  C   LIG    1        2.773  -3.335  -0.871  0.00  0.00    +0.125 C 
BRANCH  13  14
ATOM     14  C   LIG    1        1.857  -4.435  -0.399  0.00  0.00    +0.305 C 
ATOM     15  O   LIG    1        0.783  -4.611  -0.948  0.00  0.00    -0.251 OA
BRANCH  14  16
ATOM     16  O   LIG    1        2.190  -5.149   0.531  0.00  0.00    -0.481 OA
ATOM     17  H   LIG    1        3.016  -5.015   0.953  0.00  0.00    +0.295 HD
ENDBRANCH  14  16
ENDBRANCH  13  14
ENDBRANCH   4  13
TORSDOF 6
