REMARK  Name = ZINC13986675
REMARK                            x       y       z     vdW  Elec       q    Type
REMARK                         _______ _______ _______ _____ _____    ______ ____
ROOT
ATOM      1  N   LIG    1       -1.451  -6.925  -0.656  0.00  0.00    -0.216 N 
ATOM      2  H   LIG    1       -1.677  -6.547  -1.537  0.00  0.00    +0.174 HD
ENDROOT
BRANCH   1   5
ATOM      3  C   LIG    1       -0.971  -3.861   1.322  0.00  0.00    +0.140 A 
ATOM      4  C   LIG    1       -1.237  -4.700   0.251  0.00  0.00    +0.071 A 
ATOM      5  C   LIG    1       -1.183  -6.077   0.421  0.00  0.00    +0.052 A 
ATOM      6  C   LIG    1       -0.864  -6.610   1.664  0.00  0.00    +0.026 A 
ATOM      7  C   LIG    1       -0.600  -5.771   2.729  0.00  0.00    +0.025 A 
ATOM      8  C   LIG    1       -0.647  -4.399   2.560  0.00  0.00    +0.083 A 
ATOM      9 CL   LIG    1       -0.308  -3.348   3.900  0.00  0.00    -0.080 Cl
BRANCH   3  10
ATOM     10  O   LIG    1       -1.022  -2.513   1.158  0.00  0.00    -0.492 OA
BRANCH  10  11
ATOM     11  C   LIG    1       -1.362  -2.030  -0.143  0.00  0.00    +0.210 C 
BRANCH  11  12
ATOM     12  C   LIG    1       -1.369  -0.500  -0.133  0.00  0.00    -0.038 C 
BRANCH  12  14
ATOM     13  C   LIG    1        0.866  -0.358  -0.993  0.00  0.00    -0.096 C 
ATOM     14  N   LIG    1       -0.012  -0.005   0.131  0.00  0.00    +0.378 N 
ATOM     15  H   LIG    1        0.340  -0.426   0.978  0.00  0.00    -0.082 HD
ATOM     16  C   LIG    1       -0.044   1.455   0.287  0.00  0.00    -0.096 C 
ENDBRANCH  12  14
ENDBRANCH  11  12
ENDBRANCH  10  11
ENDBRANCH   3  10
ENDBRANCH   1   5
BRANCH   1  17
ATOM     17  S   LIG    1       -1.387  -8.568  -0.452  0.00  0.00    +0.075 S 
ATOM     18  O   LIG    1       -2.444  -8.908   0.434  0.00  0.00    -0.150 OA
ATOM     19  O   LIG    1       -0.030  -8.890  -0.180  0.00  0.00    -0.150 OA
BRANCH  17  20
ATOM     20  C   LIG    1       -1.776  -9.301  -2.006  0.00  0.00    +0.145 A 
ATOM     21  C   LIG    1       -3.091  -9.592  -2.324  0.00  0.00    +0.070 A 
ATOM     22 CL   LIG    1       -4.357  -9.236  -1.191  0.00  0.00    -0.081 Cl
ATOM     23  C   LIG    1       -3.396 -10.169  -3.544  0.00  0.00    +0.034 A 
ATOM     24  C   LIG    1       -2.388 -10.453  -4.446  0.00  0.00    +0.058 A 
ATOM     25  C   LIG    1       -1.074 -10.162  -4.129  0.00  0.00    +0.034 A 
ATOM     26  C   LIG    1       -0.768  -9.580  -2.912  0.00  0.00    +0.070 A 
ATOM     27 CL   LIG    1        0.881  -9.208  -2.517  0.00  0.00    -0.081 Cl
BRANCH  24  28
ATOM     28  C   LIG    1       -2.721 -11.082  -5.775  0.00  0.00    +0.418 C 
ATOM     29  F   LIG    1       -3.862 -11.879  -5.640  0.00  0.00    -0.166 F 
ATOM     30  F   LIG    1       -1.647 -11.872  -6.199  0.00  0.00    -0.166 F 
ATOM     31  F   LIG    1       -2.961 -10.077  -6.718  0.00  0.00    -0.166 F 
ENDBRANCH  24  28
ENDBRANCH  17  20
ENDBRANCH   1  17
TORSDOF 8
