REMARK  Name = ZINC19796168
REMARK                            x       y       z     vdW  Elec       q    Type
REMARK                         _______ _______ _______ _____ _____    ______ ____
ROOT
ATOM      1  C   LIG    1       -1.419  -3.309  -4.776  0.00  0.00    +0.063 A 
ATOM      2  C   LIG    1       -1.433  -1.985  -5.212  0.00  0.00    +0.043 A 
ATOM      3  C   LIG    1       -1.443  -1.704  -6.562  0.00  0.00    +0.106 A 
ATOM      4  C   LIG    1       -1.440  -2.733  -7.488  0.00  0.00    +0.032 A 
ATOM      5  C   LIG    1       -1.426  -4.049  -7.069  0.00  0.00    +0.048 A 
ATOM      6  C   LIG    1       -1.409  -4.346  -5.715  0.00  0.00    +0.131 A 
ENDROOT
BRANCH   1  14
ATOM      7  C   LIG    1       -1.413  -2.041   0.005  0.00  0.00    +0.089 A 
ATOM      8  C   LIG    1       -1.407  -2.857  -1.147  0.00  0.00    +0.119 A 
ATOM      9  C   LIG    1       -1.387  -4.192  -0.701  0.00  0.00    +0.148 A 
ATOM     10  N   LIG    1       -1.381  -4.150   0.667  0.00  0.00    -0.260 N 
ATOM     11  C   LIG    1       -1.362  -5.309   1.564  0.00  0.00    +0.173 C 
ATOM     12  C   LIG    1       -1.378  -5.216  -1.657  0.00  0.00    +0.242 A 
ATOM     13  N   LIG    1       -1.388  -4.889  -2.940  0.00  0.00    -0.191 NA
ATOM     14  C   LIG    1       -1.407  -3.616  -3.327  0.00  0.00    +0.168 A 
ATOM     15  N   LIG    1       -1.416  -2.616  -2.463  0.00  0.00    -0.224 NA
ATOM     16  N   LIG    1       -1.392  -2.805   1.060  0.00  0.00    -0.174 NA
BRANCH  12  17
ATOM     17  O   LIG    1       -1.359  -6.516  -1.275  0.00  0.00    -0.491 OA
ATOM     18  H   LIG    1       -1.351  -6.737  -0.365  0.00  0.00    +0.294 HD
ENDBRANCH  12  17
BRANCH   7  19
ATOM     19  C   LIG    1       -1.433  -0.534   0.013  0.00  0.00    +0.059 C 
BRANCH  19  21
ATOM     20  C   LIG    1       -0.019   1.526   0.010  0.00  0.00    +0.004 C 
ATOM     21  C   LIG    1        0.002  -0.004   0.002  0.00  0.00    +0.003 C 
ENDBRANCH  19  21
ENDBRANCH   7  19
ENDBRANCH   1  14
BRANCH   3  22
ATOM     22  S   LIG    1       -1.462  -0.030  -7.111  0.00  0.00    +0.061 S 
ATOM     23  O   LIG    1       -2.014   0.739  -6.051  0.00  0.00    -0.153 OA
ATOM     24  O   LIG    1       -2.020  -0.037  -8.417  0.00  0.00    -0.153 OA
BRANCH  22  25
ATOM     25  N   LIG    1        0.115   0.450  -7.272  0.00  0.00    -0.174 NA
ATOM     26  C   LIG    1        0.839   1.056  -6.145  0.00  0.00    +0.125 C 
ATOM     27  C   LIG    1        2.167   0.313  -5.963  0.00  0.00    +0.101 C 
ATOM     28  N   LIG    1        2.898   0.304  -7.238  0.00  0.00    -0.303 NA
ATOM     29  C   LIG    1        4.249  -0.246  -7.066  0.00  0.00    +0.105 C 
ATOM     30  C   LIG    1        2.157  -0.431  -8.271  0.00  0.00    +0.101 C 
ATOM     31  C   LIG    1        0.830   0.275  -8.546  0.00  0.00    +0.125 C 
ENDBRANCH  22  25
ENDBRANCH   3  22
BRANCH   6  32
ATOM     32  O   LIG    1       -1.390  -5.639  -5.301  0.00  0.00    -0.492 OA
BRANCH  32  33
ATOM     33  C   LIG    1       -1.381  -6.645  -6.315  0.00  0.00    +0.226 C 
ATOM     34  C   LIG    1       -1.359  -8.029  -5.662  0.00  0.00    +0.048 C 
ENDBRANCH  32  33
ENDBRANCH   6  32
TORSDOF 8
