REMARK  Name = ZINC17654911
REMARK                            x       y       z     vdW  Elec       q    Type
REMARK                         _______ _______ _______ _____ _____    ______ ____
ROOT
ATOM      1  C   LIG    1       -5.718   4.170   5.839  0.00  0.00    +0.100 C 
ENDROOT
BRANCH   1   2
ATOM      2  N   LIG    1       -7.168   3.786   5.939  0.00  0.00    -0.386 N 
ATOM      3  H   LIG    1       -7.877   4.504   6.131  0.00  0.00    +0.159 HD
ATOM      4  C   LIG    1       -7.553   2.449   5.771  0.00  0.00    -0.006 C 
ATOM      5  C   LIG    1       -6.562   1.349   5.488  0.00  0.00    +0.058 C 
BRANCH   4   6
ATOM      6  C   LIG    1       -8.870   2.163   5.872  0.00  0.00    +0.127 C 
BRANCH   6   7
ATOM      7  C   LIG    1       -9.807   3.204   6.054  0.00  0.00    +0.169 C 
ATOM      8  O   LIG    1       -9.441   4.365   6.022  0.00  0.00    -0.292 OA
BRANCH   7   9
ATOM      9  C   LIG    1      -11.234   2.885   6.284  0.00  0.00    +0.018 A 
ATOM     10  C   LIG    1      -11.658   1.556   6.315  0.00  0.00    +0.012 A 
ATOM     11  C   LIG    1      -12.988   1.264   6.535  0.00  0.00    +0.013 A 
ATOM     12  C   LIG    1      -13.903   2.287   6.712  0.00  0.00    +0.055 A 
ATOM     13  C   LIG    1      -13.490   3.607   6.676  0.00  0.00    +0.013 A 
ATOM     14  C   LIG    1      -12.162   3.911   6.463  0.00  0.00    +0.012 A 
BRANCH  12  15
ATOM     15  C   LIG    1      -15.356   1.961   6.945  0.00  0.00    +0.417 C 
ATOM     16  F   LIG    1      -15.937   2.959   7.735  0.00  0.00    -0.166 F 
ATOM     17  F   LIG    1      -15.459   0.729   7.600  0.00  0.00    -0.166 F 
ATOM     18  F   LIG    1      -16.022   1.893   5.716  0.00  0.00    -0.166 F 
ENDBRANCH  12  15
ENDBRANCH   7   9
ENDBRANCH   6   7
ENDBRANCH   4   6
ENDBRANCH   1   2
BRANCH   1  19
ATOM     19  C   LIG    1       -5.073   4.095   7.224  0.00  0.00    +0.129 C 
BRANCH  19  21
ATOM     20  C   LIG    1       -4.768   2.443   8.990  0.00  0.00    +0.213 C 
ATOM     21  N   LIG    1       -5.170   2.725   7.734  0.00  0.00    -0.313 N 
ATOM     22  H   LIG    1       -5.523   2.020   7.168  0.00  0.00    +0.149 HD
ATOM     23  O   LIG    1       -4.327   3.324   9.697  0.00  0.00    -0.276 OA
BRANCH  20  25
ATOM     24  C   LIG    1       -4.350   0.987  10.953  0.00  0.00    +0.013 C 
ATOM     25  C   LIG    1       -4.867   1.034   9.514  0.00  0.00    +0.092 C 
ENDBRANCH  20  25
ENDBRANCH  19  21
ENDBRANCH   1  19
BRANCH   1  26
ATOM     26  C   LIG    1       -5.659   5.611   5.327  0.00  0.00    +0.061 C 
BRANCH  26  27
ATOM     27  C   LIG    1       -6.182   5.663   3.914  0.00  0.00    -0.045 A 
ATOM     28  C   LIG    1       -7.527   5.880   3.683  0.00  0.00    +0.007 A 
ATOM     29  C   LIG    1       -8.009   5.928   2.389  0.00  0.00    +0.046 A 
ATOM     30  C   LIG    1       -7.140   5.759   1.321  0.00  0.00    +0.121 A 
ATOM     31  C   LIG    1       -5.791   5.536   1.555  0.00  0.00    +0.046 A 
ATOM     32  C   LIG    1       -5.314   5.494   2.851  0.00  0.00    +0.007 A 
BRANCH  30  33
ATOM     33  O   LIG    1       -7.611   5.807   0.047  0.00  0.00    -0.492 OA
BRANCH  33  34
ATOM     34  C   LIG    1       -6.660   5.625  -1.004  0.00  0.00    +0.235 C 
BRANCH  34  35
ATOM     35  C   LIG    1       -7.371   5.710  -2.356  0.00  0.00    +0.100 C 
BRANCH  35  36
ATOM     36  C   LIG    1       -6.367   5.518  -3.464  0.00  0.00    +0.086 A 
ATOM     37  C   LIG    1       -6.017   4.344  -4.021  0.00  0.00    +0.126 A 
ATOM     38  C   LIG    1       -6.550   2.984  -3.649  0.00  0.00    +0.088 C 
ATOM     39  O   LIG    1       -5.101   4.611  -4.973  0.00  0.00    -0.440 OA
ATOM     40  C   LIG    1       -4.902   5.940  -4.988  0.00  0.00    +0.228 A 
ATOM     41  N   LIG    1       -5.669   6.487  -4.074  0.00  0.00    -0.214 NA
BRANCH  40  42
ATOM     42  C   LIG    1       -3.975   6.664  -5.883  0.00  0.00    +0.037 A 
ATOM     43  C   LIG    1       -3.864   8.053  -5.801  0.00  0.00    +0.013 A 
ATOM     44  C   LIG    1       -2.992   8.722  -6.635  0.00  0.00    +0.001 A 
ATOM     45  C   LIG    1       -2.237   8.021  -7.559  0.00  0.00    +0.000 A 
ATOM     46  C   LIG    1       -2.347   6.644  -7.649  0.00  0.00    +0.001 A 
ATOM     47  C   LIG    1       -3.211   5.962  -6.816  0.00  0.00    +0.013 A 
ENDBRANCH  40  42
ENDBRANCH  35  36
ENDBRANCH  34  35
ENDBRANCH  33  34
ENDBRANCH  30  33
ENDBRANCH  26  27
ENDBRANCH   1  26
TORSDOF 15
