REMARK  Name = ZINC13831238
REMARK                            x       y       z     vdW  Elec       q    Type
REMARK                         _______ _______ _______ _____ _____    ______ ____
ROOT
ATOM      1  C   LIG    1        1.120  -4.237  -1.899  0.00  0.00    +0.019 C 
ENDROOT
BRANCH   1   2
ATOM      2  C   LIG    1        1.237  -2.730  -2.134  0.00  0.00    +0.103 C 
BRANCH   2   3
ATOM      3  N   LIG    1        0.603  -2.012  -1.025  0.00  0.00    -0.327 N 
ATOM      4  H   LIG    1        0.197  -2.507  -0.297  0.00  0.00    +0.148 HD
BRANCH   3   5
ATOM      5  C   LIG    1        0.585  -0.664  -1.018  0.00  0.00    +0.130 C 
ATOM      6  S   LIG    1        1.302   0.208  -2.304  0.00  0.00    -0.019 S 
BRANCH   5   8
ATOM      7  C   LIG    1       -0.018   1.461   0.010  0.00  0.00    +0.127 C 
ATOM      8  N   LIG    1        0.002  -0.004   0.002  0.00  0.00    -0.330 N 
ATOM      9  H   LIG    1       -0.404  -0.499   0.731  0.00  0.00    +0.147 HD
ENDBRANCH   5   8
ENDBRANCH   3   5
ENDBRANCH   2   3
ENDBRANCH   1   2
BRANCH   1  10
ATOM     10  C   LIG    1        1.782  -4.987  -3.057  0.00  0.00    +0.008 C 
BRANCH  10  11
ATOM     11  C   LIG    1        1.665  -6.494  -2.822  0.00  0.00    +0.055 C 
BRANCH  11  12
ATOM     12  C   LIG    1        2.317  -7.233  -3.962  0.00  0.00    +0.033 A 
ATOM     13  N   LIG    1        1.693  -7.731  -5.074  0.00  0.00    -0.350 N 
ATOM     14  C   LIG    1        2.643  -8.313  -5.838  0.00  0.00    +0.171 A 
ATOM     15  N   LIG    1        3.795  -8.194  -5.236  0.00  0.00    -0.352 N 
ATOM     16  H   LIG    1        4.641  -8.530  -5.571  0.00  0.00    +0.166 HD
ATOM     17  H   LIG    1        0.746  -7.675  -5.277  0.00  0.00    +0.166 HD
ATOM     18  C   LIG    1        3.624  -7.534  -4.081  0.00  0.00    +0.105 A 
ENDBRANCH  11  12
ENDBRANCH  10  11
ENDBRANCH   1  10
TORSDOF 7
