REMARK  Name = ZINC49109883
REMARK                            x       y       z     vdW  Elec       q    Type
REMARK                         _______ _______ _______ _____ _____    ______ ____
ROOT
ATOM      1  C   LIG    1       -4.962  -2.619   0.034  0.00  0.00    +0.121 C 
ATOM      2  N   LIG    1       -6.137  -2.049   0.038  0.00  0.00    -0.177 NA
ATOM      3  N   LIG    1       -7.160  -2.996   0.046  0.00  0.00    -0.201 N 
ATOM      4  H   LIG    1       -8.107  -2.789   0.050  0.00  0.00    +0.178 HD
ATOM      5  C   LIG    1       -6.644  -4.242   0.047  0.00  0.00    +0.285 C 
ATOM      6  O   LIG    1       -7.265  -5.291   0.052  0.00  0.00    -0.267 OA
ATOM      7  C   LIG    1       -5.181  -4.080   0.034  0.00  0.00    +0.172 C 
ATOM      8  N   LIG    1       -4.267  -5.032   0.026  0.00  0.00    -0.175 NA
ENDROOT
BRANCH   1  12
ATOM      9  C   LIG    1       -1.200  -0.637   0.010  0.00  0.00    +0.120 A 
ATOM     10  C   LIG    1       -2.374   0.105   0.019  0.00  0.00    +0.046 A 
ATOM     11  C   LIG    1       -3.595  -0.535   0.027  0.00  0.00    +0.014 A 
ATOM     12  C   LIG    1       -3.651  -1.929   0.026  0.00  0.00    +0.004 A 
ATOM     13  C   LIG    1       -2.470  -2.671   0.016  0.00  0.00    +0.014 A 
ATOM     14  C   LIG    1       -1.252  -2.025   0.003  0.00  0.00    +0.046 A 
BRANCH   9  16
ATOM     15  C   LIG    1       -0.017   1.425   0.010  0.00  0.00    +0.277 C 
ATOM     16  O   LIG    1        0.002  -0.004   0.002  0.00  0.00    -0.495 OA
ENDBRANCH   9  16
ENDBRANCH   1  12
BRANCH   8  17
ATOM     17  N   LIG    1       -4.625  -6.271   0.027  0.00  0.00    -0.237 N 
ATOM     18  H   LIG    1       -5.567  -6.503   0.033  0.00  0.00    +0.174 HD
BRANCH  17  19
ATOM     19  C   LIG    1       -3.658  -7.277   0.019  0.00  0.00    +0.049 A 
ATOM     20  C   LIG    1       -2.308  -6.944   0.016  0.00  0.00    +0.028 A 
ATOM     21  C   LIG    1       -1.353  -7.940   0.009  0.00  0.00    +0.047 A 
ATOM     22  C   LIG    1       -1.739  -9.273   0.004  0.00  0.00    +0.120 A 
ATOM     23  C   LIG    1       -3.086  -9.606   0.007  0.00  0.00    +0.047 A 
ATOM     24  C   LIG    1       -4.043  -8.613   0.020  0.00  0.00    +0.028 A 
BRANCH  22  25
ATOM     25  O   LIG    1       -0.797 -10.253  -0.004  0.00  0.00    -0.495 OA
ATOM     26  C   LIG    1       -1.265 -11.603  -0.009  0.00  0.00    +0.277 C 
ENDBRANCH  22  25
ENDBRANCH  17  19
ENDBRANCH   8  17
TORSDOF 5
