REMARK  Name = ZINC64475084
REMARK                            x       y       z     vdW  Elec       q    Type
REMARK                         _______ _______ _______ _____ _____    ______ ____
ROOT
ATOM      1  C   LIG    1        0.842  -2.014   1.121  0.00  0.00    +0.023 C 
ENDROOT
BRANCH   1   2
ATOM      2  C   LIG    1        1.571  -2.513   2.342  0.00  0.00    -0.007 A 
ATOM      3  C   LIG    1        2.937  -2.719   2.296  0.00  0.00    +0.007 A 
ATOM      4  C   LIG    1        3.606  -3.178   3.416  0.00  0.00    +0.000 A 
ATOM      5  C   LIG    1        2.911  -3.430   4.584  0.00  0.00    +0.004 A 
ATOM      6  C   LIG    1        1.546  -3.225   4.636  0.00  0.00    +0.046 A 
ATOM      7  C   LIG    1        0.873  -2.760   3.515  0.00  0.00    +0.123 A 
BRANCH   7   8
ATOM      8  O   LIG    1       -0.469  -2.552   3.565  0.00  0.00    -0.495 OA
ATOM      9  C   LIG    1       -1.123  -2.828   4.805  0.00  0.00    +0.277 C 
ENDBRANCH   7   8
ENDBRANCH   1   2
BRANCH   1  10
ATOM     10  C   LIG    1        0.713  -0.491   1.192  0.00  0.00    -0.051 C 
BRANCH  10  12
ATOM     11  C   LIG    1       -0.018   1.465   0.010  0.00  0.00    -0.071 C 
ATOM     12  N   LIG    1        0.002  -0.004   0.002  0.00  0.00    +0.384 N 
ATOM     13  H   LIG    1        0.474  -0.330  -0.828  0.00  0.00    -0.057 HD
BRANCH  12  14
ATOM     14  N   LIG    1       -1.362  -0.507   0.012  0.00  0.00    -0.379 NA
ATOM     15  H   LIG    1       -1.856  -0.195   0.835  0.00  0.00    +0.099 HD
ATOM     16  H   LIG    1       -1.377  -1.514  -0.058  0.00  0.00    +0.099 HD
ENDBRANCH  12  14
ENDBRANCH  10  12
ENDBRANCH   1  10
TORSDOF 5
