REMARK  Name = ZINC13982572
REMARK                            x       y       z     vdW  Elec       q    Type
REMARK                         _______ _______ _______ _____ _____    ______ ____
ROOT
ATOM      1  C   LIG    1        3.738   1.857   0.282  0.00  0.00    +0.155 C 
ATOM      2  N   LIG    1        2.403   1.273   0.135  0.00  0.00    -0.284 N 
ATOM      3  C   LIG    1        1.311   2.064   0.203  0.00  0.00    +0.263 A 
ATOM      4  C   LIG    1        0.033   1.471   0.057  0.00  0.00    +0.073 A 
ATOM      5  C   LIG    1       -0.040   0.090  -0.152  0.00  0.00    +0.088 A 
ATOM      6  N   LIG    1        1.086  -0.629  -0.208  0.00  0.00    -0.215 NA
ATOM      7  O   LIG    1        1.423   3.264   0.387  0.00  0.00    -0.267 OA
ATOM      8  C   LIG    1        2.268  -0.066  -0.070  0.00  0.00    +0.199 A 
ENDROOT
BRANCH   4   9
ATOM      9  C   LIG    1       -1.195   2.294   0.118  0.00  0.00    -0.010 A 
ATOM     10  C   LIG    1       -2.097   2.123   1.183  0.00  0.00    +0.009 A 
ATOM     11  C   LIG    1       -3.230   2.866   1.261  0.00  0.00    +0.009 A 
ATOM     12  C   LIG    1       -3.515   3.822   0.269  0.00  0.00    -0.018 A 
ATOM     13  C   LIG    1       -4.681   4.604   0.329  0.00  0.00    +0.008 A 
ATOM     14  C   LIG    1       -4.929   5.521  -0.646  0.00  0.00    +0.001 A 
ATOM     15  C   LIG    1       -4.043   5.700  -1.707  0.00  0.00    +0.001 A 
ATOM     16  C   LIG    1       -2.903   4.961  -1.798  0.00  0.00    +0.008 A 
ATOM     17  C   LIG    1       -2.613   4.003  -0.810  0.00  0.00    -0.017 A 
ATOM     18  C   LIG    1       -1.444   3.230  -0.871  0.00  0.00    +0.017 A 
ENDBRANCH   4   9
BRANCH   5  19
ATOM     19  C   LIG    1       -1.356  -0.571  -0.309  0.00  0.00    +0.004 A 
ATOM     20  C   LIG    1       -1.668  -1.732   0.407  0.00  0.00    +0.030 A 
ATOM     21  C   LIG    1       -2.908  -2.313   0.233  0.00  0.00    +0.111 A 
ATOM     22  N   LIG    1       -3.788  -1.794  -0.601  0.00  0.00    -0.263 NA
ATOM     23  C   LIG    1       -3.533  -0.705  -1.299  0.00  0.00    +0.111 A 
ATOM     24  C   LIG    1       -2.320  -0.056  -1.183  0.00  0.00    +0.030 A 
ENDBRANCH   5  19
BRANCH   8  25
ATOM     25  N   LIG    1        3.391  -0.847  -0.135  0.00  0.00    -0.316 N 
ATOM     26  H   LIG    1        4.268  -0.445  -0.036  0.00  0.00    +0.149 HD
BRANCH  25  27
ATOM     27  C   LIG    1        3.267  -2.290  -0.355  0.00  0.00    +0.088 C 
BRANCH  27  28
ATOM     28  C   LIG    1        4.660  -2.922  -0.386  0.00  0.00    -0.053 C 
BRANCH  28  29
ATOM     29  N   LIG    1        5.381  -2.551   0.845  0.00  0.00    +0.381 N 
ATOM     30  H   LIG    1        5.430  -1.528   0.913  0.00  0.00    -0.090 HD
ATOM     31  H   LIG    1        6.327  -2.928   0.823  0.00  0.00    -0.090 HD
ATOM     32  H   LIG    1        4.891  -2.916   1.660  0.00  0.00    -0.090 HD
ENDBRANCH  28  29
BRANCH  28  33
ATOM     33  C   LIG    1        4.528  -4.443  -0.490  0.00  0.00    +0.020 C 
BRANCH  33  34
ATOM     34  C   LIG    1        5.896  -5.056  -0.644  0.00  0.00    -0.049 A 
ATOM     35  C   LIG    1        6.428  -5.253  -1.905  0.00  0.00    +0.003 A 
ATOM     36  C   LIG    1        7.684  -5.811  -2.045  0.00  0.00    +0.000 A 
ATOM     37  C   LIG    1        8.405  -6.183  -0.926  0.00  0.00    +0.000 A 
ATOM     38  C   LIG    1        7.871  -5.991   0.335  0.00  0.00    +0.000 A 
ATOM     39  C   LIG    1        6.617  -5.428   0.476  0.00  0.00    +0.003 A 
ENDBRANCH  33  34
ENDBRANCH  28  33
ENDBRANCH  27  28
ENDBRANCH  25  27
ENDBRANCH   8  25
TORSDOF 8
