REMARK  Name = ZINC13822460
REMARK                            x       y       z     vdW  Elec       q    Type
REMARK                         _______ _______ _______ _____ _____    ______ ____
ROOT
ATOM      1  C   LIG    1        3.549  -2.062  -0.369  0.00  0.00    +0.251 C 
ATOM      2  N   LIG    1        3.519  -0.737  -0.615  0.00  0.00    -0.257 N 
ATOM      3  O   LIG    1        2.600  -2.603   0.163  0.00  0.00    -0.270 OA
ENDROOT
BRANCH   1   7
ATOM      4  C   LIG    1        6.960  -4.345  -1.457  0.00  0.00    +0.120 A 
ATOM      5  C   LIG    1        5.717  -4.960  -1.359  0.00  0.00    +0.046 A 
ATOM      6  C   LIG    1        4.609  -4.223  -1.006  0.00  0.00    +0.016 A 
ATOM      7  C   LIG    1        4.735  -2.856  -0.747  0.00  0.00    +0.037 A 
ATOM      8  C   LIG    1        5.985  -2.240  -0.852  0.00  0.00    +0.016 A 
ATOM      9  C   LIG    1        7.090  -2.986  -1.200  0.00  0.00    +0.046 A 
BRANCH   4  11
ATOM     10  C   LIG    1        9.296  -4.380  -1.888  0.00  0.00    +0.277 C 
ATOM     11  O   LIG    1        8.050  -5.075  -1.805  0.00  0.00    -0.495 OA
ENDBRANCH   4  11
ENDBRANCH   1   7
BRANCH   2  12
ATOM     12  C   LIG    1        2.449   0.036  -0.152  0.00  0.00    +0.037 A 
ATOM     13  C   LIG    1        1.511  -0.519   0.708  0.00  0.00    +0.023 A 
ATOM     14  C   LIG    1        0.455   0.247   1.163  0.00  0.00    +0.002 A 
ATOM     15  C   LIG    1        0.332   1.565   0.762  0.00  0.00    +0.000 A 
ATOM     16  C   LIG    1        1.265   2.120  -0.094  0.00  0.00    +0.002 A 
ATOM     17  C   LIG    1        2.323   1.360  -0.552  0.00  0.00    +0.023 A 
ENDBRANCH   2  12
BRANCH   2  18
ATOM     18  C   LIG    1        4.607  -0.106  -1.367  0.00  0.00    +0.234 C 
BRANCH  18  19
ATOM     19  C   LIG    1        5.452   0.719  -0.431  0.00  0.00    +0.323 C 
ATOM     20  O   LIG    1        5.173   0.775   0.744  0.00  0.00    -0.249 OA
BRANCH  19  21
ATOM     21  O   LIG    1        6.513   1.393  -0.902  0.00  0.00    -0.480 OA
ATOM     22  H   LIG    1        6.729   1.349  -1.813  0.00  0.00    +0.295 HD
ENDBRANCH  19  21
ENDBRANCH  18  19
ENDBRANCH   2  18
TORSDOF 6
