REMARK  Name = ZINC13779486
REMARK                            x       y       z     vdW  Elec       q    Type
REMARK                         _______ _______ _______ _____ _____    ______ ____
ROOT
ATOM      1  C   LIG    1        1.241   2.211   0.002  0.00  0.00    +0.076 C 
ATOM      2  C   LIG    1        1.322   3.084   1.255  0.00  0.00    +0.022 C 
ATOM      3  C   LIG    1        2.636   3.867   1.247  0.00  0.00    +0.002 C 
ATOM      4  C   LIG    1        2.693   4.755   0.002  0.00  0.00    +0.000 C 
ATOM      5  C   LIG    1        2.612   3.881  -1.251  0.00  0.00    +0.002 C 
ATOM      6  C   LIG    1        1.298   3.098  -1.243  0.00  0.00    +0.022 C 
ENDROOT
BRANCH   1   7
ATOM      7  N   LIG    1       -0.018   1.461   0.010  0.00  0.00    -0.301 N 
ATOM      8  C   LIG    1       -1.194   2.119   0.019  0.00  0.00    +0.328 C 
ATOM      9  O   LIG    1       -1.210   3.331   0.026  0.00  0.00    -0.279 OA
BRANCH   7  11
ATOM     10  C   LIG    1        0.023  -0.522   1.442  0.00  0.00    +0.024 C 
ATOM     11  C   LIG    1        0.002  -0.004   0.002  0.00  0.00    +0.104 C 
ENDBRANCH   7  11
ENDBRANCH   1   7
TORSDOF 2
