REMARK  Name = ZINC26284236
REMARK                            x       y       z     vdW  Elec       q    Type
REMARK                         _______ _______ _______ _____ _____    ______ ____
ROOT
ATOM      1  C   LIG    1        0.020  -2.136  -1.177  0.00  0.00    +0.157 C 
ATOM      2  C   LIG    1        1.466  -2.634  -1.082  0.00  0.00    +0.195 C 
ATOM      3  C   LIG    1        1.514  -4.102  -1.411  0.00  0.00    +0.068 C 
ATOM      4  C   LIG    1        0.524  -4.718  -2.044  0.00  0.00    +0.204 C 
ATOM      5  O   LIG    1       -0.607  -4.084  -2.439  0.00  0.00    -0.477 OA
ATOM      6  C   LIG    1       -0.583  -2.655  -2.490  0.00  0.00    +0.228 C 
ENDROOT
BRANCH   1   9
ATOM      7  C   LIG    1       -0.018   1.503   0.010  0.00  0.00    +0.109 C 
ATOM      8  C   LIG    1        0.002  -0.004   0.002  0.00  0.00    +0.210 C 
ATOM      9  N   LIG    1        0.000  -0.672  -1.169  0.00  0.00    -0.305 N 
ATOM     10  H   LIG    1       -0.015  -0.182  -2.006  0.00  0.00    +0.149 HD
ATOM     11  O   LIG    1        0.020  -0.616   1.049  0.00  0.00    -0.276 OA
ENDBRANCH   1   9
BRANCH   2  12
ATOM     12  N   LIG    1        1.968  -2.422   0.278  0.00  0.00    -0.270 N 
ATOM     13  H   LIG    1        1.347  -2.372   1.022  0.00  0.00    +0.258 HD
BRANCH  12  14
ATOM     14  C   LIG    1        3.311  -2.293   0.499  0.00  0.00    +0.341 C 
ATOM     15  N   LIG    1        3.767  -2.100   1.736  0.00  0.00    -0.292 N 
ATOM     16  H   LIG    1        4.720  -2.009   1.892  0.00  0.00    +0.255 HD
ATOM     17  H   LIG    1        3.147  -2.051   2.479  0.00  0.00    +0.255 HD
BRANCH  14  18
ATOM     18  N   LIG    1        4.164  -2.362  -0.522  0.00  0.00    -0.292 N 
ATOM     19  H   LIG    1        5.117  -2.271  -0.365  0.00  0.00    +0.255 HD
ATOM     20  H   LIG    1        3.832  -2.502  -1.423  0.00  0.00    +0.255 HD
ENDBRANCH  14  18
ENDBRANCH  12  14
ENDBRANCH   2  12
BRANCH   4  21
ATOM     21  C   LIG    1        0.661  -6.154  -2.331  0.00  0.00    +0.372 C 
ATOM     22  O   LIG    1        1.671  -6.753  -1.986  0.00  0.00    -0.242 OA
BRANCH  21  23
ATOM     23  O   LIG    1       -0.234  -6.750  -2.914  0.00  0.00    -0.475 OA
ATOM     24  H   LIG    1       -1.008  -6.291  -3.178  0.00  0.00    +0.296 HD
ENDBRANCH  21  23
ENDBRANCH   4  21
BRANCH   6  25
ATOM     25  C   LIG    1       -2.007  -2.120  -2.650  0.00  0.00    +0.187 C 
BRANCH  25  26
ATOM     26  O   LIG    1       -2.778  -2.465  -1.496  0.00  0.00    -0.385 OA
ATOM     27  H   LIG    1       -2.846  -3.417  -1.339  0.00  0.00    +0.210 HD
ENDBRANCH  25  26
BRANCH  25  28
ATOM     28  C   LIG    1       -2.647  -2.738  -3.894  0.00  0.00    +0.172 C 
BRANCH  28  29
ATOM     29  O   LIG    1       -2.580  -4.163  -3.807  0.00  0.00    -0.387 OA
ATOM     30  H   LIG    1       -3.037  -4.532  -3.038  0.00  0.00    +0.210 HD
ENDBRANCH  28  29
BRANCH  28  31
ATOM     31  C   LIG    1       -4.111  -2.301  -3.985  0.00  0.00    +0.189 C 
BRANCH  31  32
ATOM     32  O   LIG    1       -4.676  -2.782  -5.207  0.00  0.00    -0.392 OA
ATOM     33  H   LIG    1       -5.604  -2.542  -5.332  0.00  0.00    +0.210 HD
ENDBRANCH  31  32
ENDBRANCH  28  31
ENDBRANCH  25  28
ENDBRANCH   6  25
TORSDOF 12
