REMARK  Name = ZINC40848320
REMARK                            x       y       z     vdW  Elec       q    Type
REMARK                         _______ _______ _______ _____ _____    ______ ____
ROOT
ATOM      1  C   LIG    1       -3.204  -1.931  -0.581  0.00  0.00    +0.097 C 
ATOM      2  C   LIG    1       -3.296  -3.186  -1.127  0.00  0.00    +0.095 C 
ATOM      3  N   LIG    1       -4.533  -3.752  -1.255  0.00  0.00    -0.272 N 
ATOM      4  C   LIG    1       -5.121  -3.742  -2.467  0.00  0.00    +0.251 C 
ATOM      5  O   LIG    1       -6.184  -4.310  -2.631  0.00  0.00    -0.270 OA
ATOM      6  C   LIG    1       -5.249  -4.367  -0.136  0.00  0.00    +0.124 C 
ATOM      7  C   LIG    1       -5.150  -3.465   1.101  0.00  0.00    +0.009 C 
ATOM      8  C   LIG    1       -6.230  -3.860   2.111  0.00  0.00    +0.017 C 
ATOM      9  C   LIG    1       -3.768  -3.622   1.740  0.00  0.00    +0.017 C 
ATOM     10  C   LIG    1       -5.352  -2.032   0.683  0.00  0.00    -0.007 A 
ATOM     11  C   LIG    1       -6.467  -1.145   0.971  0.00  0.00    +0.004 A 
ATOM     12  C   LIG    1       -7.670  -1.285   1.669  0.00  0.00    +0.010 A 
ATOM     13  C   LIG    1       -8.532  -0.229   1.760  0.00  0.00    +0.001 A 
ATOM     14  C   LIG    1       -8.224   0.986   1.164  0.00  0.00    +0.002 A 
ATOM     15  C   LIG    1       -7.042   1.143   0.493  0.00  0.00    +0.026 A 
ATOM     16  C   LIG    1       -6.150   0.083   0.379  0.00  0.00    +0.047 A 
ATOM     17  N   LIG    1       -4.922  -0.055  -0.240  0.00  0.00    -0.354 N 
ATOM     18  H   LIG    1       -4.459   0.646  -0.724  0.00  0.00    +0.166 HD
ATOM     19  C   LIG    1       -4.459  -1.331  -0.066  0.00  0.00    +0.059 A 
ENDROOT
BRANCH   4  20
ATOM     20  C   LIG    1       -4.476  -3.042  -3.595  0.00  0.00    +0.040 A 
ATOM     21  C   LIG    1       -3.100  -3.164  -3.801  0.00  0.00    +0.016 A 
ATOM     22  C   LIG    1       -2.501  -2.509  -4.856  0.00  0.00    +0.042 A 
ATOM     23  C   LIG    1       -3.262  -1.730  -5.713  0.00  0.00    +0.158 A 
ATOM     24  F   LIG    1       -2.670  -1.090  -6.745  0.00  0.00    -0.202 F 
ATOM     25  C   LIG    1       -4.631  -1.605  -5.515  0.00  0.00    +0.159 A 
ATOM     26  F   LIG    1       -5.367  -0.844  -6.354  0.00  0.00    -0.202 F 
ATOM     27  C   LIG    1       -5.241  -2.261  -4.465  0.00  0.00    +0.054 A 
ENDBRANCH   4  20
BRANCH   1  28
ATOM     28  C   LIG    1       -1.925  -1.218  -0.505  0.00  0.00    +0.343 C 
ATOM     29  O   LIG    1       -0.913  -1.736  -0.936  0.00  0.00    -0.245 OA
BRANCH  28  30
ATOM     30  O   LIG    1       -1.870   0.013   0.044  0.00  0.00    -0.458 OA
BRANCH  30  32
ATOM     31  C   LIG    1       -0.773   2.166   0.005  0.00  0.00    +0.052 C 
ATOM     32  C   LIG    1       -0.591   0.649   0.085  0.00  0.00    +0.171 C 
ATOM     33  C   LIG    1        0.115   0.289   1.394  0.00  0.00    +0.052 C 
ENDBRANCH  30  32
ENDBRANCH  28  30
ENDBRANCH   1  28
TORSDOF 4
