REMARK  Name = ZINC38322605
REMARK                            x       y       z     vdW  Elec       q    Type
REMARK                         _______ _______ _______ _____ _____    ______ ____
ROOT
ATOM      1  C   UNK A  0       -0.040  -0.590  -1.258  0.00  0.00    +0.030 A 
ATOM      2  C   UNK A  0       -0.144  -1.973  -1.373  0.00  0.00    +0.024 A 
ATOM      3  C   UNK A  0       -0.169  -2.561  -2.616  0.00  0.00    +0.015 A 
ATOM      4  C   UNK A  0       -0.088  -1.768  -3.765  0.00  0.00    +0.037 A 
ATOM      5  C   UNK A  0        0.017  -0.379  -3.646  0.00  0.00    +0.015 A 
ATOM      6  C   UNK A  0        0.035   0.203  -2.399  0.00  0.00    +0.024 A 
ENDROOT
BRANCH   4   7
ATOM      7  C   UNK A  0       -0.113  -2.396  -5.100  0.00  0.00    +0.245 C 
ATOM      8  N   GLU A  1       -0.036  -1.630  -6.206  0.00  0.00    -0.298 N 
ATOM      9  H   GLU A  1        0.037  -0.666  -6.125  0.00  0.00    +0.150 HD
ATOM     10  O   UNK A  0       -0.204  -3.604  -5.202  0.00  0.00    -0.270 OA
BRANCH   8  11
ATOM     11  CA  GLU A  1       -0.061  -2.253  -7.532  0.00  0.00    +0.182 C 
BRANCH  11  12
ATOM     12  C   GLU A  1        1.332  -2.687  -7.909  0.00  0.00    +0.325 C 
ATOM     13  O   GLU A  1        2.260  -2.493  -7.142  0.00  0.00    -0.249 OA
BRANCH  12  14
ATOM     14  OXT GLU A  1        1.532  -3.231  -8.982  0.00  0.00    -0.479 OA
ATOM     15  HXT GLU A  1        0.819  -3.380  -9.571  0.00  0.00    +0.295 HD
ENDBRANCH  12  14
ENDBRANCH  11  12
BRANCH  11  16
ATOM     16  CB  GLU A  1       -0.577  -1.245  -8.560  0.00  0.00    +0.045 C 
BRANCH  16  17
ATOM     17  CG  GLU A  1       -2.035  -0.899  -8.247  0.00  0.00    +0.123 C 
BRANCH  17  18
ATOM     18  CD  GLU A  1       -2.543   0.094  -9.260  0.00  0.00    +0.305 C 
ATOM     19  OE1 GLU A  1       -1.808   0.489 -10.149  0.00  0.00    -0.251 OA
BRANCH  18  20
ATOM     20  OE2 GLU A  1       -3.690   0.503  -9.190  0.00  0.00    -0.481 OA
ATOM     21  HE2 GLU A  1       -4.255   0.200  -8.507  0.00  0.00    +0.295 HD
ENDBRANCH  18  20
ENDBRANCH  17  18
ENDBRANCH  16  17
ENDBRANCH  11  16
ENDBRANCH   8  11
ENDBRANCH   4   7
BRANCH   1  23
ATOM     22  C   UNK A  0       -0.040   1.462   0.124  0.00  0.00    +0.129 C 
ATOM     23  N   UNK A  0       -0.016   0.002   0.001  0.00  0.00    -0.329 N 
BRANCH  23  24
ATOM     24  C   UNK A  0        0.035  -0.834   1.202  0.00  0.00    +0.139 C 
BRANCH  24  25
ATOM     25  C   UNK A  0       -1.364  -1.055   1.720  0.00  0.00    -0.008 C 
ATOM     26  C   UNK A  0       -2.507  -0.659   1.144  0.00  0.00    +0.190 C 
ATOM     27  O   UNK A  0       -3.558  -1.036   1.897  0.00  0.00    -0.481 OA
ATOM     28  C   UNK A  0       -3.151  -1.694   2.996  0.00  0.00    +0.254 C 
ATOM     29  N   UNK A  0       -3.776  -2.255   4.027  0.00  0.00    -0.254 NA
ATOM     30  H   UNK A  0       -4.745  -2.227   4.073  0.00  0.00    +0.128 HD
ATOM     31  C   UNK A  0       -3.092  -2.862   4.983  0.00  0.00    +0.195 C 
ATOM     32  N   UNK A  0       -1.768  -2.934   4.977  0.00  0.00    -0.273 NA
ATOM     33  H   UNK A  0       -1.448  -2.490   5.837  0.00  0.00    +0.126 HD
ATOM     34  C   UNK A  0       -1.060  -2.397   3.987  0.00  0.00    +0.133 C 
ATOM     35  C   UNK A  0       -1.748  -1.751   2.950  0.00  0.00    +0.106 C 
BRANCH  31  36
ATOM     36  N   UNK A  0       -3.785  -3.436   6.035  0.00  0.00    -0.303 NA
ATOM     37  H   UNK A  0       -4.754  -3.394   6.059  0.00  0.00    +0.121 HD
ATOM     38  H   UNK A  0       -3.302  -3.881   6.749  0.00  0.00    +0.121 HD
ENDBRANCH  31  36
BRANCH  34  39
ATOM     39  N   UNK A  0        0.321  -2.474   3.981  0.00  0.00    -0.315 NA
ATOM     40  H   UNK A  0        0.788  -2.858   4.739  0.00  0.00    +0.120 HD
ATOM     41  H   UNK A  0        0.821  -2.143   3.219  0.00  0.00    +0.120 HD
ENDBRANCH  34  39
ENDBRANCH  24  25
ENDBRANCH  23  24
ENDBRANCH   1  23
TORSDOF 13
