REMARK  Name = ZINC19362693
REMARK                            x       y       z     vdW  Elec       q    Type
REMARK                         _______ _______ _______ _____ _____    ______ ____
ROOT
ATOM      1  N   LIG    1        3.954  -3.198   3.405  0.00  0.00    +0.384 N 
ATOM      2  H   LIG    1        4.038  -3.667   2.515  0.00  0.00    -0.081 HD
ATOM      3  C   LIG    1        4.699  -1.933   3.364  0.00  0.00    -0.063 C 
ATOM      4  C   LIG    1        6.171  -2.217   3.057  0.00  0.00    +0.067 C 
ATOM      5  N   LIG    1        6.724  -3.097   4.096  0.00  0.00    -0.295 NA
ATOM      6  C   LIG    1        5.973  -4.358   4.166  0.00  0.00    +0.067 C 
ATOM      7  C   LIG    1        4.502  -4.057   4.463  0.00  0.00    -0.063 C 
ENDROOT
BRANCH   1   8
ATOM      8  C   LIG    1        2.538  -2.924   3.681  0.00  0.00    -0.039 C 
BRANCH   8  12
ATOM      9  C   LIG    1        0.852  -0.712   0.429  0.00  0.00    +0.165 A 
ATOM     10  C   LIG    1        1.242  -0.060   1.589  0.00  0.00    +0.050 A 
ATOM     11  C   LIG    1        1.786  -0.777   2.638  0.00  0.00    +0.009 A 
ATOM     12  C   LIG    1        1.943  -2.147   2.535  0.00  0.00    -0.018 A 
ATOM     13  C   LIG    1        1.555  -2.806   1.379  0.00  0.00    +0.167 A 
ATOM     14  C   LIG    1        1.002  -2.089   0.325  0.00  0.00    +0.204 A 
BRANCH   9  16
ATOM     15  C   LIG    1        0.192   1.408  -0.425  0.00  0.00    +0.277 C 
ATOM     16  O   LIG    1        0.317  -0.005  -0.602  0.00  0.00    -0.491 OA
ENDBRANCH   9  16
BRANCH  13  17
ATOM     17  O   LIG    1        1.711  -4.154   1.279  0.00  0.00    -0.491 OA
ATOM     18  C   LIG    1        0.621  -4.967   1.719  0.00  0.00    +0.277 C 
ENDBRANCH  13  17
BRANCH  14  19
ATOM     19  O   LIG    1        0.614  -2.734  -0.810  0.00  0.00    -0.488 OA
ATOM     20  C   LIG    1        1.593  -2.877  -1.841  0.00  0.00    +0.277 C 
ENDBRANCH  14  19
ENDBRANCH   8  12
ENDBRANCH   1   8
BRANCH   5  21
ATOM     21  C   LIG    1        8.153  -3.347   3.868  0.00  0.00    +0.117 C 
BRANCH  21  22
ATOM     22  C   LIG    1        8.700  -4.196   4.987  0.00  0.00    -0.026 A 
ATOM     23  C   LIG    1        8.367  -3.908   6.297  0.00  0.00    +0.008 A 
ATOM     24  C   LIG    1        8.867  -4.685   7.325  0.00  0.00    +0.038 A 
ATOM     25  C   LIG    1        9.702  -5.753   7.041  0.00  0.00    +0.123 A 
ATOM     26  F   LIG    1       10.192  -6.513   8.044  0.00  0.00    -0.205 F 
ATOM     27  C   LIG    1       10.035  -6.040   5.728  0.00  0.00    +0.038 A 
ATOM     28  C   LIG    1        9.529  -5.264   4.702  0.00  0.00    +0.008 A 
ENDBRANCH  21  22
BRANCH  21  29
ATOM     29  C   LIG    1        8.893  -2.035   3.825  0.00  0.00    -0.026 A 
ATOM     30  C   LIG    1        8.616  -1.055   4.760  0.00  0.00    +0.008 A 
ATOM     31  C   LIG    1        9.293   0.148   4.722  0.00  0.00    +0.038 A 
ATOM     32  C   LIG    1       10.250   0.373   3.747  0.00  0.00    +0.123 A 
ATOM     33  F   LIG    1       10.913   1.550   3.708  0.00  0.00    -0.205 F 
ATOM     34  C   LIG    1       10.527  -0.609   2.810  0.00  0.00    +0.038 A 
ATOM     35  C   LIG    1        9.851  -1.814   2.854  0.00  0.00    +0.008 A 
ENDBRANCH  21  29
ENDBRANCH   5  21
TORSDOF 8
