REMARK  Name = ZINC18098320
REMARK                            x       y       z     vdW  Elec       q    Type
REMARK                         _______ _______ _______ _____ _____    ______ ____
ROOT
ATOM      1  C   LIG    1        4.506   2.414   9.592  0.00  0.00    +0.003 C 
ENDROOT
BRANCH   1   2
ATOM      2  C   LIG    1        5.793   2.586  10.402  0.00  0.00    +0.003 C 
BRANCH   2   3
ATOM      3  C   LIG    1        5.867   4.014  10.943  0.00  0.00    +0.037 C 
BRANCH   3   4
ATOM      4  C   LIG    1        7.154   4.186  11.753  0.00  0.00    +0.196 C 
BRANCH   4   5
ATOM      5  N   LIG    1        7.226   5.554  12.272  0.00  0.00    -0.276 N 
ATOM      6  H   LIG    1        6.515   6.184  12.077  0.00  0.00    +0.258 HD
BRANCH   5   7
ATOM      7  C   LIG    1        8.301   5.945  13.034  0.00  0.00    +0.388 C 
ATOM      8  N   LIG    1        9.256   5.098  13.296  0.00  0.00    -0.129 NA
ATOM      9  H   LIG    1        9.979   5.351  13.891  0.00  0.00    +0.306 HD
BRANCH   7  10
ATOM     10  N   LIG    1        8.369   7.233  13.523  0.00  0.00    -0.186 N 
ATOM     11  H   LIG    1        7.558   7.755  13.629  0.00  0.00    +0.271 HD
BRANCH  10  12
ATOM     12  C   LIG    1        9.587   7.778  13.861  0.00  0.00    +0.394 C 
ATOM     13  N   LIG    1        9.642   8.954  14.441  0.00  0.00    -0.073 NA
BRANCH  13  14
ATOM     14  C   LIG    1        8.500   9.695  14.595  0.00  0.00    +0.142 A 
ATOM     15  C   LIG    1        7.763  10.087  13.476  0.00  0.00    +0.047 A 
ATOM     16  C   LIG    1        6.614  10.834  13.637  0.00  0.00    +0.023 A 
ATOM     17  C   LIG    1        6.191  11.194  14.905  0.00  0.00    +0.041 A 
ATOM     18 CL   LIG    1        4.744  12.133  15.100  0.00  0.00    -0.084 Cl
ATOM     19  C   LIG    1        6.918  10.809  16.019  0.00  0.00    +0.023 A 
ATOM     20  C   LIG    1        8.066  10.057  15.871  0.00  0.00    +0.047 A 
ENDBRANCH  13  14
BRANCH  12  21
ATOM     21  N   LIG    1       10.745   7.092  13.590  0.00  0.00    -0.288 N 
ATOM     22  H   LIG    1       11.550   7.281  14.097  0.00  0.00    +0.255 HD
ATOM     23  H   LIG    1       10.757   6.419  12.892  0.00  0.00    +0.255 HD
ENDBRANCH  12  21
ENDBRANCH  10  12
ENDBRANCH   7  10
ENDBRANCH   5   7
ENDBRANCH   4   5
ENDBRANCH   3   4
ENDBRANCH   2   3
ENDBRANCH   1   2
BRANCH   1  24
ATOM     24  C   LIG    1        4.431   0.985   9.050  0.00  0.00    +0.037 C 
BRANCH  24  25
ATOM     25  C   LIG    1        3.144   0.813   8.241  0.00  0.00    +0.196 C 
BRANCH  25  26
ATOM     26  N   LIG    1        3.072  -0.555   7.722  0.00  0.00    -0.276 N 
ATOM     27  H   LIG    1        3.783  -1.185   7.916  0.00  0.00    +0.258 HD
BRANCH  26  28
ATOM     28  C   LIG    1        1.997  -0.945   6.959  0.00  0.00    +0.388 C 
ATOM     29  N   LIG    1        1.042  -0.099   6.698  0.00  0.00    -0.129 NA
ATOM     30  H   LIG    1        0.234  -0.401   6.254  0.00  0.00    +0.306 HD
BRANCH  28  31
ATOM     31  N   LIG    1        1.930  -2.233   6.471  0.00  0.00    -0.186 N 
ATOM     32  H   LIG    1        2.465  -2.934   6.874  0.00  0.00    +0.271 HD
BRANCH  31  34
ATOM     33  N   LIG    1        0.643  -3.744   5.250  0.00  0.00    -0.073 NA
ATOM     34  C   LIG    1        1.102  -2.525   5.409  0.00  0.00    +0.394 C 
BRANCH  33  36
ATOM     35  C   LIG    1        0.158  -5.440   6.873  0.00  0.00    +0.047 A 
ATOM     36  C   LIG    1        1.073  -4.750   6.076  0.00  0.00    +0.142 A 
ATOM     37  C   LIG    1        2.426  -5.090   6.122  0.00  0.00    +0.047 A 
ATOM     38  C   LIG    1        2.851  -6.104   6.954  0.00  0.00    +0.023 A 
ATOM     39  C   LIG    1        1.940  -6.785   7.742  0.00  0.00    +0.041 A 
ATOM     40 CL   LIG    1        2.483  -8.061   8.787  0.00  0.00    -0.084 Cl
ATOM     41  C   LIG    1        0.596  -6.452   7.702  0.00  0.00    +0.023 A 
ENDBRANCH  33  36
BRANCH  34  42
ATOM     42  N   LIG    1        0.756  -1.540   4.518  0.00  0.00    -0.288 N 
ATOM     43  H   LIG    1        1.222  -0.690   4.530  0.00  0.00    +0.255 HD
ATOM     44  H   LIG    1        0.046  -1.695   3.875  0.00  0.00    +0.255 HD
ENDBRANCH  34  42
ENDBRANCH  31  34
ENDBRANCH  28  31
ENDBRANCH  26  28
ENDBRANCH  25  26
ENDBRANCH  24  25
ENDBRANCH   1  24
TORSDOF 17
