REMARK  Name = ZINC15834253
REMARK                            x       y       z     vdW  Elec       q    Type
REMARK                         _______ _______ _______ _____ _____    ______ ____
ROOT
ATOM      1  C   LIG    1        0.244   4.354   2.046  0.00  0.00    +0.069 A 
ATOM      2  C   LIG    1       -1.055   4.490   2.469  0.00  0.00    +0.089 A 
ATOM      3  C   LIG    1       -1.855   3.504   1.699  0.00  0.00    +0.082 A 
ATOM      4  N   LIG    1       -3.235   3.423   1.934  0.00  0.00    -0.294 N 
ATOM      5  C   LIG    1       -4.078   2.470   1.208  0.00  0.00    +0.154 C 
ATOM      6  C   LIG    1       -3.756   4.260   2.859  0.00  0.00    +0.332 A 
ATOM      7  N   LIG    1       -3.067   5.158   3.569  0.00  0.00    -0.263 N 
ATOM      8  C   LIG    1       -3.798   5.985   4.532  0.00  0.00    +0.157 C 
ATOM      9  O   LIG    1       -4.952   4.188   3.063  0.00  0.00    -0.246 OA
ATOM     10  C   LIG    1       -1.010   2.875   0.895  0.00  0.00    +0.073 A 
ATOM     11  C   LIG    1       -1.284   1.799  -0.138  0.00  0.00    +0.153 C 
ATOM     12  N   LIG    1       -0.040   1.037  -0.331  0.00  0.00    -0.330 N 
ATOM     13  H   LIG    1       -0.075   0.075  -0.448  0.00  0.00    +0.147 HD
ATOM     14  C   LIG    1        1.192   1.701  -0.353  0.00  0.00    +0.052 A 
ATOM     15  C   LIG    1        2.244   1.209  -1.110  0.00  0.00    +0.025 A 
ATOM     16  C   LIG    1        3.461   1.865  -1.107  0.00  0.00    +0.002 A 
ATOM     17  C   LIG    1        3.637   3.010  -0.351  0.00  0.00    +0.002 A 
ATOM     18  C   LIG    1        2.591   3.513   0.402  0.00  0.00    +0.028 A 
ATOM     19  C   LIG    1        1.369   2.868   0.396  0.00  0.00    +0.068 A 
ATOM     20  C   LIG    1       -1.727   5.349   3.449  0.00  0.00    +0.266 A 
ATOM     21  O   LIG    1       -1.127   6.175   4.109  0.00  0.00    -0.267 OA
ATOM     22  N   LIG    1        0.270   3.369   1.108  0.00  0.00    -0.306 N 
ENDROOT
BRANCH   1  28
ATOM     23  C   LIG    1        4.777   4.522   4.122  0.00  0.00    +0.044 C 
ATOM     24  C   LIG    1        3.585   5.222   3.521  0.00  0.00    -0.050 A 
ATOM     25  C   LIG    1        3.575   6.602   3.416  0.00  0.00    +0.003 A 
ATOM     26  C   LIG    1        2.485   7.252   2.866  0.00  0.00    +0.001 A 
ATOM     27  C   LIG    1        1.399   6.529   2.419  0.00  0.00    +0.010 A 
ATOM     28  C   LIG    1        1.402   5.136   2.522  0.00  0.00    -0.000 A 
ATOM     29  C   LIG    1        2.504   4.486   3.083  0.00  0.00    +0.013 A 
ENDBRANCH   1  28
BRANCH  11  30
ATOM     30  C   LIG    1       -1.702   2.431  -1.441  0.00  0.00    +0.014 A 
ATOM     31  C   LIG    1       -1.504   3.783  -1.648  0.00  0.00    +0.008 A 
ATOM     32  C   LIG    1       -1.887   4.363  -2.843  0.00  0.00    +0.001 A 
ATOM     33  C   LIG    1       -2.469   3.592  -3.832  0.00  0.00    +0.003 A 
ATOM     34  C   LIG    1       -2.669   2.240  -3.626  0.00  0.00    +0.039 A 
ATOM     35  C   LIG    1       -2.281   1.657  -2.432  0.00  0.00    +0.129 A 
ATOM     36  F   LIG    1       -2.470   0.334  -2.232  0.00  0.00    -0.205 F 
ENDBRANCH  11  30
TORSDOF 2
