REMARK  Name = ZINC22054861
REMARK                            x       y       z     vdW  Elec       q    Type
REMARK                         _______ _______ _______ _____ _____    ______ ____
ROOT
ATOM      1  C   LIG    1        4.387   0.815  -1.479  0.00  0.00    +0.038 C 
ENDROOT
BRANCH   1   2
ATOM      2  C   LIG    1        2.958   1.362  -1.461  0.00  0.00    +0.134 C 
BRANCH   2   3
ATOM      3  O   LIG    1        2.930   2.643  -2.093  0.00  0.00    -0.390 OA
ATOM      4  H   LIG    1        1.983   3.196  -2.175  0.00  0.00    +0.210 HD
ENDBRANCH   2   3
BRANCH   2   5
ATOM      5  C   LIG    1        2.482   1.497  -0.013  0.00  0.00    +0.154 C 
BRANCH   5   6
ATOM      6  N   LIG    1        1.075   1.907   0.002  0.00  0.00    -0.334 N 
ATOM      7  C   LIG    1       -0.013   1.076   0.008  0.00  0.00    +0.107 A 
ATOM      8  C   LIG    1       -1.105   1.864   0.017  0.00  0.00    +0.130 A 
ATOM      9  N   LIG    1       -0.695   3.141   0.025  0.00  0.00    -0.244 NA
ATOM     10  C   LIG    1        0.610   3.174   0.013  0.00  0.00    +0.199 A 
ENDBRANCH   5   6
ENDBRANCH   2   5
ENDBRANCH   1   2
BRANCH   1  11
ATOM     11  C   LIG    1        4.818   0.562  -2.925  0.00  0.00    +0.038 C 
BRANCH  11  12
ATOM     12  C   LIG    1        6.225   0.024  -2.942  0.00  0.00    -0.047 A 
ATOM     13  C   LIG    1        7.297   0.893  -3.024  0.00  0.00    +0.005 A 
ATOM     14  C   LIG    1        8.588   0.400  -3.035  0.00  0.00    +0.020 A 
ATOM     15  C   LIG    1        8.807  -0.965  -2.975  0.00  0.00    +0.041 A 
ATOM     16 CL   LIG    1       10.429  -1.585  -2.995  0.00  0.00    -0.084 Cl
ATOM     17  C   LIG    1        7.734  -1.835  -2.899  0.00  0.00    +0.020 A 
ATOM     18  C   LIG    1        6.444  -1.340  -2.883  0.00  0.00    +0.005 A 
ENDBRANCH  11  12
ENDBRANCH   1  11
TORSDOF 6
