REMARK  Name = ZINC58534567
REMARK                            x       y       z     vdW  Elec       q    Type
REMARK                         _______ _______ _______ _____ _____    ______ ____
ROOT
ATOM      1  C   LIG    1       -0.257  -0.424  -2.288  0.00  0.00    +0.123 C 
ENDROOT
BRANCH   1   4
ATOM      2  C   LIG    1       -0.151   1.297   0.370  0.00  0.00    +0.068 C 
ATOM      3  C   LIG    1       -0.156  -0.208   0.291  0.00  0.00    +0.065 A 
ATOM      4  C   LIG    1       -0.202  -0.967  -0.883  0.00  0.00    +0.010 A 
ATOM      5  C   LIG    1       -0.189  -2.275  -0.535  0.00  0.00    +0.047 A 
ATOM      6  C   LIG    1       -0.227  -3.447  -1.481  0.00  0.00    +0.066 C 
ATOM      7  N   LIG    1       -0.137  -2.340   0.815  0.00  0.00    -0.236 N 
ATOM      8  N   LIG    1       -0.112  -1.030   1.309  0.00  0.00    -0.171 NA
BRANCH   7   9
ATOM      9  C   LIG    1       -0.107  -3.513   1.583  0.00  0.00    +0.066 A 
ATOM     10  C   LIG    1        0.689  -4.581   1.192  0.00  0.00    +0.030 A 
ATOM     11  C   LIG    1        0.716  -5.735   1.950  0.00  0.00    +0.040 A 
ATOM     12  C   LIG    1       -0.050  -5.827   3.100  0.00  0.00    +0.124 A 
ATOM     13  F   LIG    1       -0.022  -6.957   3.840  0.00  0.00    -0.205 F 
ATOM     14  C   LIG    1       -0.844  -4.763   3.492  0.00  0.00    +0.040 A 
ATOM     15  C   LIG    1       -0.869  -3.605   2.740  0.00  0.00    +0.030 A 
ENDBRANCH   7   9
ENDBRANCH   1   4
BRANCH   1  16
ATOM     16  N   LIG    1        1.109  -0.248  -2.799  0.00  0.00    -0.295 NA
ATOM     17  C   LIG    1        1.788  -1.543  -2.943  0.00  0.00    +0.103 C 
ATOM     18  C   LIG    1        3.259  -1.308  -3.302  0.00  0.00    +0.120 C 
ATOM     19  N   LIG    1        3.318  -0.440  -4.488  0.00  0.00    -0.327 N 
ATOM     20  C   LIG    1        2.550   0.814  -4.471  0.00  0.00    +0.120 C 
ATOM     21  C   LIG    1        1.106   0.495  -4.066  0.00  0.00    +0.103 C 
BRANCH  19  22
ATOM     22  C   LIG    1        4.085  -0.797  -5.602  0.00  0.00    +0.030 A 
ATOM     23  C   LIG    1        4.225   0.089  -6.662  0.00  0.00    +0.027 A 
ATOM     24  C   LIG    1        4.982  -0.265  -7.762  0.00  0.00    +0.047 A 
ATOM     25  C   LIG    1        5.603  -1.504  -7.807  0.00  0.00    +0.120 A 
ATOM     26  C   LIG    1        5.463  -2.390  -6.749  0.00  0.00    +0.047 A 
ATOM     27  C   LIG    1        4.711  -2.036  -5.646  0.00  0.00    +0.027 A 
BRANCH  25  28
ATOM     28  O   LIG    1        6.349  -1.851  -8.890  0.00  0.00    -0.495 OA
ATOM     29  C   LIG    1        6.959  -3.143  -8.871  0.00  0.00    +0.277 C 
ENDBRANCH  25  28
ENDBRANCH  19  22
ENDBRANCH   1  16
TORSDOF 5
