REMARK  Name = ZINC29414528
REMARK                            x       y       z     vdW  Elec       q    Type
REMARK                         _______ _______ _______ _____ _____    ______ ____
ROOT
ATOM      1  C   LIG    1       -0.753   1.593  -1.232  0.00  0.00    +0.236 C 
ATOM      2  F   LIG    1       -0.772   2.991  -1.224  0.00  0.00    -0.208 F 
ATOM      3  F   LIG    1       -2.065   1.108  -1.222  0.00  0.00    -0.208 F 
ENDROOT
BRANCH   1   4
ATOM      4  C   LIG    1       -0.013   1.086   0.008  0.00  0.00    +0.105 C 
BRANCH   4   5
ATOM      5  C   LIG    1       -0.729   1.579   1.267  0.00  0.00    +0.132 C 
BRANCH   5   6
ATOM      6  N   LIG    1       -0.644   3.044   1.336  0.00  0.00    -0.317 NA
ATOM      7  H   LIG    1       -1.159   3.399   2.241  0.00  0.00    +0.119 HD
ATOM      8  H   LIG    1       -1.123   3.481   0.447  0.00  0.00    +0.119 HD
ENDBRANCH   5   6
BRANCH   5  10
ATOM      9  C   LIG    1        0.421   0.528   3.405  0.00  0.00    +0.005 C 
ATOM     10  C   LIG    1       -0.089   0.994   2.457  0.00  0.00    -0.087 C 
ENDBRANCH   5  10
ENDBRANCH   4   5
ENDBRANCH   1   4
BRANCH   1  11
ATOM     11  C   LIG    1       -0.037   1.099  -2.490  0.00  0.00    -0.010 C 
BRANCH  11  12
ATOM     12  N   LIG    1       -0.747   1.586  -3.680  0.00  0.00    +0.382 N 
ATOM     13  H   LIG    1       -1.779   1.205  -3.672  0.00  0.00    -0.090 HD
ATOM     14  H   LIG    1       -0.762   2.686  -3.674  0.00  0.00    -0.090 HD
ATOM     15  H   LIG    1       -0.232   1.231  -4.585  0.00  0.00    -0.090 HD
ENDBRANCH  11  12
ENDBRANCH   1  11
TORSDOF 6
