REMARK  Name = ZINC28765319
REMARK                            x       y       z     vdW  Elec       q    Type
REMARK                         _______ _______ _______ _____ _____    ______ ____
ROOT
ATOM      1  C   LIG    1       -0.352   6.543   0.041  0.00  0.00    +0.044 C 
ATOM      2  C   LIG    1        0.775   5.543   0.025  0.00  0.00    -0.049 A 
ATOM      3  C   LIG    1        2.087   5.980   0.014  0.00  0.00    +0.003 A 
ATOM      4  C   LIG    1        3.124   5.066  -0.001  0.00  0.00    +0.002 A 
ATOM      5  C   LIG    1        2.853   3.712  -0.006  0.00  0.00    +0.025 A 
ATOM      6  C   LIG    1        1.536   3.269   0.005  0.00  0.00    +0.048 A 
ATOM      7  C   LIG    1        0.497   4.190   0.015  0.00  0.00    +0.028 A 
ENDROOT
BRANCH   6   8
ATOM      8  N   LIG    1        1.258   1.900   0.000  0.00  0.00    -0.251 N 
ATOM      9  C   LIG    1        2.264   0.828  -0.015  0.00  0.00    +0.137 C 
ATOM     10  C   LIG    1        1.440  -0.472  -0.014  0.00  0.00    +0.118 C 
ATOM     11  C   LIG    1        0.002  -0.004   0.002  0.00  0.00    +0.231 C 
ATOM     12  O   LIG    1       -0.975  -0.723   0.007  0.00  0.00    -0.274 OA
ATOM     13  N   LIG    1       -0.016   1.336   0.009  0.00  0.00    -0.234 N 
ATOM     14  H   LIG    1       -0.904   1.985   0.021  0.00  0.00    +0.173 HD
ENDBRANCH   6   8
TORSDOF 1
