REMARK  Name = ZINC13806195
REMARK                            x       y       z     vdW  Elec       q    Type
REMARK                         _______ _______ _______ _____ _____    ______ ____
ROOT
ATOM      1  N   LIG    1        0.058  -4.141  -0.021  0.00  0.00    -0.226 NA
ATOM      2  C   LIG    1       -0.743  -4.805  -0.826  0.00  0.00    +0.166 C 
ATOM      3  N   LIG    1       -1.660  -4.314  -1.733  0.00  0.00    -0.260 N 
ATOM      4  H   LIG    1       -1.775  -3.357  -1.835  0.00  0.00    +0.157 HD
ATOM      5  C   LIG    1       -2.382  -5.147  -2.462  0.00  0.00    +0.256 C 
ATOM      6  C   LIG    1       -2.186  -6.548  -2.285  0.00  0.00    +0.077 C 
ATOM      7  C   LIG    1       -2.807  -7.603  -2.917  0.00  0.00    +0.020 C 
ATOM      8  O   LIG    1       -3.195  -4.727  -3.267  0.00  0.00    -0.269 OA
ATOM      9  S   LIG    1       -0.914  -6.571  -1.029  0.00  0.00    -0.049 S 
ENDROOT
BRANCH   1  14
ATOM     10  C   LIG    1       -0.018   1.503   0.010  0.00  0.00    +0.044 C 
ATOM     11  C   LIG    1        0.002  -0.004   0.002  0.00  0.00    -0.047 A 
ATOM     12  C   LIG    1        0.006  -0.686  -1.202  0.00  0.00    +0.006 A 
ATOM     13  C   LIG    1        0.024  -2.065  -1.217  0.00  0.00    +0.028 A 
ATOM     14  C   LIG    1        0.040  -2.773  -0.013  0.00  0.00    +0.067 A 
ATOM     15  C   LIG    1        0.036  -2.078   1.198  0.00  0.00    +0.031 A 
ATOM     16  C   LIG    1        0.023  -0.699   1.198  0.00  0.00    -0.046 A 
ATOM     17  C   LIG    1        0.025   0.053   2.504  0.00  0.00    +0.044 C 
ENDBRANCH   1  14
BRANCH   7  18
ATOM     18  C   LIG    1       -2.459  -8.922  -2.587  0.00  0.00    +0.005 C 
ATOM     19  C   LIG    1       -3.073  -9.964  -3.211  0.00  0.00    +0.046 C 
BRANCH  19  20
ATOM     20  C   LIG    1       -2.722 -11.293  -2.879  0.00  0.00    +0.128 A 
ATOM     21  C   LIG    1       -3.257 -12.439  -3.434  0.00  0.00    +0.049 A 
ATOM     22  C   LIG    1       -2.618 -13.521  -2.808  0.00  0.00    +0.042 A 
ATOM     23  C   LIG    1       -1.741 -13.008  -1.919  0.00  0.00    +0.195 A 
ATOM     24  O   LIG    1       -1.801 -11.669  -1.967  0.00  0.00    -0.464 OA
ENDBRANCH  19  20
ENDBRANCH   7  18
TORSDOF 3
