REMARK  Name = ZINC27195995
REMARK                            x       y       z     vdW  Elec       q    Type
REMARK                         _______ _______ _______ _____ _____    ______ ____
ROOT
ATOM      1  C   LIG    1       -0.017   1.405   0.010  0.00  0.00    +0.023 A 
ATOM      2  C   LIG    1        1.218   2.085   0.002  0.00  0.00    +0.100 A 
ATOM      3  C   LIG    1        2.409   1.335  -0.014  0.00  0.00    +0.136 A 
ATOM      4  N   LIG    1        2.379   0.012  -0.021  0.00  0.00    -0.224 NA
ATOM      5  C   LIG    1        1.243  -0.669  -0.013  0.00  0.00    +0.117 A 
ATOM      6  C   LIG    1        0.002  -0.004   0.002  0.00  0.00    +0.093 A 
ENDROOT
BRANCH   1  12
ATOM      7  C   LIG    1       -2.159   2.070  -1.074  0.00  0.00    +0.012 A 
ATOM      8  C   LIG    1       -3.351   2.761  -1.059  0.00  0.00    +0.046 A 
ATOM      9  C   LIG    1       -3.689   3.543   0.039  0.00  0.00    +0.117 A 
ATOM     10  C   LIG    1       -2.829   3.628   1.127  0.00  0.00    +0.046 A 
ATOM     11  C   LIG    1       -1.638   2.936   1.121  0.00  0.00    +0.012 A 
ATOM     12  C   LIG    1       -1.295   2.148   0.020  0.00  0.00    -0.015 A 
BRANCH   9  13
ATOM     13  O   LIG    1       -4.862   4.226   0.048  0.00  0.00    -0.507 OA
ATOM     14  H   LIG    1       -5.131   4.846   0.916  0.00  0.00    +0.292 HD
ENDBRANCH   9  13
ENDBRANCH   1  12
BRANCH   3  15
ATOM     15  N   LIG    1        3.624   1.989  -0.022  0.00  0.00    -0.342 N 
ATOM     16  H   LIG    1        3.658   3.089  -0.017  0.00  0.00    +0.144 HD
ATOM     17  H   LIG    1        4.560   1.411  -0.034  0.00  0.00    +0.144 HD
ENDBRANCH   3  15
BRANCH   2  18
ATOM     18  C   LIG    1        1.260   3.516   0.009  0.00  0.00    +0.103 C 
ATOM     19  N   LIG    1        1.294   4.652   0.015  0.00  0.00    -0.191 NA
ENDBRANCH   2  18
BRANCH   6  20
ATOM     20  C   LIG    1       -1.221  -0.748   0.010  0.00  0.00    +0.102 C 
ATOM     21  N   LIG    1       -2.192  -1.339   0.017  0.00  0.00    -0.191 NA
ENDBRANCH   6  20
BRANCH   5  22
ATOM     22  S   LIG    1        1.285  -2.430  -0.023  0.00  0.00    -0.097 S 
BRANCH  22  23
ATOM     23  C   LIG    1        3.075  -2.701  -0.041  0.00  0.00    +0.150 C 
BRANCH  23  24
ATOM     24  C   LIG    1        3.358  -4.181  -0.052  0.00  0.00    +0.117 A 
ATOM     25  N   LIG    1        3.522  -4.959   1.040  0.00  0.00    -0.348 N 
ATOM     26  C   LIG    1        3.757  -6.233   0.599  0.00  0.00    +0.104 A 
ATOM     27  C   LIG    1        3.737  -6.189  -0.747  0.00  0.00    +0.130 A 
ATOM     28  H   LIG    1        3.454  -4.517   2.045  0.00  0.00    +0.167 HD
ATOM     29  N   LIG    1        3.491  -4.923  -1.117  0.00  0.00    -0.240 NA
ENDBRANCH  23  24
ENDBRANCH  22  23
ENDBRANCH   5  22
TORSDOF 8
