REMARK  Name = ZINC16029990
REMARK                            x       y       z     vdW  Elec       q    Type
REMARK                         _______ _______ _______ _____ _____    ______ ____
ROOT
ATOM      1  C   LIG    1       -3.786  -6.159   0.239  0.00  0.00    +0.039 A 
ATOM      2  C   LIG    1       -2.606  -6.906   0.235  0.00  0.00    +0.016 A 
ATOM      3  C   LIG    1       -2.662  -8.279   0.339  0.00  0.00    +0.041 A 
ATOM      4  C   LIG    1       -3.887  -8.920   0.447  0.00  0.00    +0.150 A 
ATOM      5  F   LIG    1       -3.936 -10.266   0.548  0.00  0.00    -0.203 F 
ATOM      6  C   LIG    1       -5.062  -8.183   0.450  0.00  0.00    +0.141 A 
ATOM      7  C   LIG    1       -5.017  -6.809   0.353  0.00  0.00    +0.044 A 
ENDROOT
BRANCH   1  10
ATOM      8  N   LIG    1       -2.543  -4.063   0.018  0.00  0.00    -0.281 N 
ATOM      9  H   LIG    1       -1.728  -4.583  -0.066  0.00  0.00    +0.155 HD
ATOM     10  C   LIG    1       -3.732  -4.688   0.128  0.00  0.00    +0.248 C 
ATOM     11  O   LIG    1       -4.761  -4.039   0.136  0.00  0.00    -0.270 OA
BRANCH   8  16
ATOM     12  C   LIG    1       -3.329  -0.551   0.782  0.00  0.00    +0.122 A 
ATOM     13  C   LIG    1       -2.361   0.102   0.030  0.00  0.00    +0.046 A 
ATOM     14  C   LIG    1       -1.460  -0.627  -0.721  0.00  0.00    +0.005 A 
ATOM     15  C   LIG    1       -1.518  -2.008  -0.727  0.00  0.00    +0.023 A 
ATOM     16  C   LIG    1       -2.484  -2.666   0.024  0.00  0.00    +0.037 A 
ATOM     17  C   LIG    1       -3.386  -1.935   0.784  0.00  0.00    +0.069 A 
BRANCH  12  19
ATOM     18  C   LIG    1       -4.097   1.591   1.472  0.00  0.00    +0.277 C 
ATOM     19  O   LIG    1       -4.215   0.168   1.521  0.00  0.00    -0.495 OA
ENDBRANCH  12  19
ENDBRANCH   8  16
ENDBRANCH   1  10
BRANCH   6  20
ATOM     20  S   LIG    1       -6.614  -9.005   0.586  0.00  0.00    +0.064 S 
ATOM     21  O   LIG    1       -7.614  -7.997   0.534  0.00  0.00    -0.153 OA
ATOM     22  O   LIG    1       -6.501  -9.910   1.676  0.00  0.00    -0.153 OA
BRANCH  20  23
ATOM     23  N   LIG    1       -6.801  -9.928  -0.777  0.00  0.00    -0.176 NA
ATOM     24  C   LIG    1       -7.445  -9.372  -1.975  0.00  0.00    +0.109 C 
ATOM     25  C   LIG    1       -6.511  -9.570  -3.173  0.00  0.00    +0.017 C 
ATOM     26  C   LIG    1       -6.143 -11.052  -3.288  0.00  0.00    +0.003 C 
ATOM     27  C   LIG    1       -5.405 -11.495  -2.022  0.00  0.00    +0.017 C 
ATOM     28  C   LIG    1       -6.321 -11.316  -0.813  0.00  0.00    +0.109 C 
ENDBRANCH  20  23
ENDBRANCH   6  20
TORSDOF 5
