REMARK  Name = ZINC19370039
REMARK                            x       y       z     vdW  Elec       q    Type
REMARK                         _______ _______ _______ _____ _____    ______ ____
ROOT
ATOM      1  C   LIG    1        1.178  -2.195  -0.010  0.00  0.00    +0.115 C 
ATOM      2  C   LIG    1        1.208  -0.689  -0.013  0.00  0.00    -0.023 A 
ATOM      3  C   LIG    1        0.002  -0.004   0.002  0.00  0.00    +0.006 A 
ATOM      4  C   LIG    1       -0.017   1.376   0.010  0.00  0.00    +0.000 A 
ATOM      5  C   LIG    1        1.173   2.081   0.002  0.00  0.00    +0.000 A 
ATOM      6  C   LIG    1        2.374   1.401  -0.015  0.00  0.00    +0.004 A 
ATOM      7  C   LIG    1        2.394   0.014  -0.025  0.00  0.00    -0.041 A 
ATOM      8  C   LIG    1        3.728  -0.685  -0.054  0.00  0.00    +0.050 C 
ATOM      9  C   LIG    1        3.559  -2.148   0.359  0.00  0.00    +0.086 C 
ATOM     10  N   LIG    1        2.471  -2.736  -0.439  0.00  0.00    -0.305 NA
ATOM     11  H   LIG    1        2.476  -3.827  -0.304  0.00  0.00    +0.123 HD
ENDROOT
BRANCH   1  15
ATOM     12  C   LIG    1       -1.871  -3.548  -2.679  0.00  0.00    +0.000 A 
ATOM     13  C   LIG    1       -2.111  -3.509  -1.319  0.00  0.00    +0.000 A 
ATOM     14  C   LIG    1       -1.124  -3.071  -0.455  0.00  0.00    +0.005 A 
ATOM     15  C   LIG    1        0.102  -2.673  -0.952  0.00  0.00    -0.026 A 
ATOM     16  C   LIG    1        0.341  -2.707  -2.313  0.00  0.00    +0.005 A 
ATOM     17  C   LIG    1       -0.644  -3.149  -3.176  0.00  0.00    +0.000 A 
ENDBRANCH   1  15
TORSDOF 1
