REMARK  Name = ZINC13757083
REMARK                            x       y       z     vdW  Elec       q    Type
REMARK                         _______ _______ _______ _____ _____    ______ ____
ROOT
ATOM      1  C   LIG    1        3.359   0.332   1.155  0.00  0.00    -0.000 A 
ATOM      2  C   LIG    1        2.113   0.562   0.619  0.00  0.00    +0.005 A 
ATOM      3  C   LIG    1        1.151  -0.439   0.589  0.00  0.00    +0.138 A 
ATOM      4  O   LIG    1        0.002  -0.004   0.002  0.00  0.00    -0.490 OA
ATOM      5  C   LIG    1       -0.017   1.434   0.010  0.00  0.00    +0.234 C 
ATOM      6  C   LIG    1        1.464  -1.685   1.131  0.00  0.00    +0.066 A 
ATOM      7 BR   LIG    1        0.172  -3.066   1.122  0.00  0.00    -0.046 Br
ATOM      8  C   LIG    1        2.708  -1.913   1.672  0.00  0.00    +0.015 A 
ATOM      9  C   LIG    1        3.322  -3.135   2.329  0.00  0.00    +0.081 C 
ATOM     10  C   LIG    1        4.559  -2.532   3.035  0.00  0.00    +0.234 C 
ATOM     11  O   LIG    1        4.833  -1.359   2.251  0.00  0.00    -0.491 OA
ATOM     12  C   LIG    1        1.486   1.796  -0.003  0.00  0.00    +0.080 C 
ATOM     13  C   LIG    1        3.675  -0.916   1.688  0.00  0.00    +0.128 A 
ENDROOT
BRANCH   1  14
ATOM     14  C   LIG    1        4.386   1.434   1.167  0.00  0.00    +0.023 C 
BRANCH  14  16
ATOM     15  C   LIG    1        6.169   2.569  -0.167  0.00  0.00    -0.014 C 
ATOM     16  C   LIG    1        5.211   1.377  -0.121  0.00  0.00    -0.074 C 
BRANCH  16  17
ATOM     17  N   LIG    1        5.963   0.110  -0.152  0.00  0.00    +0.380 N 
ATOM     18  H   LIG    1        5.305  -0.675  -0.086  0.00  0.00    -0.090 HD
ATOM     19  H   LIG    1        6.609   0.069   0.635  0.00  0.00    -0.090 HD
ATOM     20  H   LIG    1        6.485   0.035  -1.023  0.00  0.00    -0.090 HD
ENDBRANCH  16  17
ENDBRANCH  14  16
ENDBRANCH   1  14
TORSDOF 3
