REMARK  Name = ZINC24780352
REMARK                            x       y       z     vdW  Elec       q    Type
REMARK                         _______ _______ _______ _____ _____    ______ ____
ROOT
ATOM      1  N   LIG    1       -2.738  -2.684  -0.318  0.00  0.00    -0.297 NA
ENDROOT
BRANCH   1   2
ATOM      2  C   LIG    1       -2.380  -4.090  -0.090  0.00  0.00    +0.097 C 
BRANCH   2   3
ATOM      3  C   LIG    1       -2.327  -4.366   1.414  0.00  0.00    +0.063 C 
BRANCH   3   7
ATOM      4  C   LIG    1       -1.885  -8.562   2.078  0.00  0.00    +0.000 A 
ATOM      5  C   LIG    1       -2.876  -7.859   2.737  0.00  0.00    +0.000 A 
ATOM      6  C   LIG    1       -3.019  -6.501   2.522  0.00  0.00    +0.004 A 
ATOM      7  C   LIG    1       -2.171  -5.846   1.648  0.00  0.00    -0.039 A 
ATOM      8  C   LIG    1       -1.184  -6.551   0.985  0.00  0.00    +0.004 A 
ATOM      9  C   LIG    1       -1.038  -7.908   1.204  0.00  0.00    +0.000 A 
ENDBRANCH   3   7
BRANCH   3  10
ATOM     10  C   LIG    1       -1.156  -3.635   2.018  0.00  0.00    -0.039 A 
ATOM     11  C   LIG    1        0.108  -3.791   1.479  0.00  0.00    +0.004 A 
ATOM     12  C   LIG    1        1.182  -3.117   2.029  0.00  0.00    +0.000 A 
ATOM     13  C   LIG    1        0.994  -2.295   3.125  0.00  0.00    +0.000 A 
ATOM     14  C   LIG    1       -0.268  -2.144   3.667  0.00  0.00    +0.000 A 
ATOM     15  C   LIG    1       -1.343  -2.814   3.114  0.00  0.00    +0.004 A 
ENDBRANCH   3  10
ENDBRANCH   2   3
ENDBRANCH   1   2
BRANCH   1  16
ATOM     16  C   LIG    1       -3.330  -2.500  -1.650  0.00  0.00    +0.121 C 
BRANCH  16  17
ATOM     17  C   LIG    1       -4.710  -3.106  -1.673  0.00  0.00    -0.015 A 
ATOM     18  C   LIG    1       -4.930  -4.301  -2.332  0.00  0.00    +0.006 A 
ATOM     19  C   LIG    1       -6.195  -4.856  -2.353  0.00  0.00    +0.001 A 
ATOM     20  C   LIG    1       -7.243  -4.216  -1.717  0.00  0.00    +0.014 A 
ATOM     21  C   LIG    1       -7.024  -3.021  -1.058  0.00  0.00    +0.073 A 
ATOM     22  C   LIG    1       -5.757  -2.468  -1.031  0.00  0.00    +0.057 A 
ATOM     23 CL   LIG    1       -5.480  -0.970  -0.197  0.00  0.00    -0.083 Cl
BRANCH  21  24
ATOM     24  C   LIG    1       -8.166  -2.324  -0.365  0.00  0.00    +0.419 C 
ATOM     25  F   LIG    1       -8.396  -1.086  -0.976  0.00  0.00    -0.166 F 
ATOM     26  F   LIG    1       -7.844  -2.126   0.982  0.00  0.00    -0.166 F 
ATOM     27  F   LIG    1       -9.319  -3.111  -0.458  0.00  0.00    -0.166 F 
ENDBRANCH  21  24
ENDBRANCH  16  17
ENDBRANCH   1  16
BRANCH   1  28
ATOM     28  C   LIG    1       -1.573  -1.808  -0.135  0.00  0.00    +0.088 C 
BRANCH  28  29
ATOM     29  C   LIG    1       -2.022  -0.346  -0.172  0.00  0.00    +0.056 C 
BRANCH  29  30
ATOM     30  C   LIG    1       -0.809   0.566   0.019  0.00  0.00    +0.230 C 
BRANCH  30  31
ATOM     31  O   LIG    1       -1.229   1.931  -0.015  0.00  0.00    -0.492 OA
BRANCH  31  32
ATOM     32  C   LIG    1       -0.266   2.877   0.140  0.00  0.00    +0.121 A 
ATOM     33  C   LIG    1        1.056   2.499   0.327  0.00  0.00    +0.045 A 
ATOM     34  C   LIG    1        2.034   3.462   0.480  0.00  0.00    +0.004 A 
ATOM     35  C   LIG    1        1.695   4.803   0.457  0.00  0.00    +0.004 A 
ATOM     36  C   LIG    1        0.378   5.182   0.276  0.00  0.00    -0.033 A 
ATOM     37  C   LIG    1       -0.603   4.223   0.118  0.00  0.00    +0.049 A 
BRANCH  36  38
ATOM     38  C   LIG    1        0.012   6.644   0.252  0.00  0.00    +0.155 C 
BRANCH  38  39
ATOM     39  C   LIG    1       -0.310   7.104   1.651  0.00  0.00    +0.309 C 
ATOM     40  O   LIG    1       -0.248   6.325   2.572  0.00  0.00    -0.251 OA
BRANCH  39  41
ATOM     41  O   LIG    1       -0.665   8.380   1.873  0.00  0.00    -0.480 OA
ATOM     42  H   LIG    1       -0.712   8.984   1.158  0.00  0.00    +0.295 HD
ENDBRANCH  39  41
ENDBRANCH  38  39
ENDBRANCH  36  38
ENDBRANCH  31  32
ENDBRANCH  30  31
ENDBRANCH  29  30
ENDBRANCH  28  29
ENDBRANCH   1  28
TORSDOF 15
