REMARK  Name = ZINC43014500
REMARK                            x       y       z     vdW  Elec       q    Type
REMARK                         _______ _______ _______ _____ _____    ______ ____
ROOT
ATOM      1  C   LIG    1       -4.569  -1.302  -0.813  0.00  0.00    +0.109 A 
ATOM      2  C   LIG    1       -4.566  -2.288   0.160  0.00  0.00    +0.029 A 
ATOM      3  C   LIG    1       -5.625  -2.400   1.036  0.00  0.00    +0.014 A 
ATOM      4  C   LIG    1       -6.696  -1.519   0.939  0.00  0.00    +0.028 A 
ATOM      5  C   LIG    1       -7.958  -1.353   1.686  0.00  0.00    +0.030 A 
ATOM      6  C   LIG    1       -8.537  -2.017   2.761  0.00  0.00    +0.036 A 
ATOM      7  C   LIG    1       -9.768  -1.602   3.241  0.00  0.00    +0.040 A 
ATOM      8  C   LIG    1      -10.419  -0.525   2.647  0.00  0.00    +0.027 A 
ATOM      9  C   LIG    1       -9.849   0.136   1.581  0.00  0.00    +0.049 A 
ATOM     10  C   LIG    1       -8.613  -0.268   1.087  0.00  0.00    +0.136 A 
ATOM     11  O   LIG    1       -7.844   0.193   0.076  0.00  0.00    -0.455 OA
ATOM     12  C   LIG    1       -6.702  -0.520  -0.044  0.00  0.00    +0.138 A 
ATOM     13  C   LIG    1       -5.623  -0.419  -0.915  0.00  0.00    +0.075 A 
ENDROOT
BRANCH   7  14
ATOM     14  N   LIG    1      -10.358  -2.267   4.325  0.00  0.00    -0.234 N 
ATOM     15  C   LIG    1      -11.661  -1.945   4.939  0.00  0.00    +0.158 C 
ATOM     16  C   LIG    1      -11.944  -3.206   5.788  0.00  0.00    +0.253 C 
ATOM     17  O   LIG    1      -10.617  -3.724   6.008  0.00  0.00    -0.448 OA
ATOM     18  C   LIG    1       -9.841  -3.318   4.989  0.00  0.00    +0.407 C 
ATOM     19  O   LIG    1       -8.783  -3.842   4.699  0.00  0.00    -0.226 OA
ENDBRANCH   7  14
BRANCH   1  20
ATOM     20  S   LIG    1       -3.209  -1.169  -1.926  0.00  0.00    +0.059 S 
ATOM     21  O   LIG    1       -2.600  -2.451  -1.978  0.00  0.00    -0.153 OA
ATOM     22  O   LIG    1       -3.697  -0.509  -3.086  0.00  0.00    -0.153 OA
BRANCH  20  23
ATOM     23  N   LIG    1       -2.105  -0.148  -1.230  0.00  0.00    -0.176 NA
ATOM     24  H   LIG    1       -1.904   0.705  -1.647  0.00  0.00    +0.149 HD
BRANCH  23  25
ATOM     25  C   LIG    1       -1.433  -0.534   0.013  0.00  0.00    +0.187 C 
BRANCH  25  27
ATOM     26  C   LIG    1       -0.019   1.526   0.010  0.00  0.00    +0.009 C 
ATOM     27  C   LIG    1        0.002  -0.004   0.002  0.00  0.00    +0.012 C 
ATOM     28  C   LIG    1        0.742  -0.511   1.242  0.00  0.00    +0.009 C 
ENDBRANCH  25  27
BRANCH  25  29
ATOM     29  C   LIG    1       -2.175   0.051   1.187  0.00  0.00    +0.324 C 
ATOM     30  O   LIG    1       -2.781   1.102   1.064  0.00  0.00    -0.249 OA
BRANCH  29  31
ATOM     31  O   LIG    1       -2.171  -0.527   2.260  0.00  0.00    -0.479 OA
ATOM     32  H   LIG    1       -1.705  -1.335   2.355  0.00  0.00    +0.295 HD
ENDBRANCH  29  31
ENDBRANCH  25  29
ENDBRANCH  23  25
ENDBRANCH  20  23
ENDBRANCH   1  20
TORSDOF 7
