REMARK  Name = ZINC14253369
REMARK                            x       y       z     vdW  Elec       q    Type
REMARK                         _______ _______ _______ _____ _____    ______ ____
ROOT
ATOM      1  C   LIG    1        3.446  -3.576  -1.786  0.00  0.00    +0.101 A 
ATOM      2  C   LIG    1        4.089  -3.073  -0.639  0.00  0.00    +0.134 A 
ATOM      3  C   LIG    1        3.396  -2.256   0.234  0.00  0.00    +0.092 A 
ATOM      4  C   LIG    1        2.068  -1.930  -0.018  0.00  0.00    +0.128 A 
ATOM      5  C   LIG    1        1.425  -2.422  -1.147  0.00  0.00    +0.044 A 
ATOM      6  C   LIG    1        2.100  -3.245  -2.029  0.00  0.00    +0.138 A 
ENDROOT
BRANCH   5   7
ATOM      7  C   LIG    1       -0.015  -2.062  -1.407  0.00  0.00    +0.063 C 
ATOM      8  C   LIG    1       -0.919  -3.201  -0.928  0.00  0.00    +0.062 C 
ATOM      9  C   LIG    1       -0.758  -4.382  -1.894  0.00  0.00    +0.204 C 
ATOM     10  O   LIG    1       -1.246  -3.986  -3.176  0.00  0.00    -0.484 OA
ATOM     11  C   LIG    1       -0.810  -2.804  -3.684  0.00  0.00    +0.129 A 
ATOM     12  C   LIG    1       -0.975  -2.566  -5.044  0.00  0.00    +0.091 A 
ATOM     13  C   LIG    1       -0.550  -1.370  -5.598  0.00  0.00    +0.120 A 
ATOM     14  C   LIG    1        0.041  -0.407  -4.793  0.00  0.00    +0.046 A 
ATOM     15  C   LIG    1        0.206  -0.645  -3.443  0.00  0.00    +0.011 A 
ATOM     16  C   LIG    1       -0.217  -1.841  -2.885  0.00  0.00    +0.002 A 
BRANCH   9  17
ATOM     17  C   LIG    1       -1.551  -5.561  -1.390  0.00  0.00    -0.007 A 
ATOM     18  C   LIG    1       -2.899  -5.660  -1.681  0.00  0.00    +0.011 A 
ATOM     19  C   LIG    1       -3.627  -6.742  -1.226  0.00  0.00    +0.046 A 
ATOM     20  C   LIG    1       -3.007  -7.724  -0.466  0.00  0.00    +0.117 A 
ATOM     21  C   LIG    1       -1.656  -7.619  -0.171  0.00  0.00    +0.046 A 
ATOM     22  C   LIG    1       -0.931  -6.537  -0.634  0.00  0.00    +0.011 A 
BRANCH  20  23
ATOM     23  O   LIG    1       -3.723  -8.786  -0.011  0.00  0.00    -0.507 OA
ATOM     24  H   LIG    1       -4.125  -8.646   0.857  0.00  0.00    +0.292 HD
ENDBRANCH  20  23
ENDBRANCH   9  17
BRANCH  13  25
ATOM     25  O   LIG    1       -0.713  -1.140  -6.927  0.00  0.00    -0.507 OA
ATOM     26  H   LIG    1        0.034  -1.429  -7.470  0.00  0.00    +0.292 HD
ENDBRANCH  13  25
ENDBRANCH   5   7
BRANCH   6  27
ATOM     27  O   LIG    1        1.468  -3.728  -3.127  0.00  0.00    -0.506 OA
ATOM     28  H   LIG    1        1.616  -3.206  -3.928  0.00  0.00    +0.292 HD
ENDBRANCH   6  27
BRANCH   4  29
ATOM     29  O   LIG    1        1.396  -1.128   0.845  0.00  0.00    -0.506 OA
ATOM     30  H   LIG    1        0.941  -1.604   1.552  0.00  0.00    +0.292 HD
ENDBRANCH   4  29
BRANCH   2  31
ATOM     31  O   LIG    1        5.384  -3.389  -0.391  0.00  0.00    -0.506 OA
ATOM     32  H   LIG    1        5.498  -4.191   0.138  0.00  0.00    +0.292 HD
ENDBRANCH   2  31
BRANCH   1  33
ATOM     33  C   LIG    1        4.170  -4.441  -2.715  0.00  0.00    +0.170 C 
ATOM     34  O   LIG    1        3.612  -4.872  -3.703  0.00  0.00    -0.292 OA
BRANCH  33  35
ATOM     35  C   LIG    1        5.609  -4.797  -2.447  0.00  0.00    +0.080 C 
BRANCH  35  36
ATOM     36  C   LIG    1        6.126  -5.707  -3.563  0.00  0.00    +0.008 C 
BRANCH  36  37
ATOM     37  C   LIG    1        7.588  -6.068  -3.291  0.00  0.00    +0.000 C 
BRANCH  37  38
ATOM     38  C   LIG    1        8.105  -6.978  -4.407  0.00  0.00    +0.000 C 
BRANCH  38  39
ATOM     39  C   LIG    1        9.566  -7.340  -4.135  0.00  0.00    +0.000 C 
BRANCH  39  40
ATOM     40  C   LIG    1       10.083  -8.249  -5.251  0.00  0.00    +0.000 C 
BRANCH  40  41
ATOM     41  C   LIG    1       11.544  -8.611  -4.979  0.00  0.00    -0.000 C 
BRANCH  41  42
ATOM     42  C   LIG    1       12.061  -9.521  -6.095  0.00  0.00    -0.000 C 
BRANCH  42  43
ATOM     43  C   LIG    1       13.523  -9.882  -5.823  0.00  0.00    -0.000 C 
BRANCH  43  45
ATOM     44  C   LIG    1       15.501 -11.153  -6.667  0.00  0.00    +0.004 C 
ATOM     45  C   LIG    1       14.040 -10.792  -6.939  0.00  0.00    -0.003 C 
ENDBRANCH  43  45
ENDBRANCH  42  43
ENDBRANCH  41  42
ENDBRANCH  40  41
ENDBRANCH  39  40
ENDBRANCH  38  39
ENDBRANCH  37  38
ENDBRANCH  36  37
ENDBRANCH  35  36
ENDBRANCH  33  35
ENDBRANCH   1  33
TORSDOF 18
