REMARK  Name = ZINC21985183
REMARK                            x       y       z     vdW  Elec       q    Type
REMARK                         _______ _______ _______ _____ _____    ______ ____
ROOT
ATOM      1  C   LIG    1        7.937  -1.792  -1.865  0.00  0.00    +0.325 C 
ATOM      2  N   LIG    1        7.228  -2.054  -2.981  0.00  0.00    -0.279 N 
ATOM      3  C   LIG    1        7.895  -2.553  -4.192  0.00  0.00    +0.109 C 
ATOM      4  C   LIG    1        7.197  -3.839  -4.645  0.00  0.00    +0.019 C 
ATOM      5  C   LIG    1        5.701  -3.570  -4.817  0.00  0.00    +0.004 C 
ATOM      6  C   LIG    1        5.100  -3.140  -3.477  0.00  0.00    +0.034 C 
ATOM      7  C   LIG    1        5.774  -1.846  -3.011  0.00  0.00    +0.185 C 
ATOM      8  O   LIG    1        7.363  -1.506  -0.835  0.00  0.00    -0.263 OA
ENDROOT
BRANCH   1   9
ATOM      9  C   LIG    1        9.430  -1.854  -1.896  0.00  0.00    +0.395 C 
ATOM     10  O   LIG    1       10.008  -2.022  -2.949  0.00  0.00    -0.240 OA
BRANCH   9  12
ATOM     11  C   LIG    1       11.579  -1.795  -0.862  0.00  0.00    +0.280 C 
ATOM     12  O   LIG    1       10.132  -1.724  -0.756  0.00  0.00    -0.461 OA
ENDBRANCH   9  12
ENDBRANCH   1   9
BRANCH   7  13
ATOM     13  C   LIG    1        5.286  -1.492  -1.630  0.00  0.00    +0.328 C 
ATOM     14  O   LIG    1        5.476  -2.251  -0.709  0.00  0.00    -0.249 OA
BRANCH  13  15
ATOM     15  O   LIG    1        4.641  -0.333  -1.423  0.00  0.00    -0.459 OA
BRANCH  15  16
ATOM     16  C   LIG    1        4.200  -0.057  -0.067  0.00  0.00    +0.267 C 
BRANCH  16  17
ATOM     17  C   LIG    1        3.501   1.277  -0.028  0.00  0.00    -0.010 A 
ATOM     18  C   LIG    1        2.137   1.350  -0.240  0.00  0.00    +0.007 A 
ATOM     19  C   LIG    1        1.496   2.574  -0.203  0.00  0.00    +0.000 A 
ATOM     20  C   LIG    1        2.219   3.726   0.045  0.00  0.00    +0.000 A 
ATOM     21  C   LIG    1        3.583   3.653   0.257  0.00  0.00    +0.000 A 
ATOM     22  C   LIG    1        4.224   2.429   0.220  0.00  0.00    +0.007 A 
ENDBRANCH  16  17
ENDBRANCH  15  16
ENDBRANCH  13  15
ENDBRANCH   7  13
TORSDOF 6
