REMARK  Name = ZINC28824948
REMARK                            x       y       z     vdW  Elec       q    Type
REMARK                         _______ _______ _______ _____ _____    ______ ____
ROOT
ATOM      1  C   LIG    1       -3.543   1.969  -0.571  0.00  0.00    +0.234 C 
ATOM      2  N   LIG    1       -4.796   1.484  -0.672  0.00  0.00    -0.299 N 
ATOM      3  H   LIG    1       -5.020   0.465  -0.323  0.00  0.00    +0.150 HD
ATOM      4  O   LIG    1       -3.295   3.093  -0.956  0.00  0.00    -0.274 OA
ENDROOT
BRANCH   2   5
ATOM      5  C   LIG    1       -5.859   2.312  -1.246  0.00  0.00    +0.191 C 
ATOM      6  C   LIG    1       -6.945   1.427  -1.798  0.00  0.00    -0.011 A 
ATOM      7  C   LIG    1       -7.289   1.550  -3.134  0.00  0.00    +0.006 A 
ATOM      8  C   LIG    1       -8.287   0.760  -3.671  0.00  0.00    +0.000 A 
ATOM      9  C   LIG    1       -8.948  -0.157  -2.874  0.00  0.00    +0.001 A 
ATOM     10  C   LIG    1       -8.609  -0.288  -1.545  0.00  0.00    +0.009 A 
ATOM     11  C   LIG    1       -7.596   0.508  -0.995  0.00  0.00    -0.011 A 
ATOM     12  C   LIG    1       -7.268   0.319   0.438  0.00  0.00    +0.004 A 
ATOM     13  C   LIG    1       -7.268  -1.001   0.912  0.00  0.00    +0.010 A 
ATOM     14  C   LIG    1       -6.968  -1.273   2.228  0.00  0.00    +0.001 A 
ATOM     15  C   LIG    1       -6.660  -0.238   3.094  0.00  0.00    +0.002 A 
ATOM     16  C   LIG    1       -6.659   1.062   2.641  0.00  0.00    +0.024 A 
ATOM     17  C   LIG    1       -6.965   1.356   1.308  0.00  0.00    +0.044 A 
ATOM     18  N   LIG    1       -6.945   2.695   0.946  0.00  0.00    -0.272 N 
ATOM     19  C   LIG    1       -7.534   3.648   1.891  0.00  0.00    +0.138 C 
ATOM     20  C   LIG    1       -6.441   3.194  -0.178  0.00  0.00    +0.244 C 
ATOM     21  O   LIG    1       -6.452   4.395  -0.346  0.00  0.00    -0.273 OA
ENDBRANCH   2   5
BRANCH   1  23
ATOM     22  C   LIG    1       -2.816   0.740   1.456  0.00  0.00    +0.038 C 
ATOM     23  C   LIG    1       -2.449   1.117   0.020  0.00  0.00    +0.156 C 
BRANCH  23  24
ATOM     24  N   LIG    1       -1.191   1.867   0.018  0.00  0.00    -0.302 N 
ATOM     25  H   LIG    1       -1.206   2.966   0.024  0.00  0.00    +0.150 HD
ATOM     26  C   LIG    1       -0.014   1.209   0.009  0.00  0.00    +0.247 C 
ATOM     27  O   LIG    1        0.002  -0.004   0.002  0.00  0.00    -0.273 OA
BRANCH  26  28
ATOM     28  C   LIG    1        1.280   1.980   0.001  0.00  0.00    +0.230 C 
BRANCH  28  29
ATOM     29  C   LIG    1        1.392   2.760  -1.284  0.00  0.00    -0.005 A 
ATOM     30  C   LIG    1        1.807   2.128  -2.441  0.00  0.00    +0.045 A 
ATOM     31  C   LIG    1        1.906   2.843  -3.623  0.00  0.00    +0.126 A 
ATOM     32  F   LIG    1        2.306   2.224  -4.756  0.00  0.00    -0.205 F 
ATOM     33  C   LIG    1        1.599   4.192  -3.643  0.00  0.00    +0.076 A 
ATOM     34  C   LIG    1        1.189   4.825  -2.483  0.00  0.00    +0.126 A 
ATOM     35  F   LIG    1        0.890   6.142  -2.501  0.00  0.00    -0.205 F 
ATOM     36  C   LIG    1        1.086   4.107  -1.303  0.00  0.00    +0.045 A 
ENDBRANCH  28  29
BRANCH  28  37
ATOM     37  O   LIG    1        2.377   1.070   0.102  0.00  0.00    -0.378 OA
ATOM     38  H   LIG    1        3.409   1.451   0.112  0.00  0.00    +0.211 HD
ENDBRANCH  28  37
ENDBRANCH  26  28
ENDBRANCH  23  24
ENDBRANCH   1  23
TORSDOF 6
