REMARK  Name = ZINC58590440
REMARK                            x       y       z     vdW  Elec       q    Type
REMARK                         _______ _______ _______ _____ _____    ______ ____
ROOT
ATOM      1  N   LIG    1        1.487  -4.472  -1.647  0.00  0.00    +0.387 N 
ATOM      2  H   LIG    1        2.140  -3.940  -2.202  0.00  0.00    -0.081 HD
ATOM      3  C   LIG    1        0.179  -4.593  -2.344  0.00  0.00    -0.064 C 
ATOM      4  C   LIG    1       -0.502  -5.804  -1.667  0.00  0.00    -0.017 C 
ATOM      5  C   LIG    1        0.661  -6.656  -1.118  0.00  0.00    -0.017 C 
ATOM      6  C   LIG    1        0.474  -4.960  -3.807  0.00  0.00    +0.029 C 
ATOM      7  C   LIG    1        1.136  -6.355  -3.830  0.00  0.00    +0.170 C 
ATOM      8  C   LIG    1        2.363  -6.358  -2.913  0.00  0.00    +0.029 C 
ATOM      9  C   LIG    1        1.940  -5.882  -1.514  0.00  0.00    -0.064 C 
ENDROOT
BRANCH   1  10
ATOM     10  C   LIG    1        1.313  -3.858  -0.324  0.00  0.00    -0.035 C 
BRANCH  10  15
ATOM     11  C   LIG    1        1.017   1.769  -0.909  0.00  0.00    +0.051 C 
ATOM     12  C   LIG    1        0.833   0.280  -0.766  0.00  0.00    -0.013 A 
ATOM     13  C   LIG    1       -0.315  -0.440  -0.746  0.00  0.00    +0.011 A 
ATOM     14  C   LIG    1       -0.243  -1.813  -0.603  0.00  0.00    +0.009 A 
ATOM     15  C   LIG    1        0.974  -2.399  -0.487  0.00  0.00    -0.026 A 
ATOM     16  S   LIG    1        2.071  -0.994  -0.586  0.00  0.00    -0.100 S 
ENDBRANCH  10  15
ENDBRANCH   1  10
BRANCH   7  17
ATOM     17  O   LIG    1        0.203  -7.339  -3.378  0.00  0.00    -0.489 OA
BRANCH  17  18
ATOM     18  C   LIG    1       -0.640  -7.862  -4.307  0.00  0.00    +0.122 A 
ATOM     19  C   LIG    1       -0.647  -7.357  -5.601  0.00  0.00    +0.046 A 
ATOM     20  C   LIG    1       -1.503  -7.885  -6.550  0.00  0.00    +0.004 A 
ATOM     21  C   LIG    1       -2.356  -8.918  -6.217  0.00  0.00    +0.013 A 
ATOM     22  C   LIG    1       -2.356  -9.432  -4.920  0.00  0.00    +0.040 A 
ATOM     23  C   LIG    1       -1.487  -8.902  -3.965  0.00  0.00    +0.058 A 
BRANCH  22  24
ATOM     24  C   LIG    1       -3.268 -10.539  -4.560  0.00  0.00    +0.242 C 
ATOM     25  N   LIG    1       -4.102 -11.052  -5.486  0.00  0.00    -0.325 N 
ATOM     26  H   LIG    1       -4.701 -11.778  -5.250  0.00  0.00    +0.145 HD
ATOM     27  H   LIG    1       -4.104 -10.696  -6.388  0.00  0.00    +0.145 HD
ATOM     28  O   LIG    1       -3.266 -10.985  -3.430  0.00  0.00    -0.270 OA
ENDBRANCH  22  24
ENDBRANCH  17  18
ENDBRANCH   7  17
TORSDOF 5
