REMARK  Name = ZINC13813816
REMARK                            x       y       z     vdW  Elec       q    Type
REMARK                         _______ _______ _______ _____ _____    ______ ____
ROOT
ATOM      1  C   LIG    1       -1.022   1.301   0.190  0.00  0.00    +0.044 C 
ATOM      2  C   LIG    1       -0.478  -0.101   0.088  0.00  0.00    -0.050 A 
ATOM      3  C   LIG    1       -0.087  -0.603  -1.139  0.00  0.00    +0.008 A 
ATOM      4  C   LIG    1        0.412  -1.888  -1.233  0.00  0.00    -0.024 A 
ATOM      5  C   LIG    1        0.837  -2.436  -2.571  0.00  0.00    +0.046 C 
ATOM      6  C   LIG    1        0.521  -2.672  -0.100  0.00  0.00    +0.113 A 
ATOM      7  C   LIG    1        0.130  -2.170   1.128  0.00  0.00    -0.024 A 
ATOM      8  C   LIG    1        0.248  -3.025   2.364  0.00  0.00    +0.046 C 
ATOM      9  C   LIG    1       -0.365  -0.883   1.222  0.00  0.00    +0.008 A 
ENDROOT
BRANCH   6  10
ATOM     10  S   LIG    1        1.156  -4.311  -0.219  0.00  0.00    +0.080 S 
ATOM     11  O   LIG    1        1.717  -4.623   1.048  0.00  0.00    -0.151 OA
ATOM     12  O   LIG    1        1.911  -4.367  -1.422  0.00  0.00    -0.151 OA
BRANCH  10  13
ATOM     13  N   LIG    1       -0.138  -5.324  -0.425  0.00  0.00    -0.071 NA
ATOM     14  H   LIG    1       -0.356  -5.977   0.258  0.00  0.00    +0.181 HD
BRANCH  13  15
ATOM     15  O   LIG    1       -0.926  -5.236  -1.599  0.00  0.00    -0.295 OA
ATOM     16  H   LIG    1       -1.658  -5.867  -1.629  0.00  0.00    +0.238 HD
ENDBRANCH  13  15
ENDBRANCH  10  13
ENDBRANCH   6  10
TORSDOF 3
