REMARK  Name = ZINC29313830
REMARK                            x       y       z     vdW  Elec       q    Type
REMARK                         _______ _______ _______ _____ _____    ______ ____
ROOT
ATOM      1  C   LIG    1       -0.124   1.189   0.110  0.00  0.00    +0.015 C 
ENDROOT
BRANCH   1   2
ATOM      2  N   LIG    1        0.033  -0.263  -0.044  0.00  0.00    +0.386 N 
ATOM      3  H   LIG    1        0.576  -0.667   0.823  0.00  0.00    -0.089 HD
ATOM      4  H   LIG    1       -0.959  -0.734  -0.108  0.00  0.00    -0.089 HD
ATOM      5  H   LIG    1        0.600  -0.476  -0.963  0.00  0.00    -0.089 HD
ENDBRANCH   1   2
BRANCH   1   6
ATOM      6  P   LIG    1       -1.023   1.859  -1.328  0.00  0.00    +0.177 P 
ATOM      7  O   LIG    1       -1.476   3.236  -1.028  0.00  0.00    -0.296 OA
ATOM      8  H   LIG    1       -1.964   1.376  -1.629  0.00  0.00    +0.126 HD
BRANCH   6   9
ATOM      9  O   LIG    1       -0.048   1.881  -2.608  0.00  0.00    -0.347 OA
ATOM     10  H   LIG    1        0.249   0.979  -2.804  0.00  0.00    +0.217 HD
ENDBRANCH   6   9
ENDBRANCH   1   6
BRANCH   1  11
ATOM     11  C   LIG    1       -0.912   1.484   1.387  0.00  0.00    +0.028 C 
BRANCH  11  15
ATOM     12  C   LIG    1        1.366   0.250   4.784  0.00  0.00    +0.000 A 
ATOM     13  C   LIG    1        1.437   1.558   4.342  0.00  0.00    +0.000 A 
ATOM     14  C   LIG    1        0.700   1.958   3.243  0.00  0.00    +0.003 A 
ATOM     15  C   LIG    1       -0.108   1.049   2.585  0.00  0.00    -0.048 A 
ATOM     16  C   LIG    1       -0.183  -0.258   3.030  0.00  0.00    +0.003 A 
ATOM     17  C   LIG    1        0.558  -0.658   4.126  0.00  0.00    +0.000 A 
ENDBRANCH  11  15
ENDBRANCH   1  11
TORSDOF 5
