REMARK  Name = ZINC13840591
REMARK                            x       y       z     vdW  Elec       q    Type
REMARK                         _______ _______ _______ _____ _____    ______ ____
ROOT
ATOM      1  C   LIG    1       -0.071   5.359   0.029  0.00  0.00    +0.047 C 
ATOM      2  C   LIG    1       -0.056   3.852   0.022  0.00  0.00    -0.008 A 
ATOM      3  C   LIG    1       -1.244   3.151   0.029  0.00  0.00    +0.015 A 
ATOM      4  C   LIG    1       -1.229   1.757   0.017  0.00  0.00    -0.017 A 
ATOM      5  C   LIG    1       -0.013   1.076   0.008  0.00  0.00    +0.012 A 
ATOM      6  C   LIG    1        1.172   1.782   0.000  0.00  0.00    +0.046 A 
ATOM      7  C   LIG    1        1.154   3.171   0.008  0.00  0.00    +0.120 A 
ENDROOT
BRANCH   4   8
ATOM      8  C   LIG    1       -2.505   1.000   0.019  0.00  0.00    -0.016 A 
ATOM      9  C   LIG    1       -3.721   1.680   0.035  0.00  0.00    +0.008 A 
ATOM     10  C   LIG    1       -4.905   0.972   0.031  0.00  0.00    +0.002 A 
ATOM     11  C   LIG    1       -4.887  -0.412   0.023  0.00  0.00    +0.020 A 
ATOM     12  C   LIG    1       -3.682  -1.093   0.013  0.00  0.00    +0.042 A 
ATOM     13 CL   LIG    1       -3.668  -2.829   0.005  0.00  0.00    -0.084 Cl
ATOM     14  C   LIG    1       -2.491  -0.393   0.012  0.00  0.00    +0.028 A 
ENDBRANCH   4   8
BRANCH   7  15
ATOM     15  O   LIG    1        2.322   3.864   0.000  0.00  0.00    -0.507 OA
ATOM     16  H   LIG    1        2.652   4.069  -0.885  0.00  0.00    +0.292 HD
ENDBRANCH   7  15
TORSDOF 2
