REMARK  Name = ZINC00021786
REMARK                            x       y       z     vdW  Elec       q    Type
REMARK                         _______ _______ _______ _____ _____    ______ ____
ROOT
ATOM      1  C   LIG    1       -0.006  -2.787  -4.879  0.00  0.00    +0.021 C 
ATOM      2  C   LIG    1        0.480  -2.189  -6.006  0.00  0.00    +0.046 C 
ATOM      3  C   LIG    1        1.142  -0.869  -6.112  0.00  0.00    +0.008 A 
ATOM      4  C   LIG    1        1.460   0.116  -5.182  0.00  0.00    +0.010 A 
ATOM      5  C   LIG    1        2.094   1.270  -5.597  0.00  0.00    +0.001 A 
ATOM      6  C   LIG    1        2.411   1.446  -6.933  0.00  0.00    +0.002 A 
ATOM      7  C   LIG    1        2.100   0.475  -7.864  0.00  0.00    +0.024 A 
ATOM      8  C   LIG    1        1.462  -0.695  -7.465  0.00  0.00    +0.042 A 
ATOM      9  N   LIG    1        1.043  -1.809  -8.181  0.00  0.00    -0.281 N 
ATOM     10  H   LIG    1        1.156  -1.918  -9.139  0.00  0.00    +0.155 HD
ATOM     11  C   LIG    1        0.466  -2.720  -7.379  0.00  0.00    +0.249 C 
ATOM     12  O   LIG    1        0.010  -3.794  -7.726  0.00  0.00    -0.270 OA
ENDROOT
BRANCH   1  16
ATOM     13  C   LIG    1       -0.311  -0.584  -1.282  0.00  0.00    +0.029 A 
ATOM     14  C   LIG    1        0.196  -1.882  -1.261  0.00  0.00    +0.023 A 
ATOM     15  C   LIG    1        0.296  -2.597  -2.420  0.00  0.00    +0.010 A 
ATOM     16  C   LIG    1       -0.112  -2.024  -3.633  0.00  0.00    -0.024 A 
ATOM     17  C   LIG    1       -0.621  -0.717  -3.649  0.00  0.00    +0.010 A 
ATOM     18  C   LIG    1       -0.723  -0.012  -2.484  0.00  0.00    +0.023 A 
BRANCH  13  20
ATOM     19  C   LIG    1       -0.949   1.503  -0.119  0.00  0.00    +0.129 C 
ATOM     20  N   LIG    1       -0.411   0.140  -0.100  0.00  0.00    -0.336 N 
ATOM     21  C   LIG    1        0.021  -0.459   1.165  0.00  0.00    +0.129 C 
ENDBRANCH  13  20
ENDBRANCH   1  16
TORSDOF 2
