REMARK  Name = ZINC00001160
REMARK                            x       y       z     vdW  Elec       q    Type
REMARK                         _______ _______ _______ _____ _____    ______ ____
ROOT
ATOM      1  C   LIG    1       -0.017   1.378   0.010  0.00  0.00    +0.001 A 
ATOM      2  C   LIG    1        1.170   2.088   0.002  0.00  0.00    +0.004 A 
ATOM      3  C   LIG    1        2.377   1.417  -0.013  0.00  0.00    +0.046 A 
ATOM      4  C   LIG    1        2.399   0.030  -0.021  0.00  0.00    +0.125 A 
ATOM      5  C   LIG    1        1.207  -0.680  -0.013  0.00  0.00    -0.003 A 
ATOM      6  C   LIG    1        0.002  -0.004   0.002  0.00  0.00    +0.007 A 
ENDROOT
BRANCH   5   7
ATOM      7  C   LIG    1        1.227  -2.187  -0.022  0.00  0.00    +0.023 C 
ATOM      8  C   LIG    1       -0.108  -2.909  -0.216  0.00  0.00    +0.009 C 
ATOM      9  C   LIG    1        0.570  -2.909   1.156  0.00  0.00    +0.009 C 
ENDBRANCH   5   7
BRANCH   4  10
ATOM     10  O   LIG    1        3.586  -0.632  -0.037  0.00  0.00    -0.480 OA
BRANCH  10  11
ATOM     11  C   LIG    1        4.772   0.164  -0.045  0.00  0.00    +0.352 C 
BRANCH  11  12
ATOM     12  C   LIG    1        5.981  -0.737  -0.062  0.00  0.00    +0.277 C 
ATOM     13  N   LIG    1        5.884  -2.046  -0.074  0.00  0.00    -0.273 N 
ATOM     14  H   LIG    1        5.054  -2.547  -0.071  0.00  0.00    +0.304 HD
ATOM     15  C   LIG    1        7.234  -2.632  -0.089  0.00  0.00    +0.276 C 
ATOM     16  C   LIG    1        8.155  -1.395  -0.085  0.00  0.00    +0.268 C 
ATOM     17  N   LIG    1        7.207  -0.270  -0.072  0.00  0.00    -0.234 N 
ATOM     18  H   LIG    1        7.450   0.669  -0.070  0.00  0.00    +0.291 HD
ENDBRANCH  11  12
ENDBRANCH  10  11
ENDBRANCH   4  10
TORSDOF 4
