REMARK  Name = ZINC14276303
REMARK                            x       y       z     vdW  Elec       q    Type
REMARK                         _______ _______ _______ _____ _____    ______ ____
ROOT
ATOM      1  C   LIG    1       -0.682   1.907  -1.098  0.00  0.00    +0.005 C 
ENDROOT
BRANCH   1   2
ATOM      2  C   LIG    1        0.146   1.653  -2.359  0.00  0.00    +0.000 C 
BRANCH   2   3
ATOM      3  C   LIG    1       -0.559   2.275  -3.566  0.00  0.00    +0.000 C 
BRANCH   3   4
ATOM      4  C   LIG    1        0.269   2.021  -4.827  0.00  0.00    +0.000 C 
BRANCH   4   5
ATOM      5  C   LIG    1       -0.437   2.643  -6.034  0.00  0.00    +0.000 C 
BRANCH   5   6
ATOM      6  C   LIG    1        0.391   2.389  -7.295  0.00  0.00    -0.000 C 
BRANCH   6   7
ATOM      7  C   LIG    1       -0.314   3.011  -8.502  0.00  0.00    -0.000 C 
BRANCH   7   8
ATOM      8  C   LIG    1        0.514   2.757  -9.764  0.00  0.00    -0.000 C 
BRANCH   8   9
ATOM      9  C   LIG    1       -0.191   3.379 -10.970  0.00  0.00    -0.000 C 
BRANCH   9  10
ATOM     10  C   LIG    1        0.637   3.125 -12.232  0.00  0.00    -0.000 C 
BRANCH  10  11
ATOM     11  C   LIG    1       -0.068   3.747 -13.439  0.00  0.00    -0.000 C 
BRANCH  11  13
ATOM     12  C   LIG    1        0.054   4.115 -15.907  0.00  0.00    +0.004 C 
ATOM     13  C   LIG    1        0.759   3.493 -14.700  0.00  0.00    -0.003 C 
ENDBRANCH  11  13
ENDBRANCH  10  11
ENDBRANCH   9  10
ENDBRANCH   8   9
ENDBRANCH   7   8
ENDBRANCH   6   7
ENDBRANCH   5   6
ENDBRANCH   4   5
ENDBRANCH   3   4
ENDBRANCH   2   3
ENDBRANCH   1   2
BRANCH   1  14
ATOM     14  C   LIG    1        0.023   1.285   0.109  0.00  0.00    +0.043 C 
BRANCH  14  15
ATOM     15  C   LIG    1       -0.792   1.535   1.351  0.00  0.00    +0.046 C 
ATOM     16  C   LIG    1       -1.660   0.605   1.784  0.00  0.00    +0.043 C 
ATOM     17  C   LIG    1       -1.727  -0.737   1.103  0.00  0.00    +0.051 C 
BRANCH  16  18
ATOM     18  C   LIG    1       -2.547   0.898   2.926  0.00  0.00    +0.333 C 
ATOM     19  O   LIG    1       -2.568   2.013   3.408  0.00  0.00    -0.245 OA
BRANCH  18  20
ATOM     20  O   LIG    1       -3.333  -0.071   3.435  0.00  0.00    -0.477 OA
ATOM     21  H   LIG    1       -3.316  -0.931   3.063  0.00  0.00    +0.295 HD
ENDBRANCH  18  20
ENDBRANCH  16  18
BRANCH  15  22
ATOM     22  C   LIG    1       -0.638   2.801   2.093  0.00  0.00    +0.333 C 
ATOM     23  O   LIG    1       -1.128   3.824   1.657  0.00  0.00    -0.245 OA
BRANCH  22  24
ATOM     24  O   LIG    1        0.047   2.824   3.253  0.00  0.00    -0.477 OA
ATOM     25  H   LIG    1        0.425   2.035   3.589  0.00  0.00    +0.295 HD
ENDBRANCH  22  24
ENDBRANCH  15  22
ENDBRANCH  14  15
ENDBRANCH   1  14
TORSDOF 17
