REMARK  Name = ZINC00056526
REMARK                            x       y       z     vdW  Elec       q    Type
REMARK                         _______ _______ _______ _____ _____    ______ ____
ROOT
ATOM      1  C   LIG    1        0.409  -0.683   3.620  0.00  0.00    +0.353 C 
ATOM      2  N   LIG    1        0.715  -1.950   3.626  0.00  0.00    -0.291 N 
ATOM      3  H   LIG    1        0.969  -2.391   2.800  0.00  0.00    +0.255 HD
ATOM      4  H   LIG    1        0.689  -2.451   4.456  0.00  0.00    +0.255 HD
ENDROOT
BRANCH   1   5
ATOM      5  N   LIG    1        0.363   0.009   2.431  0.00  0.00    -0.246 N 
ATOM      6  H   LIG    1        0.485  -0.461   1.591  0.00  0.00    +0.265 HD
BRANCH   5  13
ATOM      7  C   LIG    1        2.504   1.713   3.214  0.00  0.00    +0.047 C 
ATOM      8  C   LIG    1        1.159   2.258   2.809  0.00  0.00    -0.012 A 
ATOM      9  C   LIG    1        0.938   3.621   2.804  0.00  0.00    +0.007 A 
ATOM     10  C   LIG    1       -0.296   4.122   2.433  0.00  0.00    +0.000 A 
ATOM     11  C   LIG    1       -1.313   3.261   2.065  0.00  0.00    +0.003 A 
ATOM     12  C   LIG    1       -1.099   1.897   2.066  0.00  0.00    +0.042 A 
ATOM     13  C   LIG    1        0.141   1.390   2.433  0.00  0.00    +0.103 A 
ENDBRANCH   5  13
ENDBRANCH   1   5
BRANCH   1  14
ATOM     14  N   LIG    1        0.132  -0.036   4.804  0.00  0.00    -0.246 N 
ATOM     15  H   LIG    1       -0.065   0.914   4.803  0.00  0.00    +0.265 HD
BRANCH  14  16
ATOM     16  C   LIG    1        0.133  -0.749   6.007  0.00  0.00    +0.103 A 
ATOM     17  C   LIG    1        1.166  -0.574   6.919  0.00  0.00    +0.042 A 
ATOM     18  C   LIG    1        1.165  -1.279   8.106  0.00  0.00    +0.003 A 
ATOM     19  C   LIG    1        0.136  -2.159   8.388  0.00  0.00    +0.000 A 
ATOM     20  C   LIG    1       -0.893  -2.337   7.482  0.00  0.00    +0.007 A 
ATOM     21  C   LIG    1       -0.901  -1.630   6.295  0.00  0.00    -0.012 A 
ATOM     22  C   LIG    1       -2.027  -1.819   5.312  0.00  0.00    +0.047 C 
ENDBRANCH  14  16
ENDBRANCH   1  14
TORSDOF 4
