REMARK  Name = ZINC43203068
REMARK                            x       y       z     vdW  Elec       q    Type
REMARK                         _______ _______ _______ _____ _____    ______ ____
ROOT
ATOM      1  C   LIG    1       -2.039  -0.734  -1.207  0.00  0.00    +0.439 C 
ATOM      2  N   LIG    1       -1.479  -0.469  -2.390  0.00  0.00    +0.014 NA
ENDROOT
BRANCH   1   3
ATOM      3  N   LIG    1       -3.279  -1.205  -1.151  0.00  0.00    -0.069 NA
ATOM      4  C   LIG    1       -3.600  -2.342  -1.805  0.00  0.00    +0.151 A 
ATOM      5  C   LIG    1       -2.614  -3.110  -2.429  0.00  0.00    +0.046 A 
ATOM      6  C   LIG    1       -2.953  -4.271  -3.095  0.00  0.00    +0.006 A 
ATOM      7  C   LIG    1       -4.259  -4.710  -3.168  0.00  0.00    +0.026 A 
ATOM      8  C   LIG    1       -5.287  -3.994  -2.569  0.00  0.00    +0.050 A 
ATOM      9  N   LIG    1       -6.587  -4.427  -2.639  0.00  0.00    -0.361 N 
ATOM     10  H   LIG    1       -6.799  -5.253  -3.131  0.00  0.00    +0.165 HD
ATOM     11  C   LIG    1       -7.572  -3.737  -2.044  0.00  0.00    +0.083 A 
ATOM     12  C   LIG    1       -7.321  -2.571  -1.361  0.00  0.00    +0.018 A 
ATOM     13  C   LIG    1       -6.024  -2.083  -1.263  0.00  0.00    +0.015 A 
ATOM     14  C   LIG    1       -4.989  -2.801  -1.871  0.00  0.00    +0.040 A 
ENDBRANCH   1   3
BRANCH   1  15
ATOM     15  N   LIG    1       -1.329  -0.519  -0.045  0.00  0.00    -0.265 N 
ATOM     16  H   LIG    1       -0.453  -0.105  -0.081  0.00  0.00    +0.259 HD
BRANCH  15  18
ATOM     17  C   LIG    1       -1.674  -2.415   1.462  0.00  0.00    +0.053 C 
ATOM     18  C   LIG    1       -1.899  -0.917   1.245  0.00  0.00    +0.172 C 
BRANCH  18  19
ATOM     19  C   LIG    1       -1.227  -0.144   2.351  0.00  0.00    -0.011 A 
ATOM     20  C   LIG    1        0.134   0.093   2.300  0.00  0.00    +0.007 A 
ATOM     21  C   LIG    1        0.750   0.803   3.314  0.00  0.00    +0.000 A 
ATOM     22  C   LIG    1        0.005   1.276   4.378  0.00  0.00    +0.000 A 
ATOM     23  C   LIG    1       -1.356   1.039   4.428  0.00  0.00    +0.000 A 
ATOM     24  C   LIG    1       -1.973   0.333   3.412  0.00  0.00    +0.007 A 
ENDBRANCH  18  19
ENDBRANCH  15  18
ENDBRANCH   1  15
BRANCH   2  25
ATOM     25  C   LIG    1       -0.180  -0.088  -2.455  0.00  0.00    +0.296 C 
ATOM     26  N   LIG    1        0.908   0.232  -2.509  0.00  0.00    -0.151 NA
ENDBRANCH   2  25
TORSDOF 5
