REMARK  Name = ZINC13779560
REMARK                            x       y       z     vdW  Elec       q    Type
REMARK                         _______ _______ _______ _____ _____    ______ ____
ROOT
ATOM      1  C   LIG    1       -1.184   3.414   1.001  0.00  0.00    +0.033 C 
ATOM      2  C   LIG    1        0.121   4.214   0.960  0.00  0.00    +0.160 C 
ATOM      3  O   LIG    1        0.851   3.994   2.168  0.00  0.00    -0.380 OA
ATOM      4  C   LIG    1        1.225   2.632   2.384  0.00  0.00    +0.160 C 
ATOM      5  C   LIG    1       -0.036   1.768   2.482  0.00  0.00    +0.033 C 
ATOM      6  C   LIG    1       -0.858   1.931   1.200  0.00  0.00    -0.031 C 
ENDROOT
BRANCH   6   7
ATOM      7  C   LIG    1       -2.157   1.131   1.320  0.00  0.00    -0.079 C 
BRANCH   7   8
ATOM      8  N   LIG    1       -2.890   1.213   0.044  0.00  0.00    +0.378 N 
ATOM      9  H   LIG    1       -3.089   2.198  -0.167  0.00  0.00    -0.090 HD
ATOM     10  H   LIG    1       -3.769   0.704   0.113  0.00  0.00    -0.090 HD
ATOM     11  H   LIG    1       -2.327   0.819  -0.708  0.00  0.00    -0.090 HD
ENDBRANCH   7   8
ENDBRANCH   6   7
BRANCH   6  12
ATOM     12  C   LIG    1       -0.050   1.419   0.006  0.00  0.00    +0.125 C 
BRANCH  12  13
ATOM     13  C   LIG    1        0.187  -0.061   0.157  0.00  0.00    +0.305 C 
ATOM     14  O   LIG    1       -0.155  -0.628   1.168  0.00  0.00    -0.251 OA
BRANCH  13  15
ATOM     15  O   LIG    1        0.777  -0.751  -0.832  0.00  0.00    -0.481 OA
ATOM     16  H   LIG    1        1.042  -0.311  -1.616  0.00  0.00    +0.295 HD
ENDBRANCH  13  15
ENDBRANCH  12  13
ENDBRANCH   6  12
TORSDOF 5
