REMARK  Name = ZINC34212553
REMARK                            x       y       z     vdW  Elec       q    Type
REMARK                         _______ _______ _______ _____ _____    ______ ____
ROOT
ATOM      1  C   LIG    1       -0.019   1.523   0.010  0.00  0.00    +0.012 C 
ATOM      2  C   LIG    1        0.002  -0.004   0.002  0.00  0.00    -0.016 C 
ATOM      3  C   LIG    1       -1.388  -0.581   0.001  0.00  0.00    +0.008 C 
ATOM      4  C   LIG    1       -2.014  -0.556   1.400  0.00  0.00    +0.005 C 
ATOM      5  C   LIG    1       -1.175   0.196   2.416  0.00  0.00    +0.000 C 
ATOM      6  C   LIG    1        0.247  -0.354   2.502  0.00  0.00    -0.004 C 
ATOM      7  C   LIG    1        1.089   0.563   3.387  0.00  0.00    +0.006 C 
ATOM      8  C   LIG    1        0.491   0.557   4.802  0.00  0.00    +0.023 C 
ATOM      9  C   LIG    1       -0.766  -0.300   4.831  0.00  0.00    +0.079 C 
ATOM     10  N   LIG    1       -1.364  -0.345   6.159  0.00  0.00    -0.312 N 
ATOM     11  H   LIG    1       -0.790  -0.233   6.930  0.00  0.00    +0.149 HD
ATOM     12  C   LIG    1       -2.673  -0.541   6.348  0.00  0.00    +0.213 C 
ATOM     13  O   LIG    1       -3.077  -0.610   7.490  0.00  0.00    -0.276 OA
ATOM     14  C   LIG    1       -3.672  -0.678   5.239  0.00  0.00    +0.096 C 
ATOM     15  C   LIG    1       -3.000  -0.773   3.869  0.00  0.00    +0.018 C 
ATOM     16  C   LIG    1       -1.801   0.170   3.813  0.00  0.00    -0.010 C 
ATOM     17  C   LIG    1       -2.258   1.594   4.151  0.00  0.00    +0.013 C 
ATOM     18  C   LIG    1        0.879  -0.423  -1.201  0.00  0.00    +0.104 C 
ATOM     19  C   LIG    1        2.323  -0.171  -0.698  0.00  0.00    +0.015 C 
ATOM     20  C   LIG    1        2.234  -0.055   0.851  0.00  0.00    +0.005 C 
ATOM     21  C   LIG    1        0.835  -0.607   1.152  0.00  0.00    -0.001 C 
ENDROOT
BRANCH  18  22
ATOM     22  C   LIG    1        0.570   0.449  -2.385  0.00  0.00    +0.308 C 
ATOM     23  O   LIG    1        1.436   0.688  -3.208  0.00  0.00    -0.251 OA
BRANCH  22  24
ATOM     24  O   LIG    1       -0.548   0.917  -2.522  0.00  0.00    -0.480 OA
ATOM     25  H   LIG    1       -1.214   0.733  -1.889  0.00  0.00    +0.295 HD
ENDBRANCH  22  24
ENDBRANCH  18  22
TORSDOF 2
