REMARK  Name = ZINC52509466
REMARK                            x       y       z     vdW  Elec       q    Type
REMARK                         _______ _______ _______ _____ _____    ______ ____
ROOT
ATOM      1  C   LIG    1        1.245   0.629   1.823  0.00  0.00    +0.136 A 
ATOM      2  C   LIG    1        2.073   0.251   2.908  0.00  0.00    +0.059 A 
ATOM      3  C   LIG    1        2.653  -1.023   2.990  0.00  0.00    +0.017 A 
ATOM      4  C   LIG    1        3.440  -1.305   4.071  0.00  0.00    +0.029 A 
ATOM      5  C   LIG    1        3.644  -0.330   5.056  0.00  0.00    +0.073 A 
ATOM      6  N   LIG    1        3.091   0.869   4.968  0.00  0.00    -0.227 NA
ATOM      7  C   LIG    1        2.316   1.196   3.935  0.00  0.00    +0.167 A 
ATOM      8  N   LIG    1        1.751   2.408   3.836  0.00  0.00    -0.194 NA
ATOM      9  C   LIG    1        0.987   2.710   2.804  0.00  0.00    +0.222 A 
ATOM     10  N   LIG    1        0.738   1.854   1.817  0.00  0.00    -0.199 NA
ENDROOT
BRANCH   1  17
ATOM     11  C   LIG    1       -1.166  -0.620   1.936  0.00  0.00    +0.030 C 
ATOM     12  C   LIG    1       -0.238  -1.083   0.811  0.00  0.00    +0.097 C 
ATOM     13  C   LIG    1       -0.946  -0.926  -0.540  0.00  0.00    +0.182 C 
ATOM     14  O   LIG    1       -0.013  -1.181  -1.593  0.00  0.00    -0.376 OA
ATOM     15  C   LIG    1        1.085  -0.267  -1.637  0.00  0.00    +0.179 C 
ATOM     16  C   LIG    1        1.897  -0.390  -0.343  0.00  0.00    +0.135 C 
ATOM     17  N   LIG    1        0.977  -0.252   0.798  0.00  0.00    -0.307 N 
ENDBRANCH   1  17
BRANCH   9  18
ATOM     18  N   LIG    1        0.425   3.971   2.742  0.00  0.00    -0.292 N 
ATOM     19  C   LIG    1       -0.538   4.321   1.687  0.00  0.00    +0.136 C 
ATOM     20  C   LIG    1       -0.086   5.632   1.035  0.00  0.00    +0.179 C 
ATOM     21  O   LIG    1        0.126   6.614   2.051  0.00  0.00    -0.376 OA
ATOM     22  C   LIG    1        1.161   6.282   2.980  0.00  0.00    +0.182 C 
ATOM     23  C   LIG    1        0.768   5.002   3.735  0.00  0.00    +0.099 C 
ATOM     24  C   LIG    1        1.945   4.524   4.588  0.00  0.00    +0.030 C 
ENDBRANCH   9  18
BRANCH   5  25
ATOM     25  C   LIG    1        4.499  -0.648   6.224  0.00  0.00    +0.001 A 
ATOM     26  C   LIG    1        5.096  -1.905   6.331  0.00  0.00    +0.013 A 
ATOM     27  C   LIG    1        5.891  -2.197   7.418  0.00  0.00    +0.046 A 
ATOM     28  C   LIG    1        6.098  -1.243   8.406  0.00  0.00    +0.125 A 
ATOM     29  C   LIG    1        5.506   0.009   8.302  0.00  0.00    +0.020 A 
ATOM     30  C   LIG    1        4.714   0.310   7.215  0.00  0.00    +0.019 A 
BRANCH  28  31
ATOM     31  O   LIG    1        6.882  -1.535   9.476  0.00  0.00    -0.495 OA
ATOM     32  C   LIG    1        7.460  -2.841   9.521  0.00  0.00    +0.277 C 
ENDBRANCH  28  31
BRANCH  29  33
ATOM     33  C   LIG    1        5.734   1.041   9.376  0.00  0.00    +0.194 C 
BRANCH  33  34
ATOM     34  O   LIG    1        5.025   2.237   9.045  0.00  0.00    -0.390 OA
ATOM     35  H   LIG    1        5.127   2.946   9.694  0.00  0.00    +0.210 HD
ENDBRANCH  33  34
ENDBRANCH  29  33
ENDBRANCH   5  25
TORSDOF 6
