REMARK  Name = ZINC59926595
REMARK                            x       y       z     vdW  Elec       q    Type
REMARK                         _______ _______ _______ _____ _____    ______ ____
ROOT
ATOM      1  C   LIG    1        0.020  -2.147  -1.196  0.00  0.00    +0.258 C 
ENDROOT
BRANCH   1   2
ATOM      2  C   LIG    1        0.013  -2.642  -2.620  0.00  0.00    -0.005 A 
ATOM      3  C   LIG    1       -1.188  -2.880  -3.263  0.00  0.00    +0.007 A 
ATOM      4  C   LIG    1       -1.197  -3.334  -4.569  0.00  0.00    +0.004 A 
ATOM      5  C   LIG    1       -0.006  -3.551  -5.234  0.00  0.00    +0.045 A 
ATOM      6  C   LIG    1        1.200  -3.314  -4.591  0.00  0.00    +0.120 A 
ATOM      7  C   LIG    1        1.206  -2.852  -3.283  0.00  0.00    +0.053 A 
BRANCH   6   8
ATOM      8  O   LIG    1        2.372  -3.527  -5.244  0.00  0.00    -0.495 OA
ATOM      9  C   LIG    1        2.289  -3.996  -6.591  0.00  0.00    +0.277 C 
ENDBRANCH   6   8
ENDBRANCH   1   2
BRANCH   1  10
ATOM     10  N   LIG    1        0.000  -0.683  -1.188  0.00  0.00    -0.237 N 
ATOM     11  H   LIG    1       -0.015  -0.193  -2.026  0.00  0.00    +0.291 HD
BRANCH  10  13
ATOM     12  C   LIG    1       -0.018   1.503   0.010  0.00  0.00    +0.139 C 
ATOM     13  C   LIG    1        0.002  -0.004   0.002  0.00  0.00    +0.233 C 
ATOM     14  N   LIG    1        0.021  -0.657   1.118  0.00  0.00    -0.293 N 
ATOM     15  H   LIG    1        0.035  -1.627   1.113  0.00  0.00    +0.301 HD
ATOM     16  H   LIG    1        0.023  -0.176   1.961  0.00  0.00    +0.301 HD
ENDBRANCH  10  13
ENDBRANCH   1  10
TORSDOF 4
