REMARK  Name = ZINC18825344
REMARK                            x       y       z     vdW  Elec       q    Type
REMARK                         _______ _______ _______ _____ _____    ______ ____
ROOT
ATOM      1  C   LIG    1        4.706   0.629   1.012  0.00  0.00    +0.047 C 
ATOM      2  C   LIG    1        3.246   0.838   0.698  0.00  0.00    -0.013 A 
ATOM      3  C   LIG    1        2.598   2.050   0.568  0.00  0.00    +0.044 A 
ATOM      4  N   LIG    1        1.273   1.796   0.279  0.00  0.00    -0.358 N 
ATOM      5  C   LIG    1        1.078   0.468   0.226  0.00  0.00    +0.026 A 
ATOM      6  C   LIG    1       -0.233  -0.216  -0.064  0.00  0.00    +0.064 C 
ATOM      7  H   LIG    1        0.572   2.631   0.134  0.00  0.00    +0.166 HD
ATOM      8  C   LIG    1        2.280  -0.168   0.481  0.00  0.00    +0.060 A 
ENDROOT
BRANCH   3   9
ATOM      9  C   LIG    1        3.188   3.326   0.706  0.00  0.00    +0.039 C 
ATOM     10  C   LIG    1        2.451   4.375   1.219  0.00  0.00    +0.048 C 
ATOM     11  C   LIG    1        2.852   5.797   1.308  0.00  0.00    +0.011 A 
ATOM     12  C   LIG    1        3.994   6.491   0.923  0.00  0.00    +0.048 A 
ATOM     13  C   LIG    1        4.071   7.854   1.136  0.00  0.00    +0.124 A 
ATOM     14  F   LIG    1        5.181   8.533   0.771  0.00  0.00    -0.205 F 
ATOM     15  C   LIG    1        3.010   8.526   1.725  0.00  0.00    +0.040 A 
ATOM     16  C   LIG    1        1.870   7.846   2.103  0.00  0.00    +0.027 A 
ATOM     17  C   LIG    1        1.775   6.474   1.897  0.00  0.00    +0.042 A 
ATOM     18  N   LIG    1        0.762   5.564   2.178  0.00  0.00    -0.281 N 
ATOM     19  H   LIG    1       -0.170   5.907   2.650  0.00  0.00    +0.155 HD
ATOM     20  C   LIG    1        1.104   4.319   1.802  0.00  0.00    +0.249 C 
ATOM     21  O   LIG    1        0.417   3.321   1.924  0.00  0.00    -0.270 OA
ENDBRANCH   3   9
BRANCH   8  22
ATOM     22  C   LIG    1        2.509  -1.623   0.519  0.00  0.00    +0.246 C 
ATOM     23  N   LIG    1        2.366  -2.298   1.677  0.00  0.00    -0.309 N 
ATOM     24  H   LIG    1        2.079  -1.762   2.594  0.00  0.00    +0.149 HD
ATOM     25  O   LIG    1        2.826  -2.216  -0.494  0.00  0.00    -0.270 OA
BRANCH  23  26
ATOM     26  C   LIG    1        2.594  -3.744   1.715  0.00  0.00    +0.137 C 
BRANCH  26  27
ATOM     27  C   LIG    1        2.367  -4.259   3.138  0.00  0.00    +0.145 C 
BRANCH  27  28
ATOM     28  O   LIG    1        3.276  -3.610   4.030  0.00  0.00    -0.389 OA
ATOM     29  H   LIG    1        3.263  -3.853   5.102  0.00  0.00    +0.210 HD
ENDBRANCH  27  28
BRANCH  27  30
ATOM     30  C   LIG    1        2.604  -5.770   3.178  0.00  0.00    +0.117 C 
BRANCH  30  31
ATOM     31  N   LIG    1        2.338  -6.272   4.533  0.00  0.00    -0.296 NA
ATOM     32  C   LIG    1        2.976  -7.579   4.745  0.00  0.00    +0.112 C 
ATOM     33  C   LIG    1        2.724  -8.037   6.184  0.00  0.00    +0.175 C 
ATOM     34  O   LIG    1        1.315  -8.076   6.427  0.00  0.00    -0.377 OA
ATOM     35  C   LIG    1        0.662  -6.819   6.230  0.00  0.00    +0.175 C 
ATOM     36  C   LIG    1        0.893  -6.350   4.791  0.00  0.00    +0.112 C 
ENDBRANCH  30  31
ENDBRANCH  27  30
ENDBRANCH  26  27
ENDBRANCH  23  26
ENDBRANCH   8  22
TORSDOF 7
