REMARK  Name = ZINC13781225
REMARK                            x       y       z     vdW  Elec       q    Type
REMARK                         _______ _______ _______ _____ _____    ______ ____
ROOT
ATOM      1  C   LIG    1        2.186   4.197   0.003  0.00  0.00    -0.006 A 
ATOM      2  C   LIG    1        1.146   3.166   0.008  0.00  0.00    +0.004 A 
ATOM      3  C   LIG    1        1.165   1.770   0.000  0.00  0.00    +0.010 A 
ATOM      4  C   LIG    1       -0.013   1.076   0.008  0.00  0.00    +0.001 A 
ATOM      5  C   LIG    1       -1.227   1.748   0.017  0.00  0.00    +0.002 A 
ATOM      6  C   LIG    1       -1.268   3.125   0.030  0.00  0.00    +0.026 A 
ATOM      7  C   LIG    1       -0.082   3.852   0.023  0.00  0.00    +0.048 A 
ATOM      8  N   LIG    1        0.204   5.199   0.027  0.00  0.00    -0.349 N 
ATOM      9  H   LIG    1       -0.456   5.909   0.037  0.00  0.00    +0.166 HD
ATOM     10  C   LIG    1        1.560   5.386   0.015  0.00  0.00    +0.087 A 
ATOM     11 BR   LIG    1        2.424   7.068   0.016  0.00  0.00    -0.031 Br
ENDROOT
BRANCH   1  12
ATOM     12  C   LIG    1        3.675   3.969  -0.012  0.00  0.00    +0.057 C 
BRANCH  12  13
ATOM     13  C   LIG    1        4.166   3.899  -1.460  0.00  0.00    +0.109 C 
BRANCH  13  16
ATOM     14  C   LIG    1        7.758   3.352  -2.665  0.00  0.00    +0.109 C 
ATOM     15  C   LIG    1        6.269   3.581  -2.649  0.00  0.00    +0.210 C 
ATOM     16  N   LIG    1        5.614   3.677  -1.475  0.00  0.00    -0.315 N 
ATOM     17  H   LIG    1        6.101   3.599  -0.640  0.00  0.00    +0.149 HD
ATOM     18  O   LIG    1        5.659   3.678  -3.693  0.00  0.00    -0.276 OA
ENDBRANCH  13  16
ENDBRANCH  12  13
ENDBRANCH   1  12
TORSDOF 3
