REMARK  Name = ZINC13801449
REMARK                            x       y       z     vdW  Elec       q    Type
REMARK                         _______ _______ _______ _____ _____    ______ ____
ROOT
ATOM      1  C   LIG    1       -0.017   1.376   0.010  0.00  0.00    +0.015 A 
ATOM      2  C   LIG    1        0.002  -0.004   0.002  0.00  0.00    +0.005 A 
ATOM      3  C   LIG    1        1.208  -0.689  -0.012  0.00  0.00    -0.041 A 
ATOM      4  C   LIG    1        2.395   0.012  -0.018  0.00  0.00    -0.029 A 
ATOM      5  C   LIG    1        3.730  -0.686  -0.027  0.00  0.00    +0.117 C 
ATOM      6  N   LIG    1        3.575  -2.083  -0.442  0.00  0.00    -0.307 NA
ATOM      7  H   LIG    1        3.274  -2.120  -1.500  0.00  0.00    +0.123 HD
ATOM      8  CA  LIG    1        2.547  -2.747   0.375  0.00  0.00    +0.084 C 
ATOM      9  C   LIG    1        2.376   1.399  -0.011  0.00  0.00    +0.020 A 
ATOM     10  C   LIG    1        1.179  -2.195  -0.025  0.00  0.00    +0.056 C 
ATOM     11  C   LIG    1        1.174   2.080   0.002  0.00  0.00    +0.018 A 
ATOM     12 BR   LIG    1        1.157   3.971   0.010  0.00  0.00    -0.050 Br
ENDROOT
BRANCH   8  13
ATOM     13  C   LIG    1        2.586  -4.256   0.124  0.00  0.00    +0.174 C 
BRANCH  13  14
ATOM     14  O   LIG    1        3.822  -4.787   0.606  0.00  0.00    -0.393 OA
ATOM     15  H   LIG    1        4.032  -5.863   0.513  0.00  0.00    +0.209 HD
ENDBRANCH  13  14
ENDBRANCH   8  13
TORSDOF 2
