REMARK  Name = ZINC16890891
REMARK                            x       y       z     vdW  Elec       q    Type
REMARK                         _______ _______ _______ _____ _____    ______ ____
ROOT
ATOM      1  C   LIG    1        0.295   1.446  -0.040  0.00  0.00    +0.068 C 
ATOM      2  C   LIG    1       -0.011  -0.029   0.016  0.00  0.00    +0.070 C 
ATOM      3  N   LIG    1       -0.030  -0.647   1.160  0.00  0.00    -0.185 NA
ENDROOT
BRANCH   2   4
ATOM      4  C   LIG    1       -0.289  -0.767  -1.221  0.00  0.00    +0.035 A 
ATOM      5  C   LIG    1        0.219  -0.563  -2.492  0.00  0.00    +0.017 A 
ATOM      6  C   LIG    1       -0.196  -1.397  -3.504  0.00  0.00    +0.008 A 
ATOM      7  C   LIG    1       -1.084  -2.387  -3.227  0.00  0.00    +0.046 A 
ATOM      8  S   LIG    1       -1.363  -2.170  -1.478  0.00  0.00    -0.095 S 
ENDBRANCH   2   4
BRANCH   3   9
ATOM      9  N   LIG    1       -0.174  -2.040   1.202  0.00  0.00    -0.218 N 
ATOM     10  H   LIG    1       -0.180  -2.552   0.378  0.00  0.00    +0.176 HD
BRANCH   9  11
ATOM     11  C   LIG    1       -0.304  -2.668   2.387  0.00  0.00    +0.147 C 
ATOM     12  S   LIG    1       -0.479  -4.370   2.438  0.00  0.00    -0.017 S 
BRANCH  11  13
ATOM     13  N   LIG    1       -0.295  -1.957   3.531  0.00  0.00    -0.339 N 
ATOM     14  H   LIG    1       -0.389  -2.410   4.384  0.00  0.00    +0.144 HD
ATOM     15  H   LIG    1       -0.196  -0.993   3.502  0.00  0.00    +0.144 HD
ENDBRANCH  11  13
ENDBRANCH   9  11
ENDBRANCH   3   9
TORSDOF 4
