REMARK  Name = ZINC19670935
REMARK                            x       y       z     vdW  Elec       q    Type
REMARK                         _______ _______ _______ _____ _____    ______ ____
ROOT
ATOM      1  C   LIG    1       -2.302  -0.362  -0.100  0.00  0.00    +0.186 C 
ENDROOT
BRANCH   1   5
ATOM      2  C   LIG    1       -5.768  -2.156   1.637  0.00  0.00    +0.000 A 
ATOM      3  C   LIG    1       -4.525  -2.732   1.822  0.00  0.00    +0.000 A 
ATOM      4  C   LIG    1       -3.404  -2.151   1.261  0.00  0.00    +0.007 A 
ATOM      5  C   LIG    1       -3.525  -0.995   0.512  0.00  0.00    -0.009 A 
ATOM      6  C   LIG    1       -4.767  -0.416   0.331  0.00  0.00    +0.007 A 
ATOM      7  C   LIG    1       -5.889  -1.000   0.889  0.00  0.00    +0.000 A 
ENDBRANCH   1   5
BRANCH   1   8
ATOM      8  O   LIG    1       -2.391   1.060   0.019  0.00  0.00    -0.485 OA
BRANCH   8   9
ATOM      9  C   LIG    1       -1.222   1.745   0.121  0.00  0.00    +0.141 A 
ATOM     10  C   LIG    1       -0.020   1.058   0.209  0.00  0.00    +0.067 A 
ATOM     11  C   LIG    1        1.169   1.758   0.307  0.00  0.00    +0.045 A 
ATOM     12 CL   LIG    1        2.674   0.899   0.412  0.00  0.00    -0.083 Cl
ATOM     13  C   LIG    1        1.159   3.142   0.321  0.00  0.00    +0.021 A 
ATOM     14  C   LIG    1       -0.038   3.828   0.238  0.00  0.00    +0.025 A 
ATOM     15  C   LIG    1       -1.229   3.133   0.141  0.00  0.00    +0.083 A 
ATOM     16 CL   LIG    1       -2.732   3.995   0.036  0.00  0.00    -0.080 Cl
ENDBRANCH   8   9
ENDBRANCH   1   8
BRANCH   1  17
ATOM     17  C   LIG    1       -2.216  -0.745  -1.579  0.00  0.00    -0.036 C 
BRANCH  17  18
ATOM     18  N   LIG    1       -0.963  -0.228  -2.146  0.00  0.00    +0.381 N 
ATOM     19  H   LIG    1       -0.942   0.867  -2.050  0.00  0.00    -0.090 HD
ATOM     20  H   LIG    1       -0.109  -0.661  -1.605  0.00  0.00    -0.090 HD
ATOM     21  H   LIG    1       -0.901  -0.504  -3.209  0.00  0.00    -0.090 HD
ENDBRANCH  17  18
ENDBRANCH   1  17
TORSDOF 5
