REMARK  Name = ZINC17014699
REMARK                            x       y       z     vdW  Elec       q    Type
REMARK                         _______ _______ _______ _____ _____    ______ ____
ROOT
ATOM      1  C   LIG    1       -0.017   1.382   0.010  0.00  0.00    +0.001 A 
ATOM      2  C   LIG    1        0.002  -0.004   0.002  0.00  0.00    +0.002 A 
ATOM      3  C   LIG    1        1.196  -0.694  -0.015  0.00  0.00    +0.024 A 
ATOM      4  C   LIG    1        2.403  -0.000  -0.025  0.00  0.00    +0.045 A 
ATOM      5  C   LIG    1        2.379   1.404  -0.013  0.00  0.00    +0.045 A 
ATOM      6  C   LIG    1        3.667   2.135  -0.015  0.00  0.00    +0.221 C 
ATOM      7  C   LIG    1        4.836   1.344   0.482  0.00  0.00    +0.211 C 
ATOM      8  C   LIG    1        4.789  -0.115   0.188  0.00  0.00    +0.274 C 
ATOM      9  O   LIG    1        5.812  -0.771   0.162  0.00  0.00    -0.268 OA
ATOM     10  N   LIG    1        5.827   1.894   1.128  0.00  0.00    -0.078 NA
ATOM     11  O   LIG    1        3.766   3.287  -0.390  0.00  0.00    -0.285 OA
ATOM     12  N   LIG    1        3.599  -0.698  -0.049  0.00  0.00    -0.279 N 
ATOM     13  H   LIG    1        3.603  -1.776  -0.269  0.00  0.00    +0.155 HD
ATOM     14  C   LIG    1        1.166   2.091   0.002  0.00  0.00    +0.013 A 
ENDROOT
BRANCH  10  15
ATOM     15  O   LIG    1        6.909   1.099   1.576  0.00  0.00    -0.409 OA
ATOM     16  H   LIG    1        7.621   1.494   2.039  0.00  0.00    +0.328 HD
ENDBRANCH  10  15
TORSDOF 1
