REMARK  Name = ZINC13946897
REMARK                            x       y       z     vdW  Elec       q    Type
REMARK                         _______ _______ _______ _____ _____    ______ ____
ROOT
ATOM      1  S   LIG    1        1.277   0.290   2.440  0.00  0.00    +0.063 S 
ATOM      2  O   LIG    1        2.260  -0.361   3.233  0.00  0.00    -0.153 OA
ATOM      3  O   LIG    1        0.123   0.898   3.003  0.00  0.00    -0.153 OA
ENDROOT
BRANCH   1  11
ATOM      4  C   LIG    1       -0.817   0.934   0.647  0.00  0.00    +0.026 C 
ATOM      5  C   LIG    1       -0.291  -0.473   0.356  0.00  0.00    +0.077 C 
ATOM      6  C   LIG    1       -1.440  -1.481   0.451  0.00  0.00    +0.020 C 
ATOM      7  C   LIG    1       -0.884  -2.898   0.296  0.00  0.00    +0.003 C 
ATOM      8  C   LIG    1        0.105  -3.186   1.428  0.00  0.00    +0.020 C 
ATOM      9  C   LIG    1        1.272  -2.197   1.345  0.00  0.00    +0.077 C 
ATOM     10  C   LIG    1        2.195  -2.390   2.550  0.00  0.00    +0.026 C 
ATOM     11  N   LIG    1        0.737  -0.828   1.345  0.00  0.00    -0.171 NA
ENDBRANCH   1  11
BRANCH   1  12
ATOM     12  C   LIG    1        2.115   1.546   1.531  0.00  0.00    +0.125 A 
ATOM     13  C   LIG    1        1.636   2.843   1.542  0.00  0.00    +0.050 A 
ATOM     14  C   LIG    1        2.293   3.829   0.828  0.00  0.00    +0.043 A 
ATOM     15 CL   LIG    1        1.691   5.457   0.841  0.00  0.00    -0.083 Cl
ATOM     16  C   LIG    1        3.430   3.517   0.104  0.00  0.00    +0.021 A 
ATOM     17  C   LIG    1        3.909   2.221   0.093  0.00  0.00    +0.023 A 
ATOM     18  C   LIG    1        3.255   1.236   0.811  0.00  0.00    +0.067 A 
ATOM     19 CL   LIG    1        3.860  -0.391   0.804  0.00  0.00    -0.082 Cl
ENDBRANCH   1  12
TORSDOF 2
