REMARK  Name = ZINC25758070
REMARK                            x       y       z     vdW  Elec       q    Type
REMARK                         _______ _______ _______ _____ _____    ______ ____
ROOT
ATOM      1  C   LIG    1       -0.017   1.378   0.010  0.00  0.00    +0.008 A 
ATOM      2  C   LIG    1        1.170   2.089   0.002  0.00  0.00    +0.049 A 
ATOM      3  C   LIG    1        2.380   1.415  -0.013  0.00  0.00    +0.158 A 
ATOM      4  C   LIG    1        2.399   0.024  -0.021  0.00  0.00    +0.158 A 
ATOM      5  C   LIG    1        1.207  -0.682  -0.013  0.00  0.00    +0.053 A 
ATOM      6  C   LIG    1        0.002  -0.004   0.002  0.00  0.00    -0.035 A 
ENDROOT
BRANCH   6   7
ATOM      7  C   LIG    1       -1.294  -0.774   0.010  0.00  0.00    +0.064 C 
ATOM      8  C   LIG    1       -2.124  -0.400  -1.220  0.00  0.00    +0.094 C 
ATOM      9  N   LIG    1       -3.467  -0.989  -1.126  0.00  0.00    -0.311 NA
ATOM     10  H   LIG    1       -3.935  -0.968  -2.019  0.00  0.00    +0.122 HD
ATOM     11  C   LIG    1       -4.266  -0.301  -0.093  0.00  0.00    +0.124 C 
ATOM     12  C   LIG    1       -3.441  -0.209   1.149  0.00  0.00    +0.007 A 
ATOM     13  S   LIG    1       -3.942   0.182   2.802  0.00  0.00    -0.100 S 
ATOM     14  C   LIG    1       -2.335   0.047   3.577  0.00  0.00    +0.046 A 
ATOM     15  C   LIG    1       -1.545  -0.278   2.527  0.00  0.00    +0.012 A 
ATOM     16  C   LIG    1       -2.098  -0.414   1.257  0.00  0.00    -0.027 A 
ENDBRANCH   6   7
BRANCH   3  17
ATOM     17  O   LIG    1        3.548   2.113  -0.021  0.00  0.00    -0.503 OA
ATOM     18  H   LIG    1        3.894   2.310   0.860  0.00  0.00    +0.292 HD
ENDBRANCH   3  17
BRANCH   4  19
ATOM     19  O   LIG    1        3.585  -0.642  -0.036  0.00  0.00    -0.503 OA
ATOM     20  H   LIG    1        3.937  -0.839   0.843  0.00  0.00    +0.292 HD
ENDBRANCH   4  19
TORSDOF 3
