REMARK  Name = ZINC19203138
REMARK                            x       y       z     vdW  Elec       q    Type
REMARK                         _______ _______ _______ _____ _____    ______ ____
ROOT
ATOM      1  C   LIG    1       -0.017   1.362   0.009  0.00  0.00    +0.001 A 
ATOM      2  C   LIG    1        1.170   2.085   0.002  0.00  0.00    +0.002 A 
ATOM      3  C   LIG    1        2.386   1.440  -0.013  0.00  0.00    +0.026 A 
ATOM      4  C   LIG    1        2.430   0.047  -0.021  0.00  0.00    +0.051 A 
ATOM      5  C   LIG    1        1.224  -0.679  -0.013  0.00  0.00    +0.045 A 
ATOM      6  C   LIG    1        1.287  -2.149  -0.022  0.00  0.00    +0.190 A 
ATOM      7  C   LIG    1        2.572  -2.760  -0.037  0.00  0.00    +0.084 A 
ATOM      8  CA  LIG    1        3.687  -1.988  -0.044  0.00  0.00    +0.128 A 
ATOM      9  O   LIG    1        0.270  -2.823  -0.016  0.00  0.00    -0.287 OA
ATOM     10  N   LIG    1        3.629  -0.624  -0.036  0.00  0.00    -0.349 N 
ATOM     11  H   LIG    1        4.455  -0.115  -0.042  0.00  0.00    +0.166 HD
ATOM     12  C   LIG    1        0.002  -0.004   0.002  0.00  0.00    +0.014 A 
ENDROOT
BRANCH   8  13
ATOM     13  C   LIG    1        5.014  -2.647  -0.060  0.00  0.00    +0.353 C 
ATOM     14  O   LIG    1        5.090  -3.867  -0.068  0.00  0.00    -0.243 OA
BRANCH  13  15
ATOM     15  OXT LIG    1        6.032  -1.972  -0.066  0.00  0.00    -0.476 OA
ATOM     16  HXT LIG    1        5.974  -1.037  -0.061  0.00  0.00    +0.295 HD
ENDBRANCH  13  15
ENDBRANCH   8  13
TORSDOF 2
