REMARK  Name = ZINC36381526
REMARK                            x       y       z     vdW  Elec       q    Type
REMARK                         _______ _______ _______ _____ _____    ______ ____
ROOT
ATOM      1  C   LIG    1       -5.248  -3.599   0.036  0.00  0.00    +0.167 C 
ENDROOT
BRANCH   1   2
ATOM      2  C   LIG    1       -6.002  -4.863   0.041  0.00  0.00    -0.088 C 
ATOM      3  C   LIG    1       -6.604  -5.871   0.044  0.00  0.00    -0.061 C 
BRANCH   3   4
ATOM      4  C   LIG    1       -7.358  -7.135   0.049  0.00  0.00    +0.321 C 
BRANCH   4   5
ATOM      5  O   LIG    1       -8.759  -6.853   0.058  0.00  0.00    -0.448 OA
BRANCH   5   6
ATOM      6  C   LIG    1       -9.595  -7.910   0.063  0.00  0.00    +0.340 C 
ATOM      7  O   LIG    1       -9.147  -9.039   0.059  0.00  0.00    -0.245 OA
BRANCH   6   8
ATOM      8  C   LIG    1      -11.056  -7.695   0.073  0.00  0.00    +0.059 A 
ATOM      9  C   LIG    1      -11.573  -6.398   0.071  0.00  0.00    +0.018 A 
ATOM     10  C   LIG    1      -12.938  -6.203   0.080  0.00  0.00    +0.039 A 
ATOM     11  C   LIG    1      -13.796  -7.292   0.091  0.00  0.00    +0.123 A 
ATOM     12  F   LIG    1      -15.133  -7.096   0.101  0.00  0.00    -0.205 F 
ATOM     13  C   LIG    1      -13.287  -8.582   0.093  0.00  0.00    +0.039 A 
ATOM     14  C   LIG    1      -11.925  -8.789   0.078  0.00  0.00    +0.018 A 
ENDBRANCH   6   8
ENDBRANCH   5   6
ENDBRANCH   4   5
ENDBRANCH   3   4
ENDBRANCH   1   2
BRANCH   1  15
ATOM     15  S   LIG    1       -3.469  -3.956   0.024  0.00  0.00    -0.053 S 
BRANCH  15  19
ATOM     16  C   LIG    1       -1.265  -0.763   0.011  0.00  0.00    +0.249 A 
ATOM     17  N   LIG    1       -2.474  -0.255   0.019  0.00  0.00    -0.106 NA
ATOM     18  N   LIG    1       -3.338  -1.208   0.025  0.00  0.00    -0.101 NA
ATOM     19  C   LIG    1       -2.715  -2.364   0.020  0.00  0.00    +0.278 A 
ATOM     20  O   LIG    1       -1.392  -2.109   0.005  0.00  0.00    -0.411 OA
BRANCH  16  27
ATOM     21  C   LIG    1       -0.017   1.392   0.010  0.00  0.00    +0.014 A 
ATOM     22  C   LIG    1        1.170   2.095   0.002  0.00  0.00    +0.021 A 
ATOM     23  C   LIG    1        2.378   1.419  -0.013  0.00  0.00    +0.041 A 
ATOM     24 CL   LIG    1        3.868   2.311  -0.022  0.00  0.00    -0.084 Cl
ATOM     25  C   LIG    1        2.404   0.034  -0.021  0.00  0.00    +0.021 A 
ATOM     26  C   LIG    1        1.224  -0.680  -0.014  0.00  0.00    +0.014 A 
ATOM     27  C   LIG    1        0.002  -0.004   0.002  0.00  0.00    +0.039 A 
ENDBRANCH  16  27
ENDBRANCH  15  19
ENDBRANCH   1  15
TORSDOF 8
