REMARK  Name = ZINC21659241
REMARK                            x       y       z     vdW  Elec       q    Type
REMARK                         _______ _______ _______ _____ _____    ______ ____
ROOT
ATOM      1  C   LIG    1        6.569  -1.177   1.042  0.00  0.00    +0.154 C 
ATOM      2  N   LIG    1        5.346  -0.505   1.488  0.00  0.00    -0.294 N 
ATOM      3  C   LIG    1        4.383  -0.057   0.571  0.00  0.00    +0.082 A 
ATOM      4  C   LIG    1        3.166   0.621   1.085  0.00  0.00    +0.089 A 
ATOM      5  C   LIG    1        3.001   0.794   2.531  0.00  0.00    +0.266 A 
ATOM      6  N   LIG    1        4.014   0.312   3.296  0.00  0.00    -0.263 N 
ATOM      7  C   LIG    1        3.913   0.460   4.750  0.00  0.00    +0.157 C 
ATOM      8  O   LIG    1        2.025   1.338   3.014  0.00  0.00    -0.267 OA
ATOM      9  C   LIG    1        2.405   0.943  -0.011  0.00  0.00    +0.071 A 
ATOM     10  N   LIG    1        3.073   0.514  -1.115  0.00  0.00    -0.306 N 
ATOM     11  C   LIG    1        2.697   0.618  -2.462  0.00  0.00    +0.068 A 
ATOM     12  C   LIG    1        1.643   1.417  -2.860  0.00  0.00    +0.028 A 
ATOM     13  C   LIG    1        1.319   1.507  -4.203  0.00  0.00    +0.002 A 
ATOM     14  C   LIG    1        2.046   0.800  -5.142  0.00  0.00    +0.002 A 
ATOM     15  C   LIG    1        3.097  -0.009  -4.750  0.00  0.00    +0.025 A 
ATOM     16  C   LIG    1        3.426  -0.112  -3.407  0.00  0.00    +0.052 A 
ATOM     17  N   LIG    1        4.475  -0.941  -2.994  0.00  0.00    -0.330 N 
ATOM     18  H   LIG    1        4.724  -1.841  -3.575  0.00  0.00    +0.147 HD
ATOM     19  C   LIG    1        5.244  -0.610  -1.784  0.00  0.00    +0.150 C 
ATOM     20  C   LIG    1        4.277  -0.076  -0.749  0.00  0.00    +0.073 A 
ATOM     21  C   LIG    1        5.099  -0.290   2.799  0.00  0.00    +0.332 A 
ATOM     22  O   LIG    1        5.934  -0.678   3.593  0.00  0.00    -0.246 OA
ENDROOT
BRANCH   9  23
ATOM     23  C   LIG    1        1.101   1.633   0.005  0.00  0.00    +0.035 A 
ATOM     24  C   LIG    1       -0.083   0.897   0.086  0.00  0.00    +0.013 A 
ATOM     25  C   LIG    1       -1.298   1.548   0.095  0.00  0.00    +0.001 A 
ATOM     26  C   LIG    1       -1.347   2.931   0.037  0.00  0.00    +0.003 A 
ATOM     27  C   LIG    1       -0.180   3.669  -0.043  0.00  0.00    +0.039 A 
ATOM     28  C   LIG    1        1.045   3.030  -0.059  0.00  0.00    +0.133 A 
ATOM     29  F   LIG    1        2.184   3.751  -0.138  0.00  0.00    -0.205 F 
ENDBRANCH   9  23
BRANCH  19  30
ATOM     30  C   LIG    1        6.276   0.439  -2.106  0.00  0.00    -0.018 A 
ATOM     31  C   LIG    1        5.969   1.466  -2.979  0.00  0.00    +0.006 A 
ATOM     32  C   LIG    1        6.914   2.430  -3.277  0.00  0.00    +0.004 A 
ATOM     33  C   LIG    1        8.169   2.369  -2.702  0.00  0.00    +0.045 A 
ATOM     34  C   LIG    1        8.480   1.340  -1.825  0.00  0.00    +0.120 A 
ATOM     35  C   LIG    1        7.528   0.377  -1.524  0.00  0.00    +0.051 A 
BRANCH  34  36
ATOM     36  O   LIG    1        9.714   1.278  -1.259  0.00  0.00    -0.495 OA
ATOM     37  C   LIG    1       10.642   2.306  -1.611  0.00  0.00    +0.277 C 
ENDBRANCH  34  36
ENDBRANCH  19  30
TORSDOF 3
