REMARK  Name = ZINC00011112
REMARK                            x       y       z     vdW  Elec       q    Type
REMARK                         _______ _______ _______ _____ _____    ______ ____
ROOT
ATOM      1  C   LIG    1       -0.013   1.086   0.008  0.00  0.00    +0.024 C 
ATOM      2  C   LIG    1       -0.718   1.572   1.248  0.00  0.00    +0.052 C 
ATOM      3  N   LIG    1        0.054   1.780   2.347  0.00  0.00    -0.299 NA
ATOM      4  H   LIG    1        1.068   1.616   2.341  0.00  0.00    +0.124 HD
ATOM      5  C   LIG    1       -0.602   2.220   3.460  0.00  0.00    +0.124 C 
ATOM      6  C   LIG    1       -1.973   2.451   3.501  0.00  0.00    +0.035 C 
ATOM      7  C   LIG    1       -2.727   2.229   2.363  0.00  0.00    +0.004 C 
ATOM      8  C   LIG    1       -2.082   1.786   1.216  0.00  0.00    +0.018 C 
ENDROOT
BRANCH   5   9
ATOM      9  N   LIG    1        0.168   2.439   4.596  0.00  0.00    -0.291 NA
ATOM     10  C   LIG    1        0.007   3.816   5.084  0.00  0.00    +0.067 C 
ATOM     11  C   LIG    1        0.806   3.993   6.377  0.00  0.00    -0.064 C 
ATOM     12  N   LIG    1        2.230   3.707   6.101  0.00  0.00    +0.379 N 
ATOM     13  H   LIG    1        2.562   4.343   5.366  0.00  0.00    -0.082 HD
ATOM     14  C   LIG    1        3.035   3.921   7.322  0.00  0.00    -0.096 C 
ATOM     15  C   LIG    1        2.382   2.313   5.633  0.00  0.00    -0.064 C 
ATOM     16  C   LIG    1        1.583   2.136   4.340  0.00  0.00    +0.067 C 
ENDBRANCH   5   9
TORSDOF 1
