REMARK  Name = ZINC00057677
REMARK                            x       y       z     vdW  Elec       q    Type
REMARK                         _______ _______ _______ _____ _____    ______ ____
ROOT
ATOM      1  C   LIG    1        3.694  -0.683  -0.038  0.00  0.00    +0.139 A 
ATOM      2  C   LIG    1        3.686  -2.044  -0.051  0.00  0.00    +0.098 A 
ATOM      3  C   LIG    1        4.913  -2.748  -0.068  0.00  0.00    +0.193 A 
ATOM      4  C   LIG    1        6.154  -1.948  -0.071  0.00  0.00    +0.067 A 
ATOM      5  C   LIG    1        7.407  -2.557  -0.088  0.00  0.00    +0.060 A 
ATOM      6  C   LIG    1        8.546  -1.773  -0.091  0.00  0.00    +0.118 A 
ATOM      7  C   LIG    1        8.440  -0.386  -0.076  0.00  0.00    +0.049 A 
ATOM      8  C   LIG    1        7.204   0.224  -0.059  0.00  0.00    +0.050 A 
ATOM      9  C   LIG    1        6.048  -0.548  -0.057  0.00  0.00    +0.139 A 
ATOM     10  O   LIG    1        4.944  -3.967  -0.081  0.00  0.00    -0.287 OA
ATOM     11  O   LIG    1        4.829   0.032  -0.046  0.00  0.00    -0.455 OA
ENDROOT
BRANCH   1  15
ATOM     12  C   LIG    1       -0.017   1.379   0.010  0.00  0.00    +0.000 A 
ATOM     13  C   LIG    1        1.168   2.094   0.002  0.00  0.00    +0.001 A 
ATOM     14  C   LIG    1        2.377   1.431  -0.013  0.00  0.00    +0.011 A 
ATOM     15  C   LIG    1        2.404   0.034  -0.021  0.00  0.00    +0.017 A 
ATOM     16  C   LIG    1        1.204  -0.681  -0.013  0.00  0.00    +0.011 A 
ATOM     17  C   LIG    1        0.002  -0.004   0.002  0.00  0.00    +0.001 A 
ENDBRANCH   1  15
BRANCH   6  18
ATOM     18  O   LIG    1        9.773  -2.359  -0.107  0.00  0.00    -0.507 OA
ATOM     19  H   LIG    1       10.120  -2.521  -0.995  0.00  0.00    +0.292 HD
ENDBRANCH   6  18
TORSDOF 2
