REMARK  Name = ZINC27720845
REMARK                            x       y       z     vdW  Elec       q    Type
REMARK                         _______ _______ _______ _____ _____    ______ ____
ROOT
ATOM      1  C   LIG    1        0.407  -1.596  -1.714  0.00  0.00    +0.285 C 
ATOM      2  C   LIG    1        1.224  -2.208  -2.640  0.00  0.00    +0.065 C 
ATOM      3  C   LIG    1        1.328  -3.720  -2.727  0.00  0.00    +0.096 C 
ATOM      4  C   LIG    1        2.264  -4.259  -3.793  0.00  0.00    +0.071 C 
ATOM      5  C   LIG    1        2.923  -3.351  -4.572  0.00  0.00    +0.072 C 
ATOM      6  N   LIG    1        2.770  -2.044  -4.424  0.00  0.00    -0.254 NA
ATOM      7  C   LIG    1        1.986  -1.465  -3.543  0.00  0.00    +0.049 C 
ATOM      8  C   LIG    1        1.913   0.040  -3.502  0.00  0.00    +0.066 C 
ENDROOT
BRANCH   3   9
ATOM      9  C   LIG    1       -0.049  -4.273  -2.992  0.00  0.00    -0.033 A 
ATOM     10  C   LIG    1       -0.733  -3.905  -4.136  0.00  0.00    +0.005 A 
ATOM     11  C   LIG    1       -1.996  -4.412  -4.379  0.00  0.00    +0.003 A 
ATOM     12  C   LIG    1       -2.574  -5.287  -3.479  0.00  0.00    +0.032 A 
ATOM     13  C   LIG    1       -1.890  -5.655  -2.336  0.00  0.00    +0.122 A 
ATOM     14  C   LIG    1       -0.625  -5.152  -2.095  0.00  0.00    +0.037 A 
BRANCH  13  15
ATOM     15  N   LIG    1       -2.510  -6.592  -1.372  0.00  0.00    +0.006 N 
ATOM     16  O   LIG    1       -3.615  -7.035  -1.585  0.00  0.00    -0.130 OA
BRANCH  15  17
ATOM     17  O   LIG    1       -1.912  -6.914  -0.372  0.00  0.00    -0.396 OA
ATOM     18  H   LIG    1       -1.056  -6.571  -0.208  0.00  0.00    +0.329 HD
ENDBRANCH  15  17
ENDBRANCH  13  15
ENDBRANCH   3   9
BRANCH   1  19
ATOM     19  O   LIG    1       -0.389  -2.340  -0.921  0.00  0.00    -0.480 OA
ATOM     20  H   LIG    1       -0.944  -1.923  -0.292  0.00  0.00    +0.295 HD
ENDBRANCH   1  19
BRANCH   4  21
ATOM     21  C   LIG    1        2.447  -5.641  -3.972  0.00  0.00    +0.338 C 
ATOM     22  O   LIG    1        1.619  -6.290  -4.586  0.00  0.00    -0.245 OA
BRANCH  21  23
ATOM     23  O   LIG    1        3.540  -6.249  -3.464  0.00  0.00    -0.465 OA
ATOM     24  C   LIG    1        3.661  -7.656  -3.684  0.00  0.00    +0.280 C 
ENDBRANCH  21  23
ENDBRANCH   4  21
BRANCH   1  25
ATOM     25  O   LIG    1        0.405  -0.253  -1.602  0.00  0.00    -0.464 OA
BRANCH  25  27
ATOM     26  C   LIG    1       -0.332   1.839  -0.640  0.00  0.00    +0.048 C 
ATOM     27  C   LIG    1       -0.466   0.315  -0.621  0.00  0.00    +0.229 C 
ENDBRANCH  25  27
ENDBRANCH   1  25
BRANCH   5  28
ATOM     28  C   LIG    1        3.860  -3.855  -5.639  0.00  0.00    +0.178 C 
BRANCH  28  29
ATOM     29  N   LIG    1        3.175  -3.849  -6.934  0.00  0.00    -0.333 N 
ATOM     30  C   LIG    1        2.440  -4.873  -7.469  0.00  0.00    +0.105 A 
ATOM     31  C   LIG    1        1.991  -4.447  -8.664  0.00  0.00    +0.101 A 
ATOM     32  N   LIG    1        2.438  -3.197  -8.854  0.00  0.00    -0.352 N 
ATOM     33  H   LIG    1        2.262  -2.651  -9.636  0.00  0.00    +0.166 HD
ATOM     34  C   LIG    1        3.144  -2.831  -7.819  0.00  0.00    +0.174 A 
ENDBRANCH  28  29
ENDBRANCH   5  28
TORSDOF 10
