REMARK  Name = ZINC13757085
REMARK                            x       y       z     vdW  Elec       q    Type
REMARK                         _______ _______ _______ _____ _____    ______ ____
ROOT
ATOM      1  C   LIG    1        2.377   1.418   0.001  0.00  0.00    -0.000 A 
ATOM      2  C   LIG    1        2.396   0.041   0.001  0.00  0.00    +0.005 A 
ATOM      3  C   LIG    1        1.216  -0.690  -0.004  0.00  0.00    +0.138 A 
ATOM      4  O   LIG    1        1.463  -2.029  -0.022  0.00  0.00    -0.490 OA
ATOM      5  C   LIG    1        2.814  -2.266   0.410  0.00  0.00    +0.234 C 
ATOM      6  C   LIG    1        0.002  -0.004   0.002  0.00  0.00    +0.066 A 
ATOM      7 BR   LIG    1       -1.625  -0.968  -0.001  0.00  0.00    -0.046 Br
ATOM      8  C   LIG    1       -0.017   1.372   0.010  0.00  0.00    +0.015 A 
ATOM      9  C   LIG    1       -1.157   2.373   0.035  0.00  0.00    +0.081 C 
ATOM     10  C   LIG    1       -0.429   3.678   0.435  0.00  0.00    +0.234 C 
ATOM     11  O   LIG    1        0.917   3.442  -0.013  0.00  0.00    -0.491 OA
ATOM     12  C   LIG    1        3.537  -0.959   0.008  0.00  0.00    +0.080 C 
ATOM     13  C   LIG    1        1.165   2.103   0.002  0.00  0.00    +0.128 A 
ENDROOT
BRANCH   1  14
ATOM     14  C   LIG    1        3.673   2.186   0.000  0.00  0.00    +0.023 C 
BRANCH  14  16
ATOM     15  C   LIG    1        5.487   3.116  -1.445  0.00  0.00    -0.014 C 
ATOM     16  C   LIG    1        4.111   2.446  -1.442  0.00  0.00    -0.074 C 
BRANCH  16  17
ATOM     17  N   LIG    1        3.116   3.313  -2.097  0.00  0.00    +0.380 N 
ATOM     18  H   LIG    1        2.209   2.833  -2.114  0.00  0.00    -0.090 HD
ATOM     19  H   LIG    1        3.403   3.515  -3.053  0.00  0.00    -0.090 HD
ATOM     20  H   LIG    1        3.019   4.186  -1.581  0.00  0.00    -0.090 HD
ENDBRANCH  16  17
ENDBRANCH  14  16
ENDBRANCH   1  14
TORSDOF 3
