REMARK  Name = ZINC49583060
REMARK                            x       y       z     vdW  Elec       q    Type
REMARK                         _______ _______ _______ _____ _____    ______ ____
ROOT
ATOM      1  N   LIG    1        3.856  -0.728   1.460  0.00  0.00    -0.224 N 
ATOM      2  C   LIG    1        4.721   0.095   2.029  0.00  0.00    +0.261 C 
ATOM      3  C   LIG    1        5.201  -0.278   3.376  0.00  0.00    +0.080 C 
ATOM      4  S   LIG    1        4.310  -1.805   3.638  0.00  0.00    -0.026 S 
ATOM      5  C   LIG    1        6.077   0.363   4.190  0.00  0.00    +0.029 C 
ATOM      6  O   LIG    1        5.103   1.107   1.471  0.00  0.00    -0.269 OA
ATOM      7  C   LIG    1        3.431  -1.845   2.084  0.00  0.00    +0.286 C 
ATOM      8  O   LIG    1        2.642  -2.680   1.684  0.00  0.00    -0.262 OA
ENDROOT
BRANCH   5   9
ATOM      9  C   LIG    1        6.266  -0.097   5.572  0.00  0.00    -0.005 A 
ATOM     10  C   LIG    1        5.314  -0.928   6.174  0.00  0.00    +0.011 A 
ATOM     11  C   LIG    1        5.498  -1.356   7.471  0.00  0.00    +0.020 A 
ATOM     12  C   LIG    1        6.622  -0.964   8.181  0.00  0.00    +0.042 A 
ATOM     13 CL   LIG    1        6.844  -1.507   9.815  0.00  0.00    -0.083 Cl
ATOM     14  C   LIG    1        7.569  -0.141   7.594  0.00  0.00    +0.040 A 
ATOM     15  C   LIG    1        7.403   0.290   6.293  0.00  0.00    +0.050 A 
ATOM     16 CL   LIG    1        8.594   1.315   5.556  0.00  0.00    -0.083 Cl
ENDBRANCH   5   9
BRANCH   1  17
ATOM     17  C   LIG    1        3.343  -0.414   0.124  0.00  0.00    +0.157 C 
BRANCH  17  22
ATOM     18  C   LIG    1       -0.191   1.964   0.477  0.00  0.00    +0.004 A 
ATOM     19  C   LIG    1        1.047   2.575   0.397  0.00  0.00    +0.039 A 
ATOM     20  C   LIG    1        2.192   1.805   0.283  0.00  0.00    +0.129 A 
ATOM     21  F   LIG    1        3.402   2.401   0.204  0.00  0.00    -0.205 F 
ATOM     22  C   LIG    1        2.097   0.424   0.249  0.00  0.00    +0.024 A 
ATOM     23  C   LIG    1        0.858  -0.185   0.329  0.00  0.00    +0.048 A 
ATOM     24 CL   LIG    1        0.737  -1.916   0.286  0.00  0.00    -0.083 Cl
ATOM     25  C   LIG    1       -0.286   0.586   0.443  0.00  0.00    +0.020 A 
ENDBRANCH  17  22
ENDBRANCH   1  17
TORSDOF 3
