REMARK  Name = ZINC34546938
REMARK                            x       y       z     vdW  Elec       q    Type
REMARK                         _______ _______ _______ _____ _____    ______ ____
ROOT
ATOM      1  N   LIG    1       -4.889  -2.581   0.035  0.00  0.00    -0.314 N 
ATOM      2  H   LIG    1       -5.709  -2.063   0.076  0.00  0.00    +0.152 HD
ENDROOT
BRANCH   1   6
ATOM      3  C   LIG    1       -1.197  -0.651   0.179  0.00  0.00    +0.120 A 
ATOM      4  C   LIG    1       -2.315  -0.050   0.738  0.00  0.00    +0.047 A 
ATOM      5  C   LIG    1       -3.539  -0.689   0.691  0.00  0.00    +0.027 A 
ATOM      6  C   LIG    1       -3.649  -1.933   0.083  0.00  0.00    +0.032 A 
ATOM      7  C   LIG    1       -2.529  -2.534  -0.476  0.00  0.00    +0.027 A 
ATOM      8  C   LIG    1       -1.308  -1.891  -0.433  0.00  0.00    +0.047 A 
BRANCH   3  10
ATOM      9  C   LIG    1        0.049   1.252   0.871  0.00  0.00    +0.277 C 
ATOM     10  O   LIG    1        0.008  -0.022   0.226  0.00  0.00    -0.495 OA
ENDBRANCH   3  10
ENDBRANCH   1   6
BRANCH   1  11
ATOM     11  C   LIG    1       -4.946  -3.973  -0.071  0.00  0.00    +0.032 A 
ATOM     12  C   LIG    1       -3.960  -4.756   0.518  0.00  0.00    +0.023 A 
ATOM     13  C   LIG    1       -4.011  -6.134   0.415  0.00  0.00    +0.003 A 
ATOM     14  C   LIG    1       -5.042  -6.742  -0.272  0.00  0.00    +0.015 A 
ATOM     15  C   LIG    1       -6.038  -5.964  -0.868  0.00  0.00    +0.061 A 
ATOM     16  C   LIG    1       -5.989  -4.573  -0.759  0.00  0.00    +0.038 A 
BRANCH  15  17
ATOM     17  C   LIG    1       -7.141  -6.611  -1.604  0.00  0.00    +0.337 C 
ATOM     18  O   LIG    1       -7.184  -7.830  -1.693  0.00  0.00    -0.245 OA
BRANCH  17  19
ATOM     19  O   LIG    1       -8.012  -5.929  -2.124  0.00  0.00    -0.477 OA
ATOM     20  H   LIG    1       -7.979  -4.995  -2.056  0.00  0.00    +0.295 HD
ENDBRANCH  17  19
ENDBRANCH  15  17
ENDBRANCH   1  11
TORSDOF 5
