REMARK  Name = ZINC40845149
REMARK                            x       y       z     vdW  Elec       q    Type
REMARK                         _______ _______ _______ _____ _____    ______ ____
ROOT
ATOM      1  N   LIG    1       -2.320   0.025   0.024  0.00  0.00    -0.219 N 
ATOM      2  H   LIG    1       -2.333   0.995   0.030  0.00  0.00    +0.176 HD
ENDROOT
BRANCH   1   5
ATOM      3  C   LIG    1       -0.018   1.503   0.010  0.00  0.00    +0.058 C 
ATOM      4  C   LIG    1        0.002  -0.004   0.002  0.00  0.00    +0.100 C 
ATOM      5  N   LIG    1       -1.098  -0.659   0.009  0.00  0.00    -0.194 NA
ENDBRANCH   1   5
BRANCH   1   6
ATOM      6  C   LIG    1       -3.478  -0.665   0.032  0.00  0.00    +0.147 C 
ATOM      7  S   LIG    1       -4.972   0.171   0.051  0.00  0.00    -0.017 S 
BRANCH   6   8
ATOM      8  N   LIG    1       -3.460  -2.013   0.024  0.00  0.00    -0.339 N 
ATOM      9  H   LIG    1       -4.293  -2.509   0.030  0.00  0.00    +0.144 HD
ATOM     10  H   LIG    1       -2.614  -2.486   0.014  0.00  0.00    +0.144 HD
ENDBRANCH   6   8
ENDBRANCH   1   6
TORSDOF 3
