REMARK  Name = ZINC00005155
REMARK                            x       y       z     vdW  Elec       q    Type
REMARK                         _______ _______ _______ _____ _____    ______ ____
ROOT
ATOM      1  C   LIG    1        3.583   0.679  -0.029  0.00  0.00    +0.091 C 
ATOM      2  N   LIG    1        4.187   1.819  -0.024  0.00  0.00    -0.272 NA
ATOM      3  C   LIG    1        5.645   1.921  -0.044  0.00  0.00    +0.238 C 
ATOM      4  C   LIG    1        6.156   1.339  -1.335  0.00  0.00    +0.239 C 
ATOM      5  N   LIG    1        5.987   0.055  -1.639  0.00  0.00    -0.283 N 
ATOM      6  H   LIG    1        6.304  -0.244  -2.505  0.00  0.00    +0.155 HD
ATOM      7  C   LIG    1        5.391  -0.890  -0.816  0.00  0.00    +0.043 A 
ATOM      8  C   LIG    1        5.972  -2.158  -0.772  0.00  0.00    +0.025 A 
ATOM      9  C   LIG    1        5.435  -3.150   0.035  0.00  0.00    +0.022 A 
ATOM     10  C   LIG    1        4.306  -2.892   0.797  0.00  0.00    +0.042 A 
ATOM     11 CL   LIG    1        3.630  -4.141   1.796  0.00  0.00    -0.084 Cl
ATOM     12  C   LIG    1        3.721  -1.646   0.761  0.00  0.00    +0.032 A 
ATOM     13  O   LIG    1        6.739   2.060  -2.117  0.00  0.00    -0.273 OA
ATOM     14  C   LIG    1        4.258  -0.630  -0.043  0.00  0.00    +0.025 A 
ENDROOT
BRANCH   1  17
ATOM     15  C   LIG    1       -0.016   1.349   0.009  0.00  0.00    +0.019 A 
ATOM     16  C   LIG    1        1.312   1.794  -0.001  0.00  0.00    +0.029 A 
ATOM     17  C   LIG    1        2.111   0.686  -0.014  0.00  0.00    +0.065 A 
ATOM     18  N   LIG    1        1.296  -0.420  -0.013  0.00  0.00    -0.359 N 
ATOM     19  H   LIG    1        1.593  -1.343  -0.021  0.00  0.00    +0.165 HD
ATOM     20  C   LIG    1        0.002  -0.004   0.002  0.00  0.00    +0.083 A 
ENDBRANCH   1  17
TORSDOF 1
