REMARK  Name = ZINC13807918
REMARK                            x       y       z     vdW  Elec       q    Type
REMARK                         _______ _______ _______ _____ _____    ______ ____
ROOT
ATOM      1  C   LIG    1        0.002  -0.004   0.002  0.00  0.00    +0.018 A 
ATOM      2  C   LIG    1       -0.017   1.378   0.010  0.00  0.00    +0.013 A 
ATOM      3  C   LIG    1        1.169   2.089   0.002  0.00  0.00    +0.050 A 
ATOM      4  C   LIG    1        2.381   1.417  -0.013  0.00  0.00    +0.161 A 
ATOM      5  C   LIG    1        2.402   0.026  -0.021  0.00  0.00    +0.195 A 
ATOM      6  C   LIG    1        1.209  -0.682  -0.013  0.00  0.00    +0.174 A 
ATOM      7  F   LIG    1        1.224  -2.033  -0.021  0.00  0.00    -0.201 F 
ENDROOT
BRANCH   4   8
ATOM      8  O   LIG    1        3.548   2.115  -0.020  0.00  0.00    -0.503 OA
ATOM      9  H   LIG    1        3.877   2.322  -0.905  0.00  0.00    +0.292 HD
ENDBRANCH   4   8
BRANCH   5  10
ATOM     10  O   LIG    1        3.589  -0.638  -0.036  0.00  0.00    -0.501 OA
ATOM     11  H   LIG    1        3.924  -0.825  -0.924  0.00  0.00    +0.292 HD
ENDBRANCH   5  10
BRANCH   1  12
ATOM     12  C   LIG    1       -1.293  -0.774   0.010  0.00  0.00    +0.130 C 
BRANCH  12  13
ATOM     13  O   LIG    1       -2.332   0.035  -0.546  0.00  0.00    -0.389 OA
ATOM     14  H   LIG    1       -2.487   0.860  -0.065  0.00  0.00    +0.210 HD
ENDBRANCH  12  13
BRANCH  12  15
ATOM     15  C   LIG    1       -1.654  -1.150   1.448  0.00  0.00    -0.046 C 
BRANCH  15  17
ATOM     16  C   LIG    1       -3.229  -2.383   2.813  0.00  0.00    -0.100 C 
ATOM     17  N   LIG    1       -2.857  -2.005   1.437  0.00  0.00    +0.379 N 
ATOM     18  H   LIG    1       -2.664  -2.853   0.892  0.00  0.00    -0.086 HD
ATOM     19  H   LIG    1       -3.634  -1.490   1.006  0.00  0.00    -0.086 HD
ENDBRANCH  15  17
ENDBRANCH  12  15
ENDBRANCH   1  12
TORSDOF 6
