REMARK  Name = ZINC17148942
REMARK                            x       y       z     vdW  Elec       q    Type
REMARK                         _______ _______ _______ _____ _____    ______ ____
ROOT
ATOM      1  C   LIG    1       -3.515  10.182   7.116  0.00  0.00    +0.174 C 
ATOM      2  N   LIG    1       -3.308   8.859   6.522  0.00  0.00    -0.249 N 
ATOM      3  C   LIG    1       -2.726   8.607   5.315  0.00  0.00    +0.165 A 
ATOM      4  C   LIG    1       -2.737   7.208   5.148  0.00  0.00    +0.079 A 
ATOM      5  C   LIG    1       -2.187   6.670   3.967  0.00  0.00    +0.139 A 
ATOM      6  N   LIG    1       -1.680   7.504   3.068  0.00  0.00    -0.198 NA
ATOM      7  C   LIG    1       -1.695   8.818   3.264  0.00  0.00    +0.222 A 
ATOM      8  C   LIG    1       -3.344   6.660   6.298  0.00  0.00    +0.148 A 
ATOM      9  N   LIG    1       -2.200   9.366   4.356  0.00  0.00    -0.195 NA
ATOM     10  N   LIG    1       -3.675   7.635   7.096  0.00  0.00    -0.177 NA
ENDROOT
BRANCH   7  11
ATOM     11  N   LIG    1       -1.157   9.642   2.291  0.00  0.00    -0.295 N 
ATOM     12  C   LIG    1       -2.143  10.633   1.837  0.00  0.00    +0.136 C 
ATOM     13  C   LIG    1       -1.490  11.560   0.808  0.00  0.00    +0.179 C 
ATOM     14  O   LIG    1       -0.973  10.777  -0.272  0.00  0.00    -0.377 OA
ATOM     15  C   LIG    1       -0.009   9.802   0.135  0.00  0.00    +0.179 C 
ATOM     16  C   LIG    1       -0.647   8.857   1.157  0.00  0.00    +0.136 C 
ENDBRANCH   7  11
BRANCH   5  17
ATOM     17  N   LIG    1       -2.172   5.305   3.753  0.00  0.00    -0.299 N 
ATOM     18  H   LIG    1       -2.466   4.701   4.453  0.00  0.00    +0.154 HD
BRANCH  17  19
ATOM     19  C   LIG    1       -1.733   4.795   2.528  0.00  0.00    +0.036 A 
ATOM     20  C   LIG    1       -2.040   5.459   1.347  0.00  0.00    +0.023 A 
ATOM     21  C   LIG    1       -1.605   4.955   0.137  0.00  0.00    +0.005 A 
ATOM     22  C   LIG    1       -0.865   3.788   0.097  0.00  0.00    +0.046 A 
ATOM     23  C   LIG    1       -0.555   3.120   1.274  0.00  0.00    +0.122 A 
ATOM     24  C   LIG    1       -0.994   3.620   2.490  0.00  0.00    +0.069 A 
BRANCH  23  25
ATOM     25  O   LIG    1        0.173   1.973   1.233  0.00  0.00    -0.495 OA
ATOM     26  C   LIG    1        0.586   1.513  -0.055  0.00  0.00    +0.277 C 
ENDBRANCH  23  25
ENDBRANCH  17  19
ENDBRANCH   5  17
TORSDOF 4
