REMARK  Name = ZINC13780535
REMARK                            x       y       z     vdW  Elec       q    Type
REMARK                         _______ _______ _______ _____ _____    ______ ____
ROOT
ATOM      1  C   LIG    1       -1.295   2.059   0.019  0.00  0.00    +0.117 C 
ENDROOT
BRANCH   1   2
ATOM      2  N   LIG    1       -0.016   1.344   0.009  0.00  0.00    -0.304 N 
ATOM      3  H   LIG    1        0.817   1.840   0.004  0.00  0.00    +0.149 HD
ATOM      4  C   LIG    1        0.002  -0.004   0.002  0.00  0.00    +0.261 C 
ATOM      5  O   LIG    1       -1.043  -0.627   0.009  0.00  0.00    -0.269 OA
BRANCH   4   6
ATOM      6  C   LIG    1        1.285  -0.722  -0.014  0.00  0.00    +0.103 A 
ATOM      7  C   LIG    1        1.432  -2.073  -0.023  0.00  0.00    +0.041 A 
ATOM      8  C   LIG    1        2.820  -2.356  -0.037  0.00  0.00    +0.002 A 
ATOM      9  C   LIG    1        3.559  -3.546  -0.052  0.00  0.00    +0.030 A 
ATOM     10  C   LIG    1        4.923  -3.498  -0.064  0.00  0.00    +0.042 A 
ATOM     11 CL   LIG    1        5.836  -4.974  -0.081  0.00  0.00    -0.084 Cl
ATOM     12  C   LIG    1        5.588  -2.276  -0.064  0.00  0.00    +0.022 A 
ATOM     13  C   LIG    1        4.883  -1.094  -0.050  0.00  0.00    +0.027 A 
ATOM     14  C   LIG    1        3.491  -1.117  -0.037  0.00  0.00    +0.047 A 
ATOM     15  N   LIG    1        2.534  -0.131  -0.029  0.00  0.00    -0.351 N 
ATOM     16  H   LIG    1        2.706   0.824  -0.031  0.00  0.00    +0.166 HD
ENDBRANCH   4   6
ENDBRANCH   1   2
BRANCH   1  17
ATOM     17  C   LIG    1       -1.099   3.445   0.636  0.00  0.00    +0.060 C 
BRANCH  17  21
ATOM     18  C   LIG    1       -0.001   3.037   4.744  0.00  0.00    +0.000 A 
ATOM     19  C   LIG    1        0.977   3.077   3.768  0.00  0.00    +0.000 A 
ATOM     20  C   LIG    1        0.622   3.209   2.438  0.00  0.00    +0.004 A 
ATOM     21  C   LIG    1       -0.711   3.301   2.085  0.00  0.00    -0.046 A 
ATOM     22  C   LIG    1       -1.689   3.265   3.061  0.00  0.00    +0.004 A 
ATOM     23  C   LIG    1       -1.334   3.128   4.390  0.00  0.00    +0.000 A 
ENDBRANCH  17  21
ENDBRANCH   1  17
BRANCH   1  24
ATOM     24  C   LIG    1       -1.808   2.206  -1.414  0.00  0.00    +0.243 C 
BRANCH  24  25
ATOM     25  O   LIG    1       -1.991   0.911  -1.990  0.00  0.00    -0.379 OA
ATOM     26  H   LIG    1       -1.184   0.380  -2.029  0.00  0.00    +0.211 HD
ENDBRANCH  24  25
BRANCH  24  27
ATOM     27  C   LIG    1       -3.123   2.942  -1.404  0.00  0.00    +0.335 C 
ATOM     28  O   LIG    1       -4.132   2.380  -1.760  0.00  0.00    -0.248 OA
BRANCH  27  29
ATOM     29  O   LIG    1       -3.174   4.220  -0.999  0.00  0.00    -0.479 OA
ATOM     30  H   LIG    1       -2.391   4.656  -0.723  0.00  0.00    +0.295 HD
ENDBRANCH  27  29
ENDBRANCH  24  27
ENDBRANCH   1  24
TORSDOF 8
