REMARK  Name = ZINC29406076
REMARK                            x       y       z     vdW  Elec       q    Type
REMARK                         _______ _______ _______ _____ _____    ______ ____
ROOT
ATOM      1  C   LIG    1       -0.755   3.526   1.278  0.00  0.00    +0.217 C 
ATOM      2  N   LIG    1       -1.338   4.186   2.297  0.00  0.00    -0.280 N 
ATOM      3  C   LIG    1       -1.969   3.471   3.428  0.00  0.00    +0.178 C 
ATOM      4  S   LIG    1       -3.134   4.757   4.062  0.00  0.00    -0.139 S 
ATOM      5  C   LIG    1       -2.110   6.219   3.579  0.00  0.00    +0.102 C 
ATOM      6  C   LIG    1       -1.375   5.638   2.346  0.00  0.00    +0.173 C 
ATOM      7  O   LIG    1       -0.247   4.144   0.366  0.00  0.00    -0.276 OA
ENDROOT
BRANCH   6   8
ATOM      8  C   LIG    1        0.042   6.153   2.343  0.00  0.00    +0.237 C 
ATOM      9  N   LIG    1        0.277   7.479   2.384  0.00  0.00    -0.300 N 
ATOM     10  C   LIG    1       -0.749   8.531   2.428  0.00  0.00    +0.108 C 
ATOM     11  C   LIG    1       -0.015   9.888   2.440  0.00  0.00    +0.020 C 
ATOM     12  C   LIG    1        1.366   9.539   1.824  0.00  0.00    +0.020 C 
ATOM     13  C   LIG    1        1.607   8.116   2.386  0.00  0.00    +0.108 C 
ATOM     14  O   LIG    1        0.970   5.373   2.304  0.00  0.00    -0.274 OA
ENDBRANCH   6   8
BRANCH   1  15
ATOM     15  C   LIG    1       -0.735   2.019   1.269  0.00  0.00    +0.096 C 
BRANCH  15  16
ATOM     16  C   LIG    1       -0.019   1.526   0.010  0.00  0.00    +0.009 C 
BRANCH  16  18
ATOM     17  C   LIG    1        0.718  -0.497  -1.257  0.00  0.00    +0.004 C 
ATOM     18  C   LIG    1        0.002  -0.004   0.002  0.00  0.00    -0.003 C 
ENDBRANCH  16  18
ENDBRANCH  15  16
ENDBRANCH   1  15
TORSDOF 4
