REMARK  Name = ZINC38868526
REMARK                            x       y       z     vdW  Elec       q    Type
REMARK                         _______ _______ _______ _____ _____    ______ ____
ROOT
ATOM      1  N   LIG    1        4.172  -0.975   1.334  0.00  0.00    -0.326 N 
ATOM      2  C   LIG    1        5.046  -0.227   2.042  0.00  0.00    +0.200 A 
ATOM      3  N   LIG    1        5.382  -0.877   3.124  0.00  0.00    -0.243 NA
ATOM      4  C   LIG    1        4.746  -2.053   3.155  0.00  0.00    +0.138 A 
ATOM      5  C   LIG    1        3.971  -2.139   2.041  0.00  0.00    +0.069 A 
ENDROOT
BRANCH   5   6
ATOM      6  C   LIG    1        3.088  -3.264   1.661  0.00  0.00    +0.000 A 
ATOM      7  C   LIG    1        2.602  -3.363   0.357  0.00  0.00    +0.010 A 
ATOM      8  C   LIG    1        1.779  -4.415   0.009  0.00  0.00    +0.001 A 
ATOM      9  C   LIG    1        1.436  -5.370   0.950  0.00  0.00    +0.000 A 
ATOM     10  C   LIG    1        1.916  -5.277   2.244  0.00  0.00    +0.001 A 
ATOM     11  C   LIG    1        2.744  -4.234   2.603  0.00  0.00    +0.010 A 
ENDBRANCH   5   6
BRANCH   1  12
ATOM     12  C   LIG    1        3.550  -0.613   0.058  0.00  0.00    +0.158 C 
BRANCH  12  16
ATOM     13  C   LIG    1        4.563   3.418  -0.929  0.00  0.00    +0.000 A 
ATOM     14  C   LIG    1        5.349   2.376  -1.386  0.00  0.00    +0.000 A 
ATOM     15  C   LIG    1        5.021   1.072  -1.066  0.00  0.00    +0.005 A 
ATOM     16  C   LIG    1        3.908   0.809  -0.290  0.00  0.00    -0.028 A 
ATOM     17  C   LIG    1        3.123   1.851   0.168  0.00  0.00    +0.005 A 
ATOM     18  C   LIG    1        3.450   3.155  -0.153  0.00  0.00    +0.000 A 
ENDBRANCH  12  16
ENDBRANCH   1  12
TORSDOF 3
