REMARK  Name = ZINC45497752
REMARK                            x       y       z     vdW  Elec       q    Type
REMARK                         _______ _______ _______ _____ _____    ______ ____
ROOT
ATOM      1  C   LIG    1       -0.017   1.374   0.010  0.00  0.00    +0.002 A 
ATOM      2  C   LIG    1        1.169   2.094   0.002  0.00  0.00    +0.002 A 
ATOM      3  C   LIG    1        2.383   1.441  -0.013  0.00  0.00    +0.028 A 
ATOM      4  C   LIG    1        2.420   0.049  -0.021  0.00  0.00    +0.065 A 
ATOM      5  C   LIG    1        1.219  -0.679  -0.013  0.00  0.00    +0.065 A 
ATOM      6  N   LIG    1        1.568  -2.004  -0.024  0.00  0.00    -0.328 N 
ATOM      7  C   LIG    1        2.896  -2.090  -0.037  0.00  0.00    +0.172 A 
ATOM      8  H   LIG    1        0.951  -2.753  -0.022  0.00  0.00    +0.169 HD
ATOM      9  N   LIG    1        3.434  -0.872  -0.035  0.00  0.00    -0.328 N 
ATOM     10  H   LIG    1        4.383  -0.671  -0.044  0.00  0.00    +0.169 HD
ATOM     11  C   LIG    1        0.002  -0.004   0.002  0.00  0.00    +0.028 A 
ENDROOT
BRANCH   7  12
ATOM     12  N   LIG    1        3.610  -3.265  -0.050  0.00  0.00    -0.310 N 
ATOM     13  H   LIG    1        3.143  -4.116  -0.050  0.00  0.00    +0.149 HD
BRANCH  12  14
ATOM     14  C   LIG    1        5.074  -3.233  -0.064  0.00  0.00    +0.104 C 
ATOM     15  C   LIG    1        5.609  -4.527  -0.679  0.00  0.00    +0.027 C 
ATOM     16  C   LIG    1        5.289  -5.713   0.235  0.00  0.00    +0.007 C 
ATOM     17  C   LIG    1        6.157  -5.611   1.498  0.00  0.00    +0.043 C 
ATOM     18  C   LIG    1        6.071  -4.212   2.015  0.00  0.00    -0.005 A 
ATOM     19  S   LIG    1        6.554  -3.587   3.602  0.00  0.00    -0.101 S 
ATOM     20  C   LIG    1        6.098  -1.871   3.333  0.00  0.00    +0.046 A 
ATOM     21  C   LIG    1        5.620  -1.908   2.068  0.00  0.00    +0.013 A 
ATOM     22  C   LIG    1        5.596  -3.111   1.365  0.00  0.00    -0.017 A 
ENDBRANCH  12  14
ENDBRANCH   7  12
TORSDOF 2
