REMARK  Name = ZINC40408000
REMARK                            x       y       z     vdW  Elec       q    Type
REMARK                         _______ _______ _______ _____ _____    ______ ____
ROOT
ATOM      1  N   LIG    1        1.768  -2.420   0.519  0.00  0.00    -0.297 N 
ATOM      2  H   LIG    1        1.573  -1.692   1.130  0.00  0.00    +0.150 HD
ATOM      3  C   LIG    1        1.439  -3.684   0.850  0.00  0.00    +0.245 C 
ATOM      4  O   LIG    1        1.684  -4.596   0.085  0.00  0.00    -0.270 OA
ENDROOT
BRANCH   3   5
ATOM      5  C   LIG    1        0.782  -3.961   2.142  0.00  0.00    +0.039 A 
ATOM      6  C   LIG    1        0.495  -2.907   3.021  0.00  0.00    +0.015 A 
ATOM      7  C   LIG    1       -0.112  -3.149   4.216  0.00  0.00    +0.030 A 
ATOM      8  C   LIG    1       -0.455  -4.459   4.578  0.00  0.00    +0.089 A 
ATOM      9  C   LIG    1       -0.170  -5.522   3.699  0.00  0.00    +0.067 A 
ATOM     10  N   LIG    1       -0.619  -6.669   4.324  0.00  0.00    -0.338 N 
ATOM     11  C   LIG    1       -1.149  -6.289   5.526  0.00  0.00    +0.139 A 
ATOM     12  H   LIG    1       -0.569  -7.573   3.977  0.00  0.00    +0.167 HD
ATOM     13  N   LIG    1       -1.047  -4.989   5.665  0.00  0.00    -0.228 NA
ATOM     14  C   LIG    1        0.442  -5.269   2.483  0.00  0.00    +0.040 A 
BRANCH  11  15
ATOM     15  C   LIG    1       -1.747  -7.207   6.521  0.00  0.00    +0.020 A 
ATOM     16  C   LIG    1       -1.806  -8.585   6.284  0.00  0.00    +0.031 A 
ATOM     17  C   LIG    1       -2.372  -9.404   7.239  0.00  0.00    +0.111 A 
ATOM     18  N   LIG    1       -2.853  -8.905   8.361  0.00  0.00    -0.263 NA
ATOM     19  C   LIG    1       -2.818  -7.613   8.624  0.00  0.00    +0.111 A 
ATOM     20  C   LIG    1       -2.264  -6.722   7.727  0.00  0.00    +0.031 A 
ENDBRANCH  11  15
ENDBRANCH   3   5
BRANCH   1  21
ATOM     21  CA  LIG    1        2.421  -2.145  -0.763  0.00  0.00    +0.199 C 
BRANCH  21  22
ATOM     22  C   LIG    1        3.909  -2.342  -0.623  0.00  0.00    +0.327 C 
ATOM     23  O   LIG    1        4.452  -2.139   0.450  0.00  0.00    -0.249 OA
BRANCH  22  24
ATOM     24  OXT LIG    1        4.569  -2.704  -1.581  0.00  0.00    -0.479 OA
ATOM     25  HXT LIG    1        4.152  -2.860  -2.405  0.00  0.00    +0.295 HD
ENDBRANCH  22  24
ENDBRANCH  21  22
BRANCH  21  26
ATOM     26  C   LIG    1        2.135  -0.701  -1.182  0.00  0.00    +0.138 C 
BRANCH  26  27
ATOM     27  N   LIG    1        0.688  -0.476  -1.203  0.00  0.00    -0.328 N 
BRANCH  27  28
ATOM     28  C   LIG    1       -0.038  -0.713  -2.373  0.00  0.00    +0.030 A 
ATOM     29  C   LIG    1        0.609  -1.166  -3.515  0.00  0.00    +0.023 A 
ATOM     30  C   LIG    1       -0.112  -1.399  -4.669  0.00  0.00    +0.002 A 
ATOM     31  C   LIG    1       -1.477  -1.181  -4.689  0.00  0.00    +0.000 A 
ATOM     32  C   LIG    1       -2.125  -0.730  -3.554  0.00  0.00    +0.002 A 
ATOM     33  C   LIG    1       -1.411  -0.500  -2.395  0.00  0.00    +0.023 A 
ENDBRANCH  27  28
BRANCH  27  35
ATOM     34  C   LIG    1       -0.019   1.526   0.010  0.00  0.00    +0.024 C 
ATOM     35  C   LIG    1        0.002  -0.004   0.002  0.00  0.00    +0.102 C 
ENDBRANCH  27  35
ENDBRANCH  26  27
ENDBRANCH  21  26
ENDBRANCH   1  21
TORSDOF 9
