REMARK  Name = ZINC14965006
REMARK                            x       y       z     vdW  Elec       q    Type
REMARK                         _______ _______ _______ _____ _____    ______ ____
ROOT
ATOM      1  C   LIG    1       -0.212   1.501  -0.327  0.00  0.00    +0.044 C 
ATOM      2  C   LIG    1       -0.148  -0.004  -0.277  0.00  0.00    -0.049 A 
ATOM      3  C   LIG    1       -0.259  -0.737  -1.448  0.00  0.00    +0.008 A 
ATOM      4  C   LIG    1       -0.202  -2.115  -1.419  0.00  0.00    -0.027 A 
ATOM      5  C   LIG    1       -0.325  -2.901  -2.698  0.00  0.00    +0.046 C 
ATOM      6  C   LIG    1       -0.033  -2.779  -0.209  0.00  0.00    +0.065 A 
ATOM      7  C   LIG    1        0.080  -2.039   0.980  0.00  0.00    +0.082 A 
ATOM      8  C   LIG    1        0.026  -0.642   0.930  0.00  0.00    +0.020 A 
ENDROOT
BRANCH   6   9
ATOM      9  N   LIG    1        0.024  -4.165  -0.177  0.00  0.00    -0.215 N 
ATOM     10  H   LIG    1       -0.699  -4.671   0.227  0.00  0.00    +0.174 HD
BRANCH   9  11
ATOM     11  S   LIG    1        1.325  -4.956  -0.827  0.00  0.00    +0.072 S 
ATOM     12  O   LIG    1        1.547  -4.387  -2.110  0.00  0.00    -0.150 OA
ATOM     13  O   LIG    1        1.092  -6.345  -0.639  0.00  0.00    -0.150 OA
BRANCH  11  14
ATOM     14  C   LIG    1        2.729  -4.544   0.156  0.00  0.00    +0.108 A 
ATOM     15  C   LIG    1        3.435  -3.384  -0.100  0.00  0.00    +0.029 A 
ATOM     16  C   LIG    1        4.536  -3.061   0.670  0.00  0.00    +0.002 A 
ATOM     17  C   LIG    1        4.931  -3.897   1.697  0.00  0.00    +0.000 A 
ATOM     18  C   LIG    1        4.224  -5.057   1.954  0.00  0.00    +0.002 A 
ATOM     19  C   LIG    1        3.120  -5.378   1.186  0.00  0.00    +0.029 A 
ENDBRANCH  11  14
ENDBRANCH   9  11
ENDBRANCH   6   9
BRANCH   7  20
ATOM     20  C   LIG    1        0.259  -2.728   2.266  0.00  0.00    +0.339 C 
ATOM     21  O   LIG    1        0.267  -2.087   3.308  0.00  0.00    -0.245 OA
BRANCH  20  22
ATOM     22  O   LIG    1        0.401  -3.943   2.295  0.00  0.00    -0.477 OA
ATOM     23  H   LIG    1        0.395  -4.435   1.497  0.00  0.00    +0.295 HD
ENDBRANCH  20  22
ENDBRANCH   7  20
TORSDOF 5
