REMARK  Name = ZINC20289079
REMARK                            x       y       z     vdW  Elec       q    Type
REMARK                         _______ _______ _______ _____ _____    ______ ____
ROOT
ATOM      1  C   LIG    1        0.918   5.160   0.021  0.00  0.00    +0.114 C 
ENDROOT
BRANCH   1   2
ATOM      2  N   LIG    1        2.073   5.277  -0.880  0.00  0.00    -0.290 NA
ATOM      3  C   LIG    1        2.641   6.632  -0.834  0.00  0.00    +0.104 C 
ATOM      4  C   LIG    1        3.886   6.690  -1.723  0.00  0.00    +0.120 C 
ATOM      5  N   LIG    1        3.521   6.321  -3.098  0.00  0.00    -0.327 N 
ATOM      6  C   LIG    1        2.953   4.967  -3.143  0.00  0.00    +0.120 C 
ATOM      7  C   LIG    1        1.708   4.909  -2.255  0.00  0.00    +0.104 C 
BRANCH   5   8
ATOM      8  C   LIG    1        4.620   6.433  -3.955  0.00  0.00    +0.030 A 
ATOM      9  C   LIG    1        5.035   5.336  -4.700  0.00  0.00    +0.026 A 
ATOM     10  C   LIG    1        6.118   5.450  -5.550  0.00  0.00    +0.040 A 
ATOM     11  C   LIG    1        6.796   6.653  -5.651  0.00  0.00    +0.124 A 
ATOM     12  F   LIG    1        7.858   6.760  -6.479  0.00  0.00    -0.205 F 
ATOM     13  C   LIG    1        6.388   7.745  -4.905  0.00  0.00    +0.040 A 
ATOM     14  C   LIG    1        5.302   7.638  -4.058  0.00  0.00    +0.026 A 
ENDBRANCH   5   8
ENDBRANCH   1   2
BRANCH   1  15
ATOM     15  C   LIG    1        0.421   3.738   0.017  0.00  0.00    +0.009 A 
ATOM     16  C   LIG    1       -0.855   3.279   0.027  0.00  0.00    +0.013 A 
ATOM     17  C   LIG    1       -1.077   1.915   0.017  0.00  0.00    +0.008 A 
ATOM     18  C   LIG    1       -0.013   1.076   0.008  0.00  0.00    +0.045 A 
ATOM     19  S   LIG    1        1.359   2.219   0.001  0.00  0.00    -0.100 S 
ENDBRANCH   1  15
BRANCH   1  21
ATOM     20  C   LIG    1        2.534   4.703   1.870  0.00  0.00    +0.030 C 
ATOM     21  C   LIG    1        1.336   5.551   1.439  0.00  0.00    +0.092 C 
BRANCH  21  22
ATOM     22  N   LIG    1        0.219   5.321   2.359  0.00  0.00    -0.303 N 
ATOM     23  H   LIG    1       -0.553   4.577   2.111  0.00  0.00    +0.149 HD
ATOM     24  C   LIG    1        0.137   6.021   3.508  0.00  0.00    +0.299 C 
ATOM     25  O   LIG    1        0.988   6.841   3.781  0.00  0.00    -0.265 OA
BRANCH  24  26
ATOM     26  C   LIG    1       -1.003   5.786   4.446  0.00  0.00    +0.299 C 
ATOM     27  N   LIG    1       -1.085   6.485   5.595  0.00  0.00    -0.303 N 
ATOM     28  H   LIG    1       -0.314   7.229   5.842  0.00  0.00    +0.149 HD
ATOM     29  O   LIG    1       -1.855   4.965   4.172  0.00  0.00    -0.265 OA
BRANCH  27  30
ATOM     30  C   LIG    1       -2.203   6.255   6.514  0.00  0.00    +0.141 C 
BRANCH  30  31
ATOM     31  C   LIG    1       -2.060   7.156   7.713  0.00  0.00    -0.012 A 
ATOM     32  C   LIG    1       -1.364   6.729   8.834  0.00  0.00    +0.008 A 
ATOM     33  C   LIG    1       -1.255   7.594   9.912  0.00  0.00    +0.020 A 
ATOM     34  C   LIG    1       -1.847   8.840   9.838  0.00  0.00    +0.111 A 
ATOM     35  N   LIG    1       -2.506   9.211   8.758  0.00  0.00    -0.263 NA
ATOM     36  C   LIG    1       -2.627   8.417   7.712  0.00  0.00    +0.115 A 
ENDBRANCH  30  31
ENDBRANCH  27  30
ENDBRANCH  24  26
ENDBRANCH  21  22
ENDBRANCH   1  21
TORSDOF 8
