REMARK  Name = ZINC13779237
REMARK                            x       y       z     vdW  Elec       q    Type
REMARK                         _______ _______ _______ _____ _____    ______ ____
ROOT
ATOM      1  C   LIG    1       -0.013   1.086   0.008  0.00  0.00    +0.108 C 
ATOM      2  C   LIG    1       -0.717   1.584   1.279  0.00  0.00    +0.106 C 
ATOM      3  C   LIG    1       -0.646   3.098   1.284  0.00  0.00    +0.167 C 
ATOM      4  C   LIG    1        0.628   3.720   0.894  0.00  0.00    +0.038 A 
ATOM      5  C   LIG    1        0.874   5.071   1.153  0.00  0.00    +0.013 A 
ATOM      6  C   LIG    1        2.076   5.628   0.774  0.00  0.00    +0.001 A 
ATOM      7  C   LIG    1        3.037   4.857   0.138  0.00  0.00    +0.002 A 
ATOM      8  C   LIG    1        2.808   3.522  -0.124  0.00  0.00    +0.023 A 
ATOM      9  C   LIG    1        1.605   2.938   0.251  0.00  0.00    +0.038 A 
ATOM     10  O   LIG    1       -1.605   3.772   1.597  0.00  0.00    -0.292 OA
ATOM     11  N   LIG    1        1.363   1.596  -0.002  0.00  0.00    -0.336 N 
ATOM     12  H   LIG    1        2.103   0.996  -0.186  0.00  0.00    +0.147 HD
ENDROOT
BRANCH   1  17
ATOM     13  C   LIG    1       -2.287   1.213  -3.007  0.00  0.00    +0.120 A 
ATOM     14  C   LIG    1       -2.091   2.515  -3.444  0.00  0.00    +0.045 A 
ATOM     15  C   LIG    1       -1.225   3.348  -2.763  0.00  0.00    +0.004 A 
ATOM     16  C   LIG    1       -0.553   2.884  -1.647  0.00  0.00    +0.006 A 
ATOM     17  C   LIG    1       -0.747   1.587  -1.209  0.00  0.00    -0.023 A 
ATOM     18  C   LIG    1       -1.609   0.749  -1.889  0.00  0.00    +0.051 A 
BRANCH  13  20
ATOM     19  C   LIG    1       -3.799   0.935  -4.820  0.00  0.00    +0.277 C 
ATOM     20  O   LIG    1       -3.139   0.392  -3.675  0.00  0.00    -0.495 OA
ENDBRANCH  13  20
ENDBRANCH   1  17
TORSDOF 2
