REMARK  Name = ZINC43196547
REMARK                            x       y       z     vdW  Elec       q    Type
REMARK                         _______ _______ _______ _____ _____    ______ ____
ROOT
ATOM      1  C   LIG    1       -0.525   1.354   0.815  0.00  0.00    +0.154 C 
ATOM      2  N   LIG    1       -0.378  -0.087   0.597  0.00  0.00    -0.296 N 
ATOM      3  C   LIG    1       -0.109  -0.540  -0.639  0.00  0.00    +0.254 A 
ATOM      4  C   LIG    1        0.043  -1.903  -0.910  0.00  0.00    +0.094 A 
ATOM      5  C   LIG    1       -0.085  -2.825   0.117  0.00  0.00    +0.053 A 
ATOM      6  C   LIG    1       -0.377  -2.321   1.458  0.00  0.00    +0.103 A 
ATOM      7  C   LIG    1       -0.524  -3.191   2.567  0.00  0.00    +0.265 A 
ATOM      8  O   LIG    1       -0.412  -4.397   2.439  0.00  0.00    -0.267 OA
ATOM      9  N   LIG    1       -0.780  -2.638   3.775  0.00  0.00    -0.296 N 
ATOM     10  C   LIG    1       -0.903  -1.296   3.900  0.00  0.00    +0.204 A 
ATOM     11  N   LIG    1       -0.775  -0.482   2.888  0.00  0.00    -0.219 NA
ATOM     12  O   LIG    1        0.006   0.262  -1.552  0.00  0.00    -0.268 OA
ATOM     13  C   LIG    1       -0.512  -0.940   1.657  0.00  0.00    +0.152 A 
ENDROOT
BRANCH   5  14
ATOM     14  N   LIG    1        0.059  -4.177  -0.119  0.00  0.00    -0.311 N 
ATOM     15  H   LIG    1       -0.576  -4.641  -0.687  0.00  0.00    +0.152 HD
BRANCH  14  16
ATOM     16  C   LIG    1        1.121  -4.879   0.461  0.00  0.00    +0.067 A 
ATOM     17  C   LIG    1        2.103  -4.197   1.167  0.00  0.00    +0.027 A 
ATOM     18  C   LIG    1        3.151  -4.893   1.739  0.00  0.00    +0.016 A 
ATOM     19  C   LIG    1        3.223  -6.268   1.609  0.00  0.00    +0.016 A 
ATOM     20  I   LIG    1        4.815  -7.318   2.478  0.00  0.00    -0.044 I 
ATOM     21  C   LIG    1        2.247  -6.952   0.907  0.00  0.00    +0.054 A 
ATOM     22  C   LIG    1        1.192  -6.263   0.338  0.00  0.00    +0.145 A 
ATOM     23  F   LIG    1        0.236  -6.931  -0.343  0.00  0.00    -0.204 F 
ENDBRANCH  14  16
ENDBRANCH   5  14
BRANCH   9  24
ATOM     24  C   LIG    1       -0.935  -3.497   4.952  0.00  0.00    +0.160 C 
BRANCH  24  25
ATOM     25  C   LIG    1       -2.403  -3.901   5.098  0.00  0.00    +0.160 C 
BRANCH  25  26
ATOM     26  O   LIG    1       -2.788  -4.711   3.986  0.00  0.00    -0.388 OA
ATOM     27  H   LIG    1       -2.275  -5.526   3.896  0.00  0.00    +0.210 HD
ENDBRANCH  25  26
BRANCH  25  28
ATOM     28  C   LIG    1       -2.587  -4.694   6.394  0.00  0.00    +0.188 C 
BRANCH  28  29
ATOM     29  O   LIG    1       -3.975  -4.972   6.590  0.00  0.00    -0.392 OA
ATOM     30  H   LIG    1       -4.166  -5.473   7.394  0.00  0.00    +0.210 HD
ENDBRANCH  28  29
ENDBRANCH  25  28
ENDBRANCH  24  25
ENDBRANCH   9  24
TORSDOF 7
