REMARK  Name = ZINC28378775
REMARK                            x       y       z     vdW  Elec       q    Type
REMARK                         _______ _______ _______ _____ _____    ______ ____
ROOT
ATOM      1  C   LIG    1       -0.735   2.019   1.269  0.00  0.00    +0.044 C 
ATOM      2  C   LIG    1        0.110   1.741   2.536  0.00  0.00    +0.131 C 
ATOM      3  C   LIG    1       -0.113   2.966   3.396  0.00  0.00    +0.237 C 
ATOM      4  N   LIG    1       -0.610   3.931   2.704  0.00  0.00    -0.277 N 
ATOM      5  H   LIG    1       -0.832   4.895   3.186  0.00  0.00    +0.304 HD
ATOM      6  C   LIG    1       -0.811   3.563   1.298  0.00  0.00    +0.173 C 
ATOM      7  C   LIG    1       -2.184   4.036   0.816  0.00  0.00    +0.057 C 
ENDROOT
BRANCH   3   8
ATOM      8  N   LIG    1        0.176   3.038   4.733  0.00  0.00    -0.254 N 
ATOM      9  H   LIG    1        0.600   2.165   5.252  0.00  0.00    +0.288 HD
ATOM     10  H   LIG    1       -0.015   3.968   5.288  0.00  0.00    +0.288 HD
ENDBRANCH   3   8
BRANCH   1  12
ATOM     11  C   LIG    1        0.002  -0.004   0.002  0.00  0.00    +0.004 C 
ATOM     12  C   LIG    1       -0.019   1.526   0.010  0.00  0.00    +0.005 C 
ENDBRANCH   1  12
TORSDOF 2
