REMARK  Name = ZINC21984468
REMARK                            x       y       z     vdW  Elec       q    Type
REMARK                         _______ _______ _______ _____ _____    ______ ____
ROOT
ATOM      1  C   LIG    1       -1.219   1.751   0.017  0.00  0.00    +0.001 A 
ATOM      2  C   LIG    1       -0.013   1.076   0.008  0.00  0.00    +0.004 A 
ATOM      3  C   LIG    1        1.173   1.782   0.000  0.00  0.00    +0.046 A 
ATOM      4  C   LIG    1        1.157   3.173   0.007  0.00  0.00    +0.132 A 
ATOM      5  C   LIG    1       -0.053   3.846   0.021  0.00  0.00    +0.001 A 
ATOM      6  C   LIG    1       -0.098   5.349   0.028  0.00  0.00    +0.039 C 
ATOM      7  C   LIG    1        1.233   5.917   0.441  0.00  0.00    +0.001 A 
ATOM      8  C   LIG    1        1.308   7.233   0.860  0.00  0.00    +0.008 A 
ATOM      9  C   LIG    1        2.520   7.774   1.244  0.00  0.00    +0.001 A 
ATOM     10  C   LIG    1        3.665   6.998   1.210  0.00  0.00    +0.004 A 
ATOM     11  C   LIG    1        3.596   5.684   0.793  0.00  0.00    +0.046 A 
ATOM     12  C   LIG    1        2.378   5.138   0.406  0.00  0.00    +0.132 A 
ATOM     13  O   LIG    1        2.332   3.847  -0.001  0.00  0.00    -0.455 OA
ATOM     14  C   LIG    1       -1.238   3.132   0.028  0.00  0.00    +0.008 A 
ENDROOT
BRANCH   6  15
ATOM     15  C   LIG    1       -0.446   5.849  -1.376  0.00  0.00    -0.073 C 
BRANCH  15  16
ATOM     16  N   LIG    1       -1.796   5.396  -1.736  0.00  0.00    +0.379 N 
ATOM     17  H   LIG    1       -1.831   4.297  -1.719  0.00  0.00    -0.090 HD
ATOM     18  H   LIG    1       -2.522   5.798  -1.014  0.00  0.00    -0.090 HD
ATOM     19  H   LIG    1       -2.046   5.755  -2.746  0.00  0.00    -0.090 HD
ENDBRANCH  15  16
ENDBRANCH   6  15
TORSDOF 2
