REMARK  Name = ZINC00020439
REMARK                            x       y       z     vdW  Elec       q    Type
REMARK                         _______ _______ _______ _____ _____    ______ ____
ROOT
ATOM      1  C   LIG    1       -0.017   1.387   0.010  0.00  0.00    +0.004 A 
ATOM      2  C   LIG    1        1.143   2.105   0.003  0.00  0.00    +0.015 A 
ATOM      3  C   LIG    1        2.373   1.439  -0.013  0.00  0.00    +0.065 A 
ATOM      4  C   LIG    1        2.406   0.022  -0.021  0.00  0.00    +0.120 A 
ATOM      5  N   LIG    1        3.593  -0.596  -0.035  0.00  0.00    -0.223 NA
ATOM      6  C   LIG    1        4.711   0.105  -0.041  0.00  0.00    +0.164 A 
ATOM      7  N   LIG    1        4.724   1.438  -0.034  0.00  0.00    -0.193 NA
ATOM      8  C   LIG    1        1.195  -0.694  -0.013  0.00  0.00    +0.143 A 
ATOM      9  C   LIG    1        3.604   2.138  -0.020  0.00  0.00    +0.224 A 
ATOM     10  C   LIG    1        0.002  -0.004   0.002  0.00  0.00    +0.047 A 
ENDROOT
BRANCH   6  11
ATOM     11  C   LIG    1        6.005  -0.619  -0.056  0.00  0.00    +0.019 A 
ATOM     12  C   LIG    1        6.026  -2.013  -0.069  0.00  0.00    +0.014 A 
ATOM     13  C   LIG    1        7.233  -2.682  -0.083  0.00  0.00    +0.033 A 
ATOM     14  C   LIG    1        8.420  -1.972  -0.084  0.00  0.00    +0.122 A 
ATOM     15  C   LIG    1        8.405  -0.588  -0.071  0.00  0.00    +0.033 A 
ATOM     16  C   LIG    1        7.204   0.091  -0.064  0.00  0.00    +0.014 A 
BRANCH  14  17
ATOM     17  N   LIG    1        9.712  -2.695  -0.099  0.00  0.00    +0.006 N 
ATOM     18  O   LIG    1        9.728  -3.903  -0.110  0.00  0.00    -0.130 OA
BRANCH  17  19
ATOM     19  O   LIG    1       10.751  -2.076  -0.100  0.00  0.00    -0.396 OA
ATOM     20  H   LIG    1       10.738  -1.139  -0.091  0.00  0.00    +0.329 HD
ENDBRANCH  17  19
ENDBRANCH  14  17
ENDBRANCH   6  11
BRANCH   8  21
ATOM     21  O   LIG    1        1.201  -2.052  -0.020  0.00  0.00    -0.505 OA
ATOM     22  H   LIG    1        1.211  -2.450   0.862  0.00  0.00    +0.292 HD
ENDBRANCH   8  21
BRANCH   9  23
ATOM     23  O   LIG    1        3.632   3.491  -0.014  0.00  0.00    -0.492 OA
ATOM     24  H   LIG    1        2.831   3.976  -0.004  0.00  0.00    +0.294 HD
ENDBRANCH   9  23
TORSDOF 5
