REMARK  Name = ZINC28103203
REMARK                            x       y       z     vdW  Elec       q    Type
REMARK                         _______ _______ _______ _____ _____    ______ ____
ROOT
ATOM      1  N   LIG    1        2.112  -2.637  -1.494  0.00  0.00    -0.288 N 
ATOM      2  H   LIG    1        2.993  -1.993  -1.632  0.00  0.00    +0.151 HD
ATOM      3  C   LIG    1        2.071  -3.856  -2.067  0.00  0.00    +0.303 C 
ATOM      4  N   LIG    1        3.111  -4.287  -2.808  0.00  0.00    -0.279 N 
ATOM      5  O   LIG    1        1.097  -4.567  -1.914  0.00  0.00    -0.253 OA
ENDROOT
BRANCH   4   6
ATOM      6  C   LIG    1        3.068  -5.613  -3.430  0.00  0.00    +0.142 C 
BRANCH   6   7
ATOM      7  C   LIG    1        2.450  -5.501  -4.825  0.00  0.00    +0.152 C 
BRANCH   7   8
ATOM      8  O   LIG    1        3.303  -4.718  -5.663  0.00  0.00    -0.388 OA
ATOM      9  H   LIG    1        3.023  -4.528  -6.709  0.00  0.00    +0.210 HD
ENDBRANCH   7   8
BRANCH   7  10
ATOM     10  C   LIG    1        2.290  -6.899  -5.425  0.00  0.00    +0.110 C 
BRANCH  10  11
ATOM     11  N   LIG    1        1.590  -6.803  -6.709  0.00  0.00    -0.275 N 
ATOM     12  H   LIG    1        1.631  -5.869  -7.288  0.00  0.00    +0.152 HD
ATOM     13  C   LIG    1        0.897  -7.858  -7.180  0.00  0.00    +0.401 C 
ATOM     14  O   LIG    1        0.852  -8.890  -6.540  0.00  0.00    -0.226 OA
BRANCH  13  15
ATOM     15  O   LIG    1        0.254  -7.769  -8.360  0.00  0.00    -0.445 OA
BRANCH  15  16
ATOM     16  C   LIG    1       -0.472  -8.945  -8.805  0.00  0.00    +0.107 C 
ATOM     17  C   LIG    1        0.498 -10.118  -8.953  0.00  0.00    +0.055 C 
ATOM     18  C   LIG    1       -1.133  -8.656 -10.154  0.00  0.00    +0.055 C 
ATOM     19  C   LIG    1       -1.548  -9.299  -7.776  0.00  0.00    +0.055 C 
ENDBRANCH  15  16
ENDBRANCH  13  15
ENDBRANCH  10  11
BRANCH  10  20
ATOM     20  C   LIG    1        3.670  -7.523  -5.642  0.00  0.00    +0.060 C 
BRANCH  20  21
ATOM     21  C   LIG    1        3.510  -8.944  -6.118  0.00  0.00    -0.046 A 
ATOM     22  C   LIG    1        3.450  -9.977  -5.201  0.00  0.00    +0.004 A 
ATOM     23  C   LIG    1        3.298 -11.280  -5.636  0.00  0.00    +0.000 A 
ATOM     24  C   LIG    1        3.218 -11.551  -6.989  0.00  0.00    +0.000 A 
ATOM     25  C   LIG    1        3.284 -10.519  -7.907  0.00  0.00    +0.000 A 
ATOM     26  C   LIG    1        3.430  -9.215  -7.471  0.00  0.00    +0.004 A 
ENDBRANCH  20  21
ENDBRANCH  10  20
ENDBRANCH   7  10
ENDBRANCH   6   7
ENDBRANCH   4   6
BRANCH   4  27
ATOM     27  C   LIG    1        4.285  -3.430  -2.991  0.00  0.00    +0.144 C 
BRANCH  27  28
ATOM     28  C   LIG    1        5.281  -3.701  -1.893  0.00  0.00    -0.030 A 
ATOM     29  C   LIG    1        5.229  -2.975  -0.718  0.00  0.00    +0.005 A 
ATOM     30  C   LIG    1        6.139  -3.227   0.292  0.00  0.00    +0.000 A 
ATOM     31  C   LIG    1        7.109  -4.197   0.122  0.00  0.00    +0.000 A 
ATOM     32  C   LIG    1        7.165  -4.920  -1.056  0.00  0.00    +0.000 A 
ATOM     33  C   LIG    1        6.251  -4.672  -2.063  0.00  0.00    +0.005 A 
ENDBRANCH  27  28
ENDBRANCH   4  27
BRANCH   1  34
ATOM     34  C   LIG    1        0.981  -2.168  -0.689  0.00  0.00    +0.161 C 
BRANCH  34  35
ATOM     35  C   LIG    1        0.961  -0.661  -0.680  0.00  0.00    +0.234 C 
ATOM     36  N   LIG    1        0.002  -0.004   0.002  0.00  0.00    -0.301 N 
ATOM     37  H   LIG    1       -0.765  -0.568   0.553  0.00  0.00    +0.150 HD
ATOM     38  O   LIG    1        1.807  -0.040  -1.287  0.00  0.00    -0.274 OA
BRANCH  36  39
ATOM     39  C   LIG    1       -0.018   1.461   0.010  0.00  0.00    +0.184 C 
BRANCH  39  40
ATOM     40  C   LIG    1       -0.758   1.968  -1.230  0.00  0.00    +0.014 C 
ATOM     41  C   LIG    1       -0.042   1.474  -2.488  0.00  0.00    +0.009 C 
ATOM     42  C   LIG    1       -0.778   3.497  -1.221  0.00  0.00    +0.009 C 
ENDBRANCH  39  40
BRANCH  39  43
ATOM     43  C   LIG    1       -0.723   1.947   1.250  0.00  0.00    +0.328 C 
ATOM     44  O   LIG    1       -1.164   1.151   2.045  0.00  0.00    -0.249 OA
BRANCH  43  45
ATOM     45  O   LIG    1       -0.862   3.264   1.471  0.00  0.00    -0.467 OA
ATOM     46  C   LIG    1       -1.552   3.659   2.685  0.00  0.00    +0.280 C 
ENDBRANCH  43  45
ENDBRANCH  39  43
ENDBRANCH  36  39
ENDBRANCH  34  35
BRANCH  34  47
ATOM     47  C   LIG    1        1.128  -2.684   0.745  0.00  0.00    +0.034 C 
BRANCH  47  49
ATOM     48  C   LIG    1        1.293  -4.735   2.162  0.00  0.00    +0.007 C 
ATOM     49  C   LIG    1        1.023  -4.210   0.750  0.00  0.00    -0.015 C 
ATOM     50  C   LIG    1       -0.382  -4.627   0.311  0.00  0.00    +0.007 C 
ENDBRANCH  47  49
ENDBRANCH  34  47
ENDBRANCH   1  34
TORSDOF 19
