REMARK  Name = ZINC00036779
REMARK                            x       y       z     vdW  Elec       q    Type
REMARK                         _______ _______ _______ _____ _____    ______ ____
ROOT
ATOM      1  C   LIG    1       -2.925   4.187   1.303  0.00  0.00    +0.022 C 
ATOM      2  C   LIG    1       -2.103   4.438   0.037  0.00  0.00    +0.056 C 
ATOM      3  C   LIG    1       -2.972   4.155  -1.186  0.00  0.00    +0.029 C 
ATOM      4  C   LIG    1       -3.109   5.406  -2.081  0.00  0.00    +0.051 C 
ATOM      5  C   LIG    1       -3.644   6.498  -1.167  0.00  0.00    -0.036 A 
ATOM      6  C   LIG    1       -4.800   7.194  -1.379  0.00  0.00    +0.004 A 
ATOM      7  C   LIG    1       -5.173   8.167  -0.461  0.00  0.00    +0.000 A 
ATOM      8  C   LIG    1       -4.386   8.424   0.646  0.00  0.00    +0.000 A 
ATOM      9  C   LIG    1       -3.211   7.712   0.855  0.00  0.00    +0.004 A 
ATOM     10  C   LIG    1       -2.851   6.756  -0.052  0.00  0.00    -0.035 A 
ATOM     11  C   LIG    1       -1.684   5.826  -2.406  0.00  0.00    -0.036 A 
ATOM     12  C   LIG    1       -1.177   5.953  -3.668  0.00  0.00    +0.004 A 
ATOM     13  C   LIG    1        0.147   6.344  -3.821  0.00  0.00    +0.000 A 
ATOM     14  C   LIG    1        0.934   6.600  -2.714  0.00  0.00    +0.000 A 
ATOM     15  C   LIG    1        0.412   6.470  -1.433  0.00  0.00    +0.004 A 
ATOM     16  C   LIG    1       -0.890   6.084  -1.290  0.00  0.00    -0.035 A 
ATOM     17  C   LIG    1       -1.599   5.898   0.042  0.00  0.00    +0.064 C 
ENDROOT
BRANCH   2  18
ATOM     18  C   LIG    1       -0.918   3.507   0.026  0.00  0.00    +0.225 C 
ATOM     19  N   LIG    1       -1.109   2.173   0.019  0.00  0.00    -0.264 N 
ATOM     20  H   LIG    1       -2.009   1.812   0.022  0.00  0.00    +0.157 HD
ATOM     21  O   LIG    1        0.208   3.959   0.022  0.00  0.00    -0.275 OA
BRANCH  19  22
ATOM     22  C   LIG    1       -0.016   1.315   0.009  0.00  0.00    +0.164 A 
ATOM     23  N   LIG    1        0.002  -0.004   0.002  0.00  0.00    -0.233 NA
ATOM     24  C   LIG    1        1.139  -0.672  -0.012  0.00  0.00    +0.120 A 
ATOM     25  C   LIG    1        2.300   0.029  -0.020  0.00  0.00    +0.068 A 
ATOM     26  S   LIG    1        1.677   1.703  -0.005  0.00  0.00    -0.061 S 
ENDBRANCH  19  22
ENDBRANCH   2  18
TORSDOF 2
