REMARK  Name = ZINC17740306
REMARK                            x       y       z     vdW  Elec       q    Type
REMARK                         _______ _______ _______ _____ _____    ______ ____
ROOT
ATOM      1  C   LIG    1        0.065  -2.992   6.583  0.00  0.00    +0.119 C 
ENDROOT
BRANCH   1   5
ATOM      2  N   LIG    1        0.506  -3.191   2.414  0.00  0.00    -0.327 N 
ATOM      3  C   LIG    1       -0.851  -3.376   2.951  0.00  0.00    +0.120 C 
ATOM      4  C   LIG    1       -0.895  -2.794   4.369  0.00  0.00    +0.103 C 
ATOM      5  N   LIG    1        0.178  -3.392   5.174  0.00  0.00    -0.297 NA
ATOM      6  C   LIG    1        1.502  -3.050   4.635  0.00  0.00    +0.103 C 
ATOM      7  C   LIG    1        1.644  -3.647   3.225  0.00  0.00    +0.120 C 
BRANCH   2  13
ATOM      8  C   LIG    1        1.248   0.841  -0.296  0.00  0.00    +0.044 C 
ATOM      9  C   LIG    1        1.070  -0.651  -0.181  0.00  0.00    -0.046 A 
ATOM     10  C   LIG    1        1.106  -1.440  -1.316  0.00  0.00    +0.004 A 
ATOM     11  C   LIG    1        0.943  -2.809  -1.215  0.00  0.00    +0.002 A 
ATOM     12  C   LIG    1        0.744  -3.393   0.021  0.00  0.00    +0.023 A 
ATOM     13  C   LIG    1        0.707  -2.604   1.163  0.00  0.00    +0.033 A 
ATOM     14  C   LIG    1        0.877  -1.229   1.058  0.00  0.00    -0.027 A 
ATOM     15  C   LIG    1        0.844  -0.368   2.295  0.00  0.00    +0.046 C 
ENDBRANCH   2  13
ENDBRANCH   1   5
BRANCH   1  16
ATOM     16  C   LIG    1       -1.070  -3.776   7.245  0.00  0.00    +0.166 C 
BRANCH  16  17
ATOM     17  O   LIG    1       -0.761  -5.171   7.223  0.00  0.00    -0.387 OA
ATOM     18  H   LIG    1        0.054  -5.401   7.689  0.00  0.00    +0.210 HD
ENDBRANCH  16  17
BRANCH  16  19
ATOM     19  C   LIG    1       -1.231  -3.312   8.694  0.00  0.00    +0.261 C 
BRANCH  19  20
ATOM     20  O   LIG    1       -2.364  -3.959   9.278  0.00  0.00    -0.489 OA
BRANCH  20  21
ATOM     21  C   LIG    1       -2.649  -3.655  10.569  0.00  0.00    +0.121 A 
ATOM     22  C   LIG    1       -1.854  -2.746  11.259  0.00  0.00    +0.046 A 
ATOM     23  C   LIG    1       -2.138  -2.436  12.564  0.00  0.00    +0.015 A 
ATOM     24  C   LIG    1       -3.231  -3.036  13.202  0.00  0.00    +0.017 A 
ATOM     25  C   LIG    1       -4.028  -3.951  12.503  0.00  0.00    +0.015 A 
ATOM     26  C   LIG    1       -3.738  -4.251  11.197  0.00  0.00    +0.046 A 
BRANCH  24  27
ATOM     27  C   LIG    1       -3.539  -2.708  14.600  0.00  0.00    +0.160 C 
ATOM     28  C   LIG    1       -4.715  -3.356  15.284  0.00  0.00    +0.091 C 
ATOM     29  O   LIG    1       -2.847  -1.916  15.204  0.00  0.00    -0.292 OA
ENDBRANCH  24  27
ENDBRANCH  20  21
ENDBRANCH  19  20
ENDBRANCH  16  19
ENDBRANCH   1  16
TORSDOF 8
