REMARK  Name = ZINC29050641
REMARK                            x       y       z     vdW  Elec       q    Type
REMARK                         _______ _______ _______ _____ _____    ______ ____
ROOT
ATOM      1  C   LIG    1       -0.764   3.110   1.262  0.00  0.00    -0.018 C 
ATOM      2  C   LIG    1       -0.729   1.579   1.267  0.00  0.00    +0.021 C 
ATOM      3  C   LIG    1       -0.013   1.086   0.008  0.00  0.00    +0.107 C 
ATOM      4  N   LIG    1       -0.723   1.572  -1.182  0.00  0.00    -0.315 N 
ATOM      5  C   LIG    1       -0.729   3.040  -1.234  0.00  0.00    +0.107 C 
ATOM      6  C   LIG    1       -1.466   3.591  -0.011  0.00  0.00    +0.021 C 
ENDROOT
BRANCH   4   7
ATOM      7  C   LIG    1       -0.179   1.038  -2.336  0.00  0.00    +0.134 A 
ATOM      8  C   LIG    1       -0.702   1.366  -3.597  0.00  0.00    +0.059 A 
ATOM      9  C   LIG    1       -1.789   2.216  -4.077  0.00  0.00    +0.032 A 
ATOM     10  C   LIG    1       -1.796   2.117  -5.417  0.00  0.00    +0.085 A 
ATOM     11  N   LIG    1       -0.798   1.271  -5.825  0.00  0.00    -0.346 N 
ATOM     12  H   LIG    1       -0.653   1.069  -6.897  0.00  0.00    +0.167 HD
ATOM     13  C   LIG    1       -0.114   0.796  -4.741  0.00  0.00    +0.143 A 
ATOM     14  N   LIG    1        0.917  -0.033  -4.581  0.00  0.00    -0.218 NA
ATOM     15  C   LIG    1        1.374  -0.312  -3.380  0.00  0.00    +0.225 A 
ATOM     16  N   LIG    1        0.856   0.204  -2.280  0.00  0.00    -0.220 NA
ENDBRANCH   4   7
BRANCH   1  17
ATOM     17  C   LIG    1       -1.532   3.608   2.488  0.00  0.00    -0.041 C 
BRANCH  17  24
ATOM     18  C   LIG    1        0.278   3.799   4.206  0.00  0.00    +0.003 A 
ATOM     19  C   LIG    1        0.909   3.368   5.358  0.00  0.00    +0.020 A 
ATOM     20  C   LIG    1        0.428   2.263   6.038  0.00  0.00    +0.041 A 
ATOM     21 CL   LIG    1        1.224   1.717   7.481  0.00  0.00    -0.084 Cl
ATOM     22  C   LIG    1       -0.688   1.594   5.568  0.00  0.00    +0.020 A 
ATOM     23  C   LIG    1       -1.322   2.030   4.419  0.00  0.00    +0.003 A 
ATOM     24  C   LIG    1       -0.841   3.134   3.740  0.00  0.00    -0.062 A 
ENDBRANCH  17  24
BRANCH  17  25
ATOM     25  N   LIG    1       -1.572   5.076   2.477  0.00  0.00    +0.383 N 
ATOM     26  H   LIG    1       -2.124   5.434   3.359  0.00  0.00    -0.089 HD
ATOM     27  H   LIG    1       -0.546   5.472   2.502  0.00  0.00    -0.089 HD
ATOM     28  H   LIG    1       -2.077   5.423   1.563  0.00  0.00    -0.089 HD
ENDBRANCH  17  25
ENDBRANCH   1  17
TORSDOF 4
