REMARK  Name = ZINC71789372
REMARK                            x       y       z     vdW  Elec       q    Type
REMARK                         _______ _______ _______ _____ _____    ______ ____
ROOT
ATOM      1  C   LIG    1       -0.013   1.086   0.008  0.00  0.00    +0.178 C 
ATOM      2  C   LIG    1       -0.729   1.579   1.267  0.00  0.00    +0.193 C 
ATOM      3  C   LIG    1        0.011   1.072   2.506  0.00  0.00    +0.193 C 
ATOM      4  C   LIG    1        1.446   1.602   2.495  0.00  0.00    +0.178 C 
ATOM      5  C   LIG    1        2.163   1.109   1.237  0.00  0.00    +0.193 C 
ATOM      6  C   LIG    1        1.423   1.615  -0.003  0.00  0.00    +0.193 C 
ENDROOT
BRANCH   4   7
ATOM      7  O   LIG    1        1.427   3.031   2.503  0.00  0.00    -0.386 OA
ATOM      8  H   LIG    1        2.305   3.436   2.497  0.00  0.00    +0.210 HD
ENDBRANCH   4   7
BRANCH   1   9
ATOM      9  O   LIG    1       -0.704   1.559  -1.150  0.00  0.00    -0.386 OA
ATOM     10  H   LIG    1       -0.304   1.284  -1.986  0.00  0.00    +0.210 HD
ENDBRANCH   1   9
BRANCH   5  11
ATOM     11  O   LIG    1        3.503   1.603   1.226  0.00  0.00    -0.278 OA
BRANCH  11  12
ATOM     12  P   LIG    1        4.793   0.640   1.209  0.00  0.00    +0.473 P 
ATOM     13  O   LIG    1        4.716  -0.358   2.414  0.00  0.00    -0.228 OA
BRANCH  12  14
ATOM     14  O   LIG    1        4.825  -0.166  -0.134  0.00  0.00    -0.303 OA
ATOM     15  H   LIG    1        4.020  -0.702  -0.209  0.00  0.00    +0.222 HD
ENDBRANCH  12  14
BRANCH  12  16
ATOM     16  O   LIG    1        6.093   1.506   1.330  0.00  0.00    -0.303 OA
ATOM     17  H   LIG    1        6.073   2.004   2.162  0.00  0.00    +0.222 HD
ENDBRANCH  12  16
ENDBRANCH  11  12
ENDBRANCH   5  11
BRANCH   3  18
ATOM     18  O   LIG    1        0.030  -0.356   2.498  0.00  0.00    -0.278 OA
BRANCH  18  19
ATOM     19  P   LIG    1       -0.622  -1.249   3.669  0.00  0.00    +0.473 P 
ATOM     20  O   LIG    1       -0.016  -0.822   5.050  0.00  0.00    -0.228 OA
BRANCH  19  21
ATOM     21  O   LIG    1       -2.173  -1.031   3.690  0.00  0.00    -0.303 OA
ATOM     22  H   LIG    1       -2.365  -0.094   3.852  0.00  0.00    +0.222 HD
ENDBRANCH  19  21
BRANCH  19  23
ATOM     23  O   LIG    1       -0.310  -2.762   3.408  0.00  0.00    -0.303 OA
ATOM     24  H   LIG    1        0.650  -2.897   3.395  0.00  0.00    +0.222 HD
ENDBRANCH  19  23
ENDBRANCH  18  19
ENDBRANCH   3  18
BRANCH   6  25
ATOM     25  O   LIG    1        2.091   1.155  -1.179  0.00  0.00    -0.278 OA
BRANCH  25  26
ATOM     26  P   LIG    1        2.706   2.150  -2.285  0.00  0.00    +0.473 P 
ATOM     27  O   LIG    1        1.589   3.127  -2.786  0.00  0.00    -0.228 OA
BRANCH  26  28
ATOM     28  O   LIG    1        3.877   2.975  -1.652  0.00  0.00    -0.303 OA
ATOM     29  H   LIG    1        3.541   3.492  -0.903  0.00  0.00    +0.222 HD
ENDBRANCH  26  28
BRANCH  26  30
ATOM     30  O   LIG    1        3.250   1.315  -3.494  0.00  0.00    -0.303 OA
ATOM     31  H   LIG    1        2.525   0.804  -3.886  0.00  0.00    +0.222 HD
ENDBRANCH  26  30
ENDBRANCH  25  26
ENDBRANCH   6  25
BRANCH   2  32
ATOM     32  O   LIG    1       -2.070   1.085   1.277  0.00  0.00    -0.278 OA
BRANCH  32  33
ATOM     33  P   LIG    1       -3.359   2.048   1.294  0.00  0.00    +0.473 P 
ATOM     34  O   LIG    1       -3.261   3.019   2.492  0.00  0.00    -0.228 OA
BRANCH  33  35
ATOM     35  O   LIG    1       -3.416   2.856  -0.021  0.00  0.00    -0.303 OA
ATOM     36  H   LIG    1       -2.613   3.393  -0.105  0.00  0.00    +0.222 HD
ENDBRANCH  33  35
BRANCH  33  37
ATOM     37  O   LIG    1       -4.693   1.157   1.435  0.00  0.00    -0.303 OA
ATOM     38  H   LIG    1       -5.511   1.672   1.452  0.00  0.00    +0.222 HD
ENDBRANCH  33  37
ENDBRANCH  32  33
ENDBRANCH   2  32
TORSDOF 18
