REMARK  Name = ZINC45371262
REMARK                            x       y       z     vdW  Elec       q    Type
REMARK                         _______ _______ _______ _____ _____    ______ ____
ROOT
ATOM      1  C   LIG    1        1.278  -2.684   1.423  0.00  0.00    -0.064 C 
ATOM      2  C   LIG    1        2.471  -2.067   2.156  0.00  0.00    +0.006 C 
ATOM      3  C   LIG    1        3.763  -2.427   1.415  0.00  0.00    +0.105 C 
ATOM      4  N   LIG    1        3.833  -3.888   1.271  0.00  0.00    -0.315 N 
ATOM      5  C   LIG    1        2.698  -4.593   0.661  0.00  0.00    +0.105 C 
ATOM      6  C   LIG    1        1.418  -4.208   1.410  0.00  0.00    +0.006 C 
ENDROOT
BRANCH   4   7
ATOM      7  C   LIG    1        4.948  -4.585   1.701  0.00  0.00    +0.134 A 
ATOM      8  C   LIG    1        6.024  -4.828   0.833  0.00  0.00    +0.059 A 
ATOM      9  C   LIG    1        6.322  -4.507  -0.561  0.00  0.00    +0.032 A 
ATOM     10  C   LIG    1        7.535  -5.019  -0.826  0.00  0.00    +0.085 A 
ATOM     11  N   LIG    1        8.031  -5.640   0.291  0.00  0.00    -0.346 N 
ATOM     12  H   LIG    1        8.892  -6.084   0.344  0.00  0.00    +0.167 HD
ATOM     13  C   LIG    1        7.135  -5.542   1.319  0.00  0.00    +0.143 A 
ATOM     14  N   LIG    1        7.120  -5.960   2.584  0.00  0.00    -0.218 NA
ATOM     15  C   LIG    1        6.089  -5.710   3.361  0.00  0.00    +0.225 A 
ATOM     16  N   LIG    1        5.029  -5.038   2.949  0.00  0.00    -0.220 NA
ENDBRANCH   4   7
BRANCH   1  17
ATOM     17  N   LIG    1        0.035  -2.313   2.112  0.00  0.00    +0.382 N 
ATOM     18  H   LIG    1       -0.058  -1.308   2.120  0.00  0.00    -0.089 HD
ATOM     19  H   LIG    1        0.061  -2.656   3.061  0.00  0.00    -0.089 HD
ATOM     20  H   LIG    1       -0.752  -2.719   1.629  0.00  0.00    -0.089 HD
ENDBRANCH   1  17
BRANCH   1  21
ATOM     21  C   LIG    1        1.238  -2.164  -0.015  0.00  0.00    +0.026 C 
BRANCH  21  26
ATOM     22  C   LIG    1       -1.017  -4.375  -2.083  0.00  0.00    +0.000 A 
ATOM     23  C   LIG    1       -2.223  -3.705  -1.994  0.00  0.00    +0.004 A 
ATOM     24  C   LIG    1       -2.313  -2.535  -1.265  0.00  0.00    +0.046 A 
ATOM     25  C   LIG    1       -1.191  -2.033  -0.622  0.00  0.00    +0.133 A 
ATOM     26  C   LIG    1        0.018  -2.707  -0.712  0.00  0.00    -0.007 A 
ATOM     27  C   LIG    1        0.102  -3.877  -1.443  0.00  0.00    +0.007 A 
BRANCH  25  28
ATOM     28  O   LIG    1       -1.276  -0.882   0.096  0.00  0.00    -0.405 OA
BRANCH  28  29
ATOM     29  C   LIG    1       -2.553  -0.241   0.145  0.00  0.00    +0.575 C 
ATOM     30  F   LIG    1       -2.957   0.093  -1.152  0.00  0.00    -0.133 F 
ATOM     31  F   LIG    1       -2.462   0.920   0.919  0.00  0.00    -0.133 F 
ATOM     32  F   LIG    1       -3.489  -1.110   0.715  0.00  0.00    -0.133 F 
ENDBRANCH  28  29
ENDBRANCH  25  28
ENDBRANCH  21  26
ENDBRANCH   1  21
TORSDOF 6
