REMARK  Name = ZINC15010106
REMARK                            x       y       z     vdW  Elec       q    Type
REMARK                         _______ _______ _______ _____ _____    ______ ____
ROOT
ATOM      1  C   LIG    1        1.129   2.014   0.449  0.00  0.00    +0.162 A 
ATOM      2  C   LIG    1        2.347   1.365   0.384  0.00  0.00    +0.057 A 
ATOM      3  C   LIG    1        2.396   0.011   0.034  0.00  0.00    -0.020 A 
ATOM      4  C   LIG    1        1.211  -0.679  -0.249  0.00  0.00    +0.012 A 
ATOM      5  C   LIG    1        0.001  -0.024  -0.182  0.00  0.00    +0.050 A 
ATOM      6  C   LIG    1       -0.047   1.320   0.166  0.00  0.00    +0.162 A 
ENDROOT
BRANCH   3   7
ATOM      7  C   LIG    1        3.688  -0.685  -0.037  0.00  0.00    +0.028 C 
ATOM      8  C   LIG    1        3.754  -1.943  -0.542  0.00  0.00    +0.080 C 
ATOM      9  C   LIG    1        4.892  -2.883  -0.579  0.00  0.00    +0.261 C 
ATOM     10  N   LIG    1        4.668  -4.062  -1.135  0.00  0.00    -0.224 N 
ATOM     11  C   LIG    1        3.464  -4.380  -1.653  0.00  0.00    +0.286 C 
ATOM     12  O   LIG    1        3.124  -5.415  -2.194  0.00  0.00    -0.262 OA
ATOM     13  O   LIG    1        5.979  -2.590  -0.117  0.00  0.00    -0.269 OA
ATOM     14  S   LIG    1        2.490  -2.914  -1.352  0.00  0.00    -0.026 S 
BRANCH  10  15
ATOM     15  C   LIG    1        5.756  -5.042  -1.198  0.00  0.00    +0.152 C 
BRANCH  15  16
ATOM     16  C   LIG    1        6.530  -4.852  -2.476  0.00  0.00    -0.029 A 
ATOM     17  C   LIG    1        6.162  -5.541  -3.616  0.00  0.00    +0.008 A 
ATOM     18  C   LIG    1        6.868  -5.364  -4.791  0.00  0.00    +0.038 A 
ATOM     19  C   LIG    1        7.952  -4.503  -4.822  0.00  0.00    +0.123 A 
ATOM     20  F   LIG    1        8.647  -4.333  -5.968  0.00  0.00    -0.205 F 
ATOM     21  C   LIG    1        8.324  -3.818  -3.678  0.00  0.00    +0.038 A 
ATOM     22  C   LIG    1        7.613  -3.993  -2.506  0.00  0.00    +0.008 A 
ENDBRANCH  15  16
ENDBRANCH  10  15
ENDBRANCH   3   7
BRANCH   1  24
ATOM     23  C   LIG    1        2.320   3.978   1.066  0.00  0.00    +0.277 C 
ATOM     24  O   LIG    1        1.077   3.329   0.789  0.00  0.00    -0.491 OA
ENDBRANCH   1  24
BRANCH   6  25
ATOM     25  O   LIG    1       -1.243   1.962   0.225  0.00  0.00    -0.484 OA
BRANCH  25  26
ATOM     26  C   LIG    1       -2.407   1.193  -0.083  0.00  0.00    +0.264 C 
BRANCH  26  27
ATOM     27  C   LIG    1       -3.630   2.066   0.034  0.00  0.00    -0.010 A 
ATOM     28  C   LIG    1       -4.298   2.157   1.242  0.00  0.00    +0.008 A 
ATOM     29  C   LIG    1       -5.416   2.958   1.358  0.00  0.00    +0.015 A 
ATOM     30  C   LIG    1       -5.878   3.669   0.249  0.00  0.00    +0.059 A 
ATOM     31  C   LIG    1       -5.203   3.568  -0.969  0.00  0.00    +0.015 A 
ATOM     32  C   LIG    1       -4.084   2.768  -1.069  0.00  0.00    +0.008 A 
BRANCH  30  33
ATOM     33  C   LIG    1       -7.077   4.524   0.363  0.00  0.00    +0.337 C 
ATOM     34  O   LIG    1       -7.478   5.142  -0.603  0.00  0.00    -0.245 OA
BRANCH  33  35
ATOM     35  O   LIG    1       -7.727   4.619   1.540  0.00  0.00    -0.477 OA
ATOM     36  H   LIG    1       -7.418   4.143   2.285  0.00  0.00    +0.295 HD
ENDBRANCH  33  35
ENDBRANCH  30  33
ENDBRANCH  26  27
ENDBRANCH  25  26
ENDBRANCH   6  25
TORSDOF 9
