REMARK  Name = ZINC52986902
REMARK                            x       y       z     vdW  Elec       q    Type
REMARK                         _______ _______ _______ _____ _____    ______ ____
ROOT
ATOM      1  C   LIG    1       -1.346   2.355   0.788  0.00  0.00    +0.105 C 
ATOM      2  N   LIG    1       -1.522   0.959   0.365  0.00  0.00    -0.298 NA
ATOM      3  C   LIG    1       -2.744   0.382   0.946  0.00  0.00    +0.085 C 
ATOM      4  C   LIG    1       -2.981  -1.009   0.358  0.00  0.00    +0.027 C 
ATOM      5  C   LIG    1       -1.770  -1.903   0.586  0.00  0.00    +0.006 C 
ATOM      6  C   LIG    1       -0.495  -1.231   0.076  0.00  0.00    +0.035 C 
ATOM      7  C   LIG    1       -1.614  -2.275   2.054  0.00  0.00    +0.091 C 
ATOM      8  C   LIG    1       -1.022  -1.144   2.842  0.00  0.00    +0.162 C 
ATOM      9  O   LIG    1       -1.085  -1.188   4.054  0.00  0.00    -0.292 OA
ATOM     10  C   LIG    1       -0.400  -0.042   2.247  0.00  0.00    +0.013 C 
ATOM     11  C   LIG    1        0.181   0.891   3.038  0.00  0.00    +0.016 C 
ATOM     12  C   LIG    1       -0.357   0.139   0.750  0.00  0.00    +0.091 C 
ENDROOT
BRANCH  11  13
ATOM     13  C   LIG    1        0.991   1.962   2.439  0.00  0.00    -0.023 A 
ATOM     14  C   LIG    1        0.752   3.299   2.778  0.00  0.00    +0.009 A 
ATOM     15  C   LIG    1        1.515   4.297   2.213  0.00  0.00    +0.022 A 
ATOM     16  C   LIG    1        2.518   3.981   1.311  0.00  0.00    +0.059 A 
ATOM     17 CL   LIG    1        3.474   5.245   0.604  0.00  0.00    -0.082 Cl
ATOM     18  C   LIG    1        2.762   2.659   0.969  0.00  0.00    +0.060 A 
ATOM     19 CL   LIG    1        4.021   2.274  -0.162  0.00  0.00    -0.082 Cl
ATOM     20  C   LIG    1        2.009   1.649   1.531  0.00  0.00    +0.029 A 
ENDBRANCH  11  13
BRANCH   5  21
ATOM     21  C   LIG    1       -1.966  -3.172  -0.203  0.00  0.00    -0.037 A 
ATOM     22  C   LIG    1       -1.051  -3.527  -1.178  0.00  0.00    +0.004 A 
ATOM     23  C   LIG    1       -1.228  -4.690  -1.904  0.00  0.00    +0.004 A 
ATOM     24  C   LIG    1       -2.319  -5.501  -1.657  0.00  0.00    +0.045 A 
ATOM     25  C   LIG    1       -3.238  -5.147  -0.680  0.00  0.00    +0.117 A 
ATOM     26  C   LIG    1       -3.055  -3.982   0.051  0.00  0.00    +0.049 A 
BRANCH  25  27
ATOM     27  O   LIG    1       -4.312  -5.942  -0.436  0.00  0.00    -0.507 OA
ATOM     28  H   LIG    1       -4.155  -6.620   0.237  0.00  0.00    +0.292 HD
ENDBRANCH  25  27
ENDBRANCH   5  21
TORSDOF 3
