REMARK  Name = ZINC45496532
REMARK                            x       y       z     vdW  Elec       q    Type
REMARK                         _______ _______ _______ _____ _____    ______ ____
ROOT
ATOM      1  C   LIG    1       -0.003  -6.634  -1.315  0.00  0.00    +0.060 A 
ATOM      2  C   LIG    1       -1.081  -6.397  -2.172  0.00  0.00    +0.047 A 
ATOM      3  C   LIG    1       -1.175  -7.084  -3.363  0.00  0.00    +0.122 A 
ATOM      4  C   LIG    1       -0.206  -8.010  -3.716  0.00  0.00    +0.034 A 
ATOM      5  C   LIG    1        0.864  -8.255  -2.880  0.00  0.00    +0.026 A 
ATOM      6  C   LIG    1        0.980  -7.567  -1.678  0.00  0.00    +0.042 A 
ENDROOT
BRANCH   1  11
ATOM      7  N   LIG    1        1.189  -2.064  -0.011  0.00  0.00    -0.326 N 
ATOM      8  C   LIG    1        1.211  -2.821   1.248  0.00  0.00    +0.124 C 
ATOM      9  C   LIG    1        0.045  -3.817   1.242  0.00  0.00    +0.127 C 
ATOM     10  N   LIG    1        0.065  -4.556  -0.029  0.00  0.00    -0.294 N 
ATOM     11  C   LIG    1        0.104  -5.903  -0.039  0.00  0.00    +0.249 C 
ATOM     12  O   LIG    1        0.227  -6.515   1.004  0.00  0.00    -0.270 OA
ATOM     13  C   LIG    1        0.043  -3.799  -1.288  0.00  0.00    +0.127 C 
ATOM     14  C   LIG    1        1.204  -2.803  -1.282  0.00  0.00    +0.124 C 
BRANCH   7  20
ATOM     15  C   LIG    1       -0.109   1.375   0.018  0.00  0.00    +0.002 A 
ATOM     16  C   LIG    1        1.069   2.099   0.018  0.00  0.00    +0.002 A 
ATOM     17  C   LIG    1        2.287   1.445   0.008  0.00  0.00    +0.022 A 
ATOM     18  C   LIG    1        2.331   0.064  -0.002  0.00  0.00    +0.062 A 
ATOM     19 CL   LIG    1        3.860  -0.757  -0.016  0.00  0.00    -0.082 Cl
ATOM     20  C   LIG    1        1.149  -0.667  -0.001  0.00  0.00    +0.048 A 
ATOM     21  C   LIG    1       -0.073  -0.006   0.009  0.00  0.00    +0.024 A 
ENDBRANCH   7  20
ENDBRANCH   1  11
BRANCH   6  22
ATOM     22  N   LIG    1        2.059  -7.808  -0.838  0.00  0.00    -0.325 N 
ATOM     23  C   LIG    1        1.997  -8.855   0.194  0.00  0.00    +0.133 C 
ATOM     24  C   LIG    1        3.243  -9.738   0.062  0.00  0.00    +0.178 C 
ATOM     25  O   LIG    1        4.409  -8.910   0.066  0.00  0.00    -0.377 OA
ATOM     26  C   LIG    1        4.481  -7.995  -1.030  0.00  0.00    +0.178 C 
ATOM     27  C   LIG    1        3.300  -7.027  -0.957  0.00  0.00    +0.133 C 
ENDBRANCH   6  22
BRANCH   3  28
ATOM     28  N   LIG    1       -2.318  -6.832  -4.269  0.00  0.00    +0.006 N 
ATOM     29  O   LIG    1       -3.165  -6.026  -3.964  0.00  0.00    -0.130 OA
BRANCH  28  30
ATOM     30  O   LIG    1       -2.403  -7.433  -5.315  0.00  0.00    -0.396 OA
ATOM     31  H   LIG    1       -1.747  -8.058  -5.552  0.00  0.00    +0.329 HD
ENDBRANCH  28  30
ENDBRANCH   3  28
TORSDOF 5
