REMARK  Name = ZINC19368911
REMARK                            x       y       z     vdW  Elec       q    Type
REMARK                         _______ _______ _______ _____ _____    ______ ____
ROOT
ATOM      1  C   LIG    1        1.257  -4.037  -0.071  0.00  0.00    +0.092 C 
ATOM      2  C   LIG    1        2.251  -4.492   0.948  0.00  0.00    +0.060 C 
ATOM      3  C   LIG    1        2.611  -5.934   0.800  0.00  0.00    -0.032 A 
ATOM      4  C   LIG    1        3.822  -6.276   0.209  0.00  0.00    +0.005 A 
ATOM      5  C   LIG    1        4.147  -7.608   0.038  0.00  0.00    +0.000 A 
ATOM      6  C   LIG    1        3.275  -8.602   0.444  0.00  0.00    +0.001 A 
ATOM      7  C   LIG    1        2.076  -8.262   1.044  0.00  0.00    +0.015 A 
ATOM      8  C   LIG    1        1.770  -6.918   1.229  0.00  0.00    +0.016 A 
ATOM      9  S   LIG    1        0.300  -6.447   2.070  0.00  0.00    -0.089 S 
ATOM     10  C   LIG    1       -0.643  -5.508   0.925  0.00  0.00    +0.018 A 
ATOM     11  C   LIG    1       -2.014  -5.821   0.884  0.00  0.00    +0.017 A 
ATOM     12  C   LIG    1       -2.885  -5.156   0.060  0.00  0.00    +0.021 A 
ATOM     13  C   LIG    1       -2.400  -4.145  -0.753  0.00  0.00    +0.041 A 
ATOM     14 CL   LIG    1       -3.475  -3.267  -1.795  0.00  0.00    -0.084 Cl
ATOM     15  C   LIG    1       -1.060  -3.842  -0.726  0.00  0.00    +0.026 A 
ATOM     16  C   LIG    1       -0.155  -4.522   0.102  0.00  0.00    -0.015 A 
ENDROOT
BRANCH   1  21
ATOM     17  C   LIG    1        2.099   1.490   0.736  0.00  0.00    +0.105 C 
ATOM     18  N   LIG    1        2.119   0.021   0.728  0.00  0.00    -0.303 NA
ATOM     19  C   LIG    1        0.851  -0.526   1.230  0.00  0.00    +0.099 C 
ATOM     20  C   LIG    1        0.941  -2.053   1.281  0.00  0.00    +0.100 C 
ATOM     21  N   LIG    1        1.237  -2.568  -0.063  0.00  0.00    -0.293 NA
ATOM     22  C   LIG    1        2.505  -2.022  -0.566  0.00  0.00    +0.100 C 
ATOM     23  C   LIG    1        2.415  -0.495  -0.617  0.00  0.00    +0.099 C 
ENDBRANCH   1  21
TORSDOF 1
