REMARK  Name = ZINC16981849
REMARK                            x       y       z     vdW  Elec       q    Type
REMARK                         _______ _______ _______ _____ _____    ______ ____
ROOT
ATOM      1  C   LIG    1       -0.699   1.436   1.044  0.00  0.00    +0.090 C 
ATOM      2  C   LIG    1       -0.400   0.041   0.492  0.00  0.00    +0.193 C 
ATOM      3  C   LIG    1       -0.213   0.107  -1.025  0.00  0.00    +0.090 C 
ATOM      4  N   LIG    1       -1.501  -0.881   0.827  0.00  0.00    -0.207 N 
ATOM      5  H   LIG    1       -2.368  -0.546   1.103  0.00  0.00    +0.248 HD
ATOM      6  C   LIG    1       -1.259  -2.228   0.734  0.00  0.00    +0.338 C 
ATOM      7  N   LIG    1       -0.032  -2.693   0.842  0.00  0.00    -0.193 N 
ATOM      8  H   LIG    1        0.118  -3.650   0.783  0.00  0.00    +0.270 HD
ATOM      9  C   LIG    1        1.021  -1.874   1.032  0.00  0.00    +0.389 C 
ATOM     10  N   LIG    1        2.231  -2.367   1.125  0.00  0.00    -0.131 NA
ATOM     11  H   LIG    1        2.372  -3.324   1.058  0.00  0.00    +0.306 HD
ATOM     12  N   LIG    1        0.815  -0.504   1.127  0.00  0.00    -0.157 N 
ENDROOT
BRANCH  12  13
ATOM     13  C   LIG    1        1.721   0.324   1.796  0.00  0.00    +0.098 A 
ATOM     14  C   LIG    1        2.705   0.998   1.084  0.00  0.00    +0.040 A 
ATOM     15  C   LIG    1        3.599   1.815   1.748  0.00  0.00    +0.003 A 
ATOM     16  C   LIG    1        3.515   1.963   3.120  0.00  0.00    +0.000 A 
ATOM     17  C   LIG    1        2.536   1.294   3.832  0.00  0.00    +0.003 A 
ATOM     18  C   LIG    1        1.636   0.479   3.174  0.00  0.00    +0.040 A 
ENDBRANCH  12  13
BRANCH   6  19
ATOM     19  N   LIG    1       -2.298  -3.093   0.529  0.00  0.00    -0.254 N 
ATOM     20  H   LIG    1       -2.130  -4.046   0.463  0.00  0.00    +0.241 HD
ATOM     21  H   LIG    1       -3.203  -2.753   0.449  0.00  0.00    +0.241 HD
ENDBRANCH   6  19
TORSDOF 2
