REMARK  Name = ZINC19862646
REMARK                            x       y       z     vdW  Elec       q    Type
REMARK                         _______ _______ _______ _____ _____    ______ ____
ROOT
ATOM      1  C   LIG    1        3.381  -3.265  -0.715  0.00  0.00    +0.012 C 
ATOM      2  C   LIG    1        3.054  -4.278   0.352  0.00  0.00    +0.035 C 
ATOM      3  C   LIG    1        3.156  -5.632   0.096  0.00  0.00    +0.090 C 
ATOM      4  N   LIG    1        2.862  -6.497   1.055  0.00  0.00    -0.286 NA
ATOM      5  H   LIG    1        2.932  -7.449   0.879  0.00  0.00    +0.125 HD
ATOM      6  C   LIG    1        2.473  -6.082   2.252  0.00  0.00    +0.213 C 
ATOM      7  N   LIG    1        2.363  -4.793   2.538  0.00  0.00    -0.268 NA
ATOM      8  H   LIG    1        2.979  -4.617   3.332  0.00  0.00    +0.127 HD
ATOM      9  C   LIG    1        2.647  -3.870   1.624  0.00  0.00    +0.145 C 
ENDROOT
BRANCH   6  10
ATOM     10  N   LIG    1        2.174  -7.018   3.227  0.00  0.00    -0.317 N 
ATOM     11  H   LIG    1        1.801  -6.732   4.076  0.00  0.00    +0.149 HD
BRANCH  10  12
ATOM     12  C   LIG    1        2.412  -8.377   2.990  0.00  0.00    +0.029 A 
ATOM     13  C   LIG    1        3.578  -8.777   2.351  0.00  0.00    +0.026 A 
ATOM     14  C   LIG    1        3.812 -10.118   2.117  0.00  0.00    +0.047 A 
ATOM     15  C   LIG    1        2.882 -11.065   2.520  0.00  0.00    +0.121 A 
ATOM     16  C   LIG    1        1.716 -10.666   3.157  0.00  0.00    +0.047 A 
ATOM     17  C   LIG    1        1.484  -9.326   3.397  0.00  0.00    +0.026 A 
BRANCH  15  18
ATOM     18  O   LIG    1        3.112 -12.385   2.289  0.00  0.00    -0.494 OA
BRANCH  18  19
ATOM     19  C   LIG    1        2.112 -13.306   2.730  0.00  0.00    +0.210 C 
BRANCH  19  20
ATOM     20  C   LIG    1        2.544 -14.732   2.386  0.00  0.00    -0.037 C 
BRANCH  20  21
ATOM     21  N   LIG    1        3.752 -15.076   3.148  0.00  0.00    +0.382 N 
ATOM     22  H   LIG    1        4.465 -14.376   3.005  0.00  0.00    -0.082 HD
ATOM     23  C   LIG    1        3.429 -15.191   4.593  0.00  0.00    -0.079 C 
ATOM     24  C   LIG    1        4.580 -16.070   5.144  0.00  0.00    -0.020 C 
ATOM     25  C   LIG    1        4.819 -17.083   4.001  0.00  0.00    -0.020 C 
ATOM     26  C   LIG    1        4.253 -16.406   2.739  0.00  0.00    -0.079 C 
ENDBRANCH  20  21
ENDBRANCH  19  20
ENDBRANCH  18  19
ENDBRANCH  15  18
ENDBRANCH  10  12
ENDBRANCH   6  10
BRANCH   9  27
ATOM     27  N   LIG    1        2.537  -2.522   1.928  0.00  0.00    -0.328 N 
ATOM     28  H   LIG    1        2.824  -1.855   1.285  0.00  0.00    +0.148 HD
BRANCH  27  29
ATOM     29  C   LIG    1        2.012  -2.124   3.161  0.00  0.00    +0.030 A 
ATOM     30  C   LIG    1        0.976  -2.845   3.742  0.00  0.00    +0.023 A 
ATOM     31  C   LIG    1        0.460  -2.450   4.960  0.00  0.00    +0.004 A 
ATOM     32  C   LIG    1        0.973  -1.338   5.602  0.00  0.00    +0.028 A 
ATOM     33  C   LIG    1        2.004  -0.618   5.027  0.00  0.00    +0.107 A 
ATOM     34  C   LIG    1        2.528  -1.011   3.811  0.00  0.00    +0.051 A 
BRANCH  33  35
ATOM     35  S   LIG    1        2.653   0.799   5.848  0.00  0.00    +0.059 S 
ATOM     36  O   LIG    1        1.823   1.030   6.978  0.00  0.00    -0.153 OA
ATOM     37  O   LIG    1        2.870   1.785   4.848  0.00  0.00    -0.153 OA
BRANCH  35  38
ATOM     38  N   LIG    1        4.145   0.385   6.435  0.00  0.00    -0.185 NA
ATOM     39  H   LIG    1        4.935   0.857   6.129  0.00  0.00    +0.149 HD
BRANCH  38  40
ATOM     40  C   LIG    1        4.272  -0.697   7.415  0.00  0.00    +0.032 C 
ATOM     41  C   LIG    1        3.473  -0.342   8.671  0.00  0.00    +0.029 C 
ATOM     42  C   LIG    1        5.746  -0.881   7.783  0.00  0.00    +0.029 C 
ATOM     43  C   LIG    1        3.730  -1.995   6.815  0.00  0.00    +0.029 C 
ENDBRANCH  38  40
ENDBRANCH  35  38
ENDBRANCH  33  35
ENDBRANCH  27  29
ENDBRANCH   9  27
TORSDOF 11
