REMARK  Name = ZINC35018256
REMARK                            x       y       z     vdW  Elec       q    Type
REMARK                         _______ _______ _______ _____ _____    ______ ____
ROOT
ATOM      1  C   LIG    1        0.718  -0.497  -1.257  0.00  0.00    +0.188 C 
ATOM      2  C   LIG    1        0.755  -2.006  -1.259  0.00  0.00    +0.008 C 
ATOM      3  C   LIG    1       -0.415  -2.705  -1.593  0.00  0.00    +0.031 C 
ATOM      4  C   LIG    1       -0.411  -4.063  -1.591  0.00  0.00    +0.046 C 
ATOM      5  N   LIG    1        0.687  -4.718  -1.005  0.00  0.00    -0.337 NA
ATOM      6  H   LIG    1        0.406  -4.977  -0.071  0.00  0.00    +0.135 HD
ATOM      7  C   LIG    1        0.824  -5.984  -1.741  0.00  0.00    +0.130 C 
ATOM      8  C   LIG    1       -0.605  -6.316  -2.132  0.00  0.00    -0.004 A 
ATOM      9  C   LIG    1       -1.204  -7.470  -2.512  0.00  0.00    +0.017 A 
ATOM     10  C   LIG    1       -2.581  -7.433  -2.819  0.00  0.00    +0.009 A 
ATOM     11  C   LIG    1       -3.279  -8.573  -3.216  0.00  0.00    +0.022 C 
ATOM     12  C   LIG    1       -4.636  -8.472  -3.507  0.00  0.00    +0.184 C 
ATOM     13  O   LIG    1       -5.311  -9.561  -3.887  0.00  0.00    -0.288 OA
ATOM     14  C   LIG    1       -5.310  -7.238  -3.406  0.00  0.00    +0.053 C 
ATOM     15  C   LIG    1       -4.668  -6.109  -3.025  0.00  0.00    +0.032 C 
ATOM     16  C   LIG    1       -3.291  -6.153  -2.715  0.00  0.00    +0.072 A 
ATOM     17  N   LIG    1       -2.632  -5.066  -2.333  0.00  0.00    -0.245 NA
ATOM     18  C   LIG    1        1.904  -4.066  -0.890  0.00  0.00    +0.175 C 
ATOM     19  C   LIG    1       -1.337  -5.107  -2.039  0.00  0.00    +0.089 A 
ATOM     20  C   LIG    1        1.929  -2.696  -0.983  0.00  0.00    +0.052 C 
ATOM     21  C   LIG    1        3.244  -1.989  -0.790  0.00  0.00    +0.273 C 
ATOM     22  O   LIG    1        3.034  -0.610  -0.483  0.00  0.00    -0.457 OA
ATOM     23  C   LIG    1        2.137   0.024  -1.270  0.00  0.00    +0.344 C 
ATOM     24  O   LIG    1        2.455   0.968  -1.955  0.00  0.00    -0.247 OA
ENDROOT
BRANCH   1  26
ATOM     25  C   LIG    1       -0.019   1.526   0.010  0.00  0.00    +0.007 C 
ATOM     26  C   LIG    1        0.002  -0.004   0.002  0.00  0.00    +0.048 C 
ENDBRANCH   1  26
BRANCH   1  27
ATOM     27  O   LIG    1        0.025  -0.031  -2.416  0.00  0.00    -0.373 OA
ATOM     28  H   LIG    1        0.003   0.939  -2.411  0.00  0.00    +0.211 HD
ENDBRANCH   1  27
BRANCH  18  29
ATOM     29  O   LIG    1        3.037  -4.760  -0.692  0.00  0.00    -0.496 OA
ATOM     30  H   LIG    1        3.009  -5.695  -0.630  0.00  0.00    +0.293 HD
ENDBRANCH  18  29
BRANCH  11  31
ATOM     31  C   LIG    1       -2.572  -9.899  -3.328  0.00  0.00    +0.123 C 
BRANCH  31  32
ATOM     32  N   LIG    1       -2.038 -10.056  -4.687  0.00  0.00    -0.304 NA
ATOM     33  C   LIG    1       -1.552 -11.425  -4.907  0.00  0.00    +0.104 C 
ATOM     34  C   LIG    1       -0.980  -9.072  -4.954  0.00  0.00    +0.104 C 
ENDBRANCH  31  32
ENDBRANCH  11  31
TORSDOF 5
