REMARK  Name = ZINC23304566
REMARK                            x       y       z     vdW  Elec       q    Type
REMARK                         _______ _______ _______ _____ _____    ______ ____
ROOT
ATOM      1  C   LIG    1       -3.962   5.291   8.755  0.00  0.00    +0.066 C 
ATOM      2  C   LIG    1       -2.964   5.017   7.659  0.00  0.00    +0.056 A 
ATOM      3  C   LIG    1       -1.674   5.501   7.748  0.00  0.00    +0.076 A 
ATOM      4  C   LIG    1       -0.765   5.224   6.699  0.00  0.00    +0.128 A 
ATOM      5  N   LIG    1       -1.152   4.520   5.665  0.00  0.00    -0.235 NA
ATOM      6  C   LIG    1       -2.402   4.050   5.575  0.00  0.00    +0.163 A 
ATOM      7  C   LIG    1       -3.052   3.288   4.598  0.00  0.00    +0.046 A 
ATOM      8  C   LIG    1       -4.369   3.093   5.033  0.00  0.00    +0.145 A 
ATOM      9  N   LIG    1       -4.523   3.679   6.194  0.00  0.00    -0.173 NA
ATOM     10  N   LIG    1       -3.320   4.290   6.565  0.00  0.00    -0.218 N 
ENDROOT
BRANCH   7  11
ATOM     11  C   LIG    1       -2.460   2.786   3.337  0.00  0.00    -0.013 A 
ATOM     12  C   LIG    1       -2.595   1.443   2.985  0.00  0.00    +0.009 A 
ATOM     13  C   LIG    1       -2.041   0.982   1.808  0.00  0.00    +0.004 A 
ATOM     14  C   LIG    1       -1.354   1.849   0.978  0.00  0.00    -0.045 A 
ATOM     15  C   LIG    1       -1.212   3.181   1.324  0.00  0.00    +0.004 A 
ATOM     16  C   LIG    1       -1.765   3.655   2.495  0.00  0.00    +0.009 A 
BRANCH  14  17
ATOM     17  C   LIG    1       -0.752   1.339  -0.306  0.00  0.00    +0.013 C 
ATOM     18  C   LIG    1       -1.362   2.092  -1.490  0.00  0.00    +0.012 C 
ATOM     19  C   LIG    1        0.761   1.563  -0.285  0.00  0.00    +0.012 C 
ENDBRANCH  14  17
ENDBRANCH   7  11
BRANCH   3  20
ATOM     20  C   LIG    1       -1.249   6.294   8.918  0.00  0.00    +0.248 C 
ATOM     21  N   LIG    1       -0.029   6.866   8.938  0.00  0.00    -0.306 N 
ATOM     22  H   LIG    1        0.650   6.742   8.082  0.00  0.00    +0.149 HD
ATOM     23  O   LIG    1       -2.000   6.431   9.864  0.00  0.00    -0.270 OA
BRANCH  21  24
ATOM     24  C   LIG    1        0.392   7.653  10.099  0.00  0.00    +0.096 C 
ATOM     25  C   LIG    1        0.974   6.721  11.164  0.00  0.00    +0.030 C 
BRANCH  24  26
ATOM     26  C   LIG    1        1.457   8.665   9.671  0.00  0.00    +0.181 C 
BRANCH  26  27
ATOM     27  O   LIG    1        2.629   7.970   9.240  0.00  0.00    -0.381 OA
ATOM     28  C   LIG    1        3.691   8.827   8.816  0.00  0.00    +0.194 C 
ENDBRANCH  26  27
ENDBRANCH  24  26
ENDBRANCH  21  24
ENDBRANCH   3  20
TORSDOF 6
