REMARK  Name = ZINC14195406
REMARK                            x       y       z     vdW  Elec       q    Type
REMARK                         _______ _______ _______ _____ _____    ______ ____
ROOT
ATOM      1  N   LIG    1        2.421   7.088  -1.365  0.00  0.00    -0.294 NA
ATOM      2  C   LIG    1        3.289   6.213  -2.166  0.00  0.00    +0.103 C 
ATOM      3  C   LIG    1        3.321   6.716  -3.611  0.00  0.00    +0.120 C 
ATOM      4  N   LIG    1        3.810   8.102  -3.634  0.00  0.00    -0.327 N 
ATOM      5  C   LIG    1        2.943   8.977  -2.833  0.00  0.00    +0.120 C 
ATOM      6  C   LIG    1        2.911   8.474  -1.388  0.00  0.00    +0.103 C 
ENDROOT
BRANCH   4   7
ATOM      7  C   LIG    1        3.921   8.572  -4.945  0.00  0.00    +0.031 A 
ATOM      8  C   LIG    1        3.249   9.725  -5.330  0.00  0.00    +0.024 A 
ATOM      9  C   LIG    1        3.365  10.191  -6.625  0.00  0.00    +0.023 A 
ATOM     10  C   LIG    1        4.141   9.505  -7.542  0.00  0.00    +0.059 A 
ATOM     11 CL   LIG    1        4.280  10.091  -9.171  0.00  0.00    -0.082 Cl
ATOM     12  C   LIG    1        4.808   8.352  -7.163  0.00  0.00    +0.061 A 
ATOM     13 CL   LIG    1        5.781   7.493  -8.317  0.00  0.00    -0.082 Cl
ATOM     14  C   LIG    1        4.700   7.884  -5.867  0.00  0.00    +0.044 A 
ENDBRANCH   4   7
BRANCH   1  15
ATOM     15  C   LIG    1        2.304   6.594   0.014  0.00  0.00    +0.139 C 
BRANCH  15  21
ATOM     16  C   LIG    1       -1.240   1.758   0.018  0.00  0.00    +0.005 A 
ATOM     17  C   LIG    1       -0.013   1.076   0.008  0.00  0.00    +0.018 A 
ATOM     18  C   LIG    1        1.149   1.763   0.001  0.00  0.00    +0.092 A 
ATOM     19  N   LIG    1        1.148   3.128   0.007  0.00  0.00    -0.308 N 
ATOM     20  C   LIG    1        2.156   4.054   0.002  0.00  0.00    +0.115 A 
ATOM     21  C   LIG    1        1.576   5.274   0.014  0.00  0.00    +0.048 A 
ATOM     22  N   LIG    1        0.250   5.117   0.026  0.00  0.00    -0.342 N 
ATOM     23  H   LIG    1       -0.408   5.998   0.037  0.00  0.00    +0.167 HD
ATOM     24  C   LIG    1       -0.034   3.822   0.022  0.00  0.00    +0.115 A 
ATOM     25  C   LIG    1       -1.255   3.119   0.031  0.00  0.00    +0.045 A 
ENDBRANCH  15  21
ENDBRANCH   1  15
TORSDOF 3
