REMARK  Name = ZINC26894070
REMARK                            x       y       z     vdW  Elec       q    Type
REMARK                         _______ _______ _______ _____ _____    ______ ____
ROOT
ATOM      1  C   LIG    1       -0.017   1.380   0.010  0.00  0.00    +0.008 A 
ATOM      2  C   LIG    1        0.002  -0.004   0.002  0.00  0.00    +0.048 A 
ATOM      3  C   LIG    1        1.191  -0.702  -0.013  0.00  0.00    +0.143 A 
ATOM      4  C   LIG    1        2.426  -0.023  -0.021  0.00  0.00    +0.124 A 
ATOM      5  C   LIG    1        2.369   1.376  -0.013  0.00  0.00    +0.049 A 
ATOM      6  S   LIG    1        4.081   1.851  -0.027  0.00  0.00    -0.029 S 
ATOM      7  C   LIG    1        4.790   0.213  -0.042  0.00  0.00    +0.255 A 
ATOM      8  N   LIG    1        3.697  -0.577  -0.036  0.00  0.00    -0.202 NA
ATOM      9  C   LIG    1        1.182   2.071   0.002  0.00  0.00    -0.033 A 
ENDROOT
BRANCH   3  10
ATOM     10  O   LIG    1        1.171  -2.062  -0.021  0.00  0.00    -0.505 OA
ATOM     11  H   LIG    1        2.116  -2.625  -0.033  0.00  0.00    +0.292 HD
ENDBRANCH   3  10
BRANCH   7  12
ATOM     12  O   LIG    1        5.963  -0.110  -0.056  0.00  0.00    -0.487 OA
ATOM     13  H   LIG    1        6.630   0.548  -0.058  0.00  0.00    +0.294 HD
ENDBRANCH   7  12
BRANCH   9  14
ATOM     14  C   LIG    1        1.188   3.578   0.009  0.00  0.00    +0.017 C 
BRANCH  14  15
ATOM     15  C   LIG    1        1.302   4.095  -1.426  0.00  0.00    -0.082 C 
BRANCH  15  16
ATOM     16  N   LIG    1        1.307   5.564  -1.419  0.00  0.00    +0.378 N 
ATOM     17  H   LIG    1        0.373   5.931  -0.970  0.00  0.00    -0.090 HD
ATOM     18  H   LIG    1        2.163   5.924  -0.830  0.00  0.00    -0.090 HD
ATOM     19  H   LIG    1        1.389   5.935  -2.451  0.00  0.00    -0.090 HD
ENDBRANCH  15  16
ENDBRANCH  14  15
ENDBRANCH   9  14
TORSDOF 5
