REMARK  Name = ZINC27086305
REMARK                            x       y       z     vdW  Elec       q    Type
REMARK                         _______ _______ _______ _____ _____    ______ ____
ROOT
ATOM      1  N   LIG    1        0.371  -8.334  -0.413  0.00  0.00    -0.281 N 
ATOM      2  H   LIG    1        1.225  -8.790  -0.350  0.00  0.00    +0.155 HD
ATOM      3  C   LIG    1       -0.758  -9.043  -0.609  0.00  0.00    +0.250 C 
ATOM      4  O   LIG    1       -1.837  -8.480  -0.607  0.00  0.00    -0.270 OA
ENDROOT
BRANCH   1   8
ATOM      5  C   LIG    1        0.196  -4.181  -0.077  0.00  0.00    +0.147 A 
ATOM      6  C   LIG    1        1.282  -4.782  -0.698  0.00  0.00    +0.049 A 
ATOM      7  C   LIG    1        1.340  -6.157  -0.809  0.00  0.00    +0.027 A 
ATOM      8  C   LIG    1        0.312  -6.940  -0.299  0.00  0.00    +0.035 A 
ATOM      9  C   LIG    1       -0.775  -6.339   0.322  0.00  0.00    +0.047 A 
ATOM     10  C   LIG    1       -0.830  -4.963   0.438  0.00  0.00    +0.085 A 
ATOM     11 CL   LIG    1       -2.185  -4.211   1.221  0.00  0.00    -0.080 Cl
BRANCH   5  12
ATOM     12  O   LIG    1        0.139  -2.827   0.032  0.00  0.00    -0.454 OA
BRANCH  12  18
ATOM     13  C   LIG    1       -0.053  -2.042  -4.074  0.00  0.00    +0.001 A 
ATOM     14  C   LIG    1        0.954  -1.290  -4.676  0.00  0.00    +0.001 A 
ATOM     15  C   LIG    1        1.999  -0.808  -3.950  0.00  0.00    +0.010 A 
ATOM     16  C   LIG    1        2.067  -1.070  -2.570  0.00  0.00    +0.004 A 
ATOM     17  C   LIG    1        1.043  -1.834  -1.958  0.00  0.00    +0.026 A 
ATOM     18  C   LIG    1        1.110  -2.098  -0.575  0.00  0.00    +0.136 A 
ATOM     19  C   LIG    1        2.169  -1.608   0.157  0.00  0.00    +0.048 A 
ATOM     20  C   LIG    1        3.171  -0.859  -0.454  0.00  0.00    +0.024 A 
ATOM     21  C   LIG    1        3.131  -0.588  -1.788  0.00  0.00    +0.049 A 
ATOM     22 CL   LIG    1        4.394   0.350  -2.523  0.00  0.00    -0.083 Cl
ATOM     23  C   LIG    1       -0.020  -2.315  -2.740  0.00  0.00    +0.012 A 
ENDBRANCH  12  18
ENDBRANCH   5  12
ENDBRANCH   1   8
BRANCH   3  24
ATOM     24  C   LIG    1       -0.687 -10.499  -0.826  0.00  0.00    +0.061 A 
ATOM     25  C   LIG    1        0.550 -11.150  -0.824  0.00  0.00    +0.035 A 
ATOM     26  C   LIG    1        0.610 -12.512  -1.028  0.00  0.00    +0.042 A 
ATOM     27 CL   LIG    1        2.147 -13.319  -1.025  0.00  0.00    -0.084 Cl
ATOM     28  C   LIG    1       -0.551 -13.241  -1.236  0.00  0.00    +0.022 A 
ATOM     29  C   LIG    1       -1.779 -12.612  -1.241  0.00  0.00    +0.026 A 
ATOM     30  C   LIG    1       -1.860 -11.241  -1.031  0.00  0.00    +0.060 A 
BRANCH  30  31
ATOM     31  N   LIG    1       -3.096 -10.606  -1.030  0.00  0.00    -0.216 N 
ATOM     32  H   LIG    1       -3.151  -9.634  -0.885  0.00  0.00    +0.174 HD
BRANCH  31  33
ATOM     33  S   LIG    1       -4.479 -11.486  -1.272  0.00  0.00    +0.072 S 
ATOM     34  O   LIG    1       -4.612 -12.349  -0.151  0.00  0.00    -0.150 OA
ATOM     35  O   LIG    1       -4.422 -11.973  -2.606  0.00  0.00    -0.150 OA
BRANCH  33  36
ATOM     36  C   LIG    1       -5.832 -10.359  -1.204  0.00  0.00    +0.109 A 
ATOM     37  C   LIG    1       -6.450 -10.094   0.003  0.00  0.00    +0.030 A 
ATOM     38  C   LIG    1       -7.511  -9.210   0.057  0.00  0.00    +0.022 A 
ATOM     39  C   LIG    1       -7.955  -8.591  -1.098  0.00  0.00    +0.041 A 
ATOM     40 CL   LIG    1       -9.288  -7.481  -1.032  0.00  0.00    -0.084 Cl
ATOM     41  C   LIG    1       -7.335  -8.857  -2.307  0.00  0.00    +0.022 A 
ATOM     42  C   LIG    1       -6.270  -9.736  -2.358  0.00  0.00    +0.030 A 
ENDBRANCH  33  36
ENDBRANCH  31  33
ENDBRANCH  30  31
ENDBRANCH   3  24
TORSDOF 7
