REMARK  Name = ZINC22142484
REMARK                            x       y       z     vdW  Elec       q    Type
REMARK                         _______ _______ _______ _____ _____    ______ ____
ROOT
ATOM      1  N   LIG    1        4.378  -1.079   1.536  0.00  0.00    -0.216 N 
ATOM      2  H   LIG    1        3.801  -0.756   2.266  0.00  0.00    +0.174 HD
ENDROOT
BRANCH   1   3
ATOM      3  C   LIG    1        5.569  -1.745   1.829  0.00  0.00    +0.048 A 
ATOM      4  C   LIG    1        6.387  -2.196   0.800  0.00  0.00    +0.024 A 
ATOM      5  C   LIG    1        7.564  -2.854   1.094  0.00  0.00    +0.002 A 
ATOM      6  C   LIG    1        7.931  -3.065   2.411  0.00  0.00    +0.002 A 
ATOM      7  C   LIG    1        7.120  -2.617   3.438  0.00  0.00    -0.063 A 
ATOM      8  C   LIG    1        5.943  -1.953   3.151  0.00  0.00    +0.026 A 
BRANCH   7   9
ATOM      9  C   LIG    1        7.523  -2.850   4.871  0.00  0.00    -0.051 C 
BRANCH   9  10
ATOM     10  N   LIG    1        8.329  -1.716   5.343  0.00  0.00    +0.381 N 
ATOM     11  H   LIG    1        8.598  -1.872   6.303  0.00  0.00    -0.090 HD
ATOM     12  H   LIG    1        7.786  -0.868   5.280  0.00  0.00    -0.090 HD
ATOM     13  H   LIG    1        9.155  -1.630   4.771  0.00  0.00    -0.090 HD
ENDBRANCH   9  10
ENDBRANCH   7   9
ENDBRANCH   1   3
BRANCH   1  14
ATOM     14  S   LIG    1        3.934  -0.832  -0.041  0.00  0.00    +0.072 S 
ATOM     15  O   LIG    1        4.890   0.060  -0.597  0.00  0.00    -0.150 OA
ATOM     16  O   LIG    1        3.674  -2.114  -0.595  0.00  0.00    -0.150 OA
BRANCH  14  20
ATOM     17  C   LIG    1       -0.017   1.378   0.010  0.00  0.00    +0.000 A 
ATOM     18  C   LIG    1        1.171   2.086   0.002  0.00  0.00    +0.002 A 
ATOM     19  C   LIG    1        2.377   1.411  -0.013  0.00  0.00    +0.029 A 
ATOM     20  C   LIG    1        2.396   0.029  -0.020  0.00  0.00    +0.108 A 
ATOM     21  C   LIG    1        1.208  -0.679  -0.012  0.00  0.00    +0.029 A 
ATOM     22  C   LIG    1        0.002  -0.004   0.002  0.00  0.00    +0.002 A 
ENDBRANCH  14  20
ENDBRANCH   1  14
TORSDOF 5
