REMARK  Name = ZINC64475084
REMARK                            x       y       z     vdW  Elec       q    Type
REMARK                         _______ _______ _______ _____ _____    ______ ____
ROOT
ATOM      1  C   LIG    1        1.625  -2.574   2.237  0.00  0.00    -0.004 A 
ATOM      2  C   LIG    1        2.998  -2.721   2.213  0.00  0.00    +0.007 A 
ATOM      3  C   LIG    1        3.662  -3.214   3.321  0.00  0.00    +0.000 A 
ATOM      4  C   LIG    1        2.952  -3.561   4.456  0.00  0.00    +0.004 A 
ATOM      5  C   LIG    1        1.579  -3.416   4.486  0.00  0.00    +0.046 A 
ATOM      6  C   LIG    1        0.912  -2.916   3.376  0.00  0.00    +0.123 A 
ENDROOT
BRANCH   6   7
ATOM      7  O   LIG    1       -0.439  -2.767   3.405  0.00  0.00    -0.495 OA
ATOM      8  C   LIG    1       -1.107  -3.139   4.611  0.00  0.00    +0.277 C 
ENDBRANCH   6   7
BRANCH   1   9
ATOM      9  C   LIG    1        0.902  -2.037   1.028  0.00  0.00    +0.055 C 
BRANCH   9  10
ATOM     10  C   LIG    1        0.706  -0.527   1.180  0.00  0.00    +0.106 C 
BRANCH  10  12
ATOM     11  C   LIG    1       -0.018   1.465   0.010  0.00  0.00    +0.123 C 
ATOM     12  N   LIG    1        0.002  -0.004   0.002  0.00  0.00    -0.248 NA
BRANCH  12  13
ATOM     13  N   LIG    1       -1.346  -0.543  -0.082  0.00  0.00    -0.268 NA
ATOM     14  H   LIG    1       -1.829  -0.183  -0.891  0.00  0.00    +0.137 HD
ATOM     15  H   LIG    1       -1.864  -0.353   0.763  0.00  0.00    +0.137 HD
ENDBRANCH  12  13
ENDBRANCH  10  12
ENDBRANCH   9  10
ENDBRANCH   1   9
TORSDOF 5
