REMARK  Name = ZINC38493164
REMARK                            x       y       z     vdW  Elec       q    Type
REMARK                         _______ _______ _______ _____ _____    ______ ____
ROOT
ATOM      1  C   LIG    1       -0.019   1.526   0.010  0.00  0.00    +0.016 C 
ATOM      2  C   LIG    1        0.002  -0.004   0.002  0.00  0.00    -0.010 C 
ATOM      3  C   LIG    1        0.731  -0.492  -1.252  0.00  0.00    +0.016 C 
ATOM      4  C   LIG    1       -1.433  -0.527  -0.015  0.00  0.00    +0.012 C 
ATOM      5  C   LIG    1       -2.078  -0.215   1.340  0.00  0.00    +0.012 C 
ATOM      6  C   LIG    1       -1.428  -1.104   2.398  0.00  0.00    -0.010 C 
ATOM      7  C   LIG    1       -1.899  -0.664   3.785  0.00  0.00    +0.016 C 
ATOM      8  C   LIG    1       -1.844  -2.557   2.161  0.00  0.00    +0.016 C 
ATOM      9  C   LIG    1        0.074  -1.000   2.328  0.00  0.00    -0.037 A 
ATOM     10  C   LIG    1        0.799  -1.433   3.426  0.00  0.00    +0.021 A 
ATOM     11  C   LIG    1        2.193  -1.367   3.422  0.00  0.00    +0.026 A 
ATOM     12  C   LIG    1        2.853  -0.860   2.299  0.00  0.00    +0.017 A 
ATOM     13  C   LIG    1        2.121  -0.432   1.216  0.00  0.00    +0.005 A 
ATOM     14  C   LIG    1        0.732  -0.498   1.225  0.00  0.00    -0.038 A 
ENDROOT
BRANCH  11  15
ATOM     15  C   LIG    1        2.940  -1.814   4.559  0.00  0.00    -0.061 C 
ATOM     16  C   LIG    1        3.553  -2.182   5.491  0.00  0.00    -0.061 C 
BRANCH  16  17
ATOM     17  C   LIG    1        4.300  -2.629   6.627  0.00  0.00    +0.025 A 
ATOM     18  C   LIG    1        5.698  -2.555   6.619  0.00  0.00    +0.017 A 
ATOM     19  C   LIG    1        6.410  -2.982   7.703  0.00  0.00    +0.016 A 
ATOM     20  C   LIG    1        5.742  -3.494   8.822  0.00  0.00    +0.059 A 
ATOM     21  C   LIG    1        4.345  -3.568   8.830  0.00  0.00    +0.016 A 
ATOM     22  C   LIG    1        3.632  -3.135   7.749  0.00  0.00    +0.017 A 
BRANCH  20  23
ATOM     23  C   LIG    1        6.511  -3.956   9.990  0.00  0.00    +0.337 C 
ATOM     24  O   LIG    1        7.733  -3.891   9.983  0.00  0.00    -0.245 OA
BRANCH  23  25
ATOM     25  O   LIG    1        5.928  -4.403  10.968  0.00  0.00    -0.477 OA
ATOM     26  H   LIG    1        4.992  -4.452  10.973  0.00  0.00    +0.295 HD
ENDBRANCH  23  25
ENDBRANCH  20  23
ENDBRANCH  16  17
ENDBRANCH  11  15
TORSDOF 4
