REMARK  Name = ZINC18254725
REMARK                            x       y       z     vdW  Elec       q    Type
REMARK                         _______ _______ _______ _____ _____    ______ ____
ROOT
ATOM      1  C   LIG    1       -1.230   1.726   0.017  0.00  0.00    +0.122 A 
ATOM      2  C   LIG    1       -0.013   1.076   0.008  0.00  0.00    +0.101 A 
ATOM      3  N   LIG    1        1.151   1.739   0.000  0.00  0.00    -0.360 N 
ATOM      4  C   LIG    1        1.226   3.115   0.007  0.00  0.00    +0.050 A 
ATOM      5  C   LIG    1        2.463   3.755  -0.001  0.00  0.00    +0.027 A 
ATOM      6  C   LIG    1        2.526   5.131   0.007  0.00  0.00    +0.017 A 
ATOM      7  C   LIG    1        1.366   5.894   0.021  0.00  0.00    +0.019 A 
ATOM      8 BR   LIG    1        1.481   7.782   0.030  0.00  0.00    -0.050 Br
ATOM      9  C   LIG    1        0.132   5.282   0.029  0.00  0.00    +0.029 A 
ATOM     10  C   LIG    1        0.054   3.889   0.021  0.00  0.00    +0.047 A 
ATOM     11  H   LIG    1        1.976   1.229  -0.010  0.00  0.00    +0.165 HD
ATOM     12  C   LIG    1       -1.249   3.198   0.030  0.00  0.00    +0.203 A 
ATOM     13  O   LIG    1       -2.297   3.819   0.043  0.00  0.00    -0.286 OA
ENDROOT
BRANCH   1  14
ATOM     14  C   LIG    1       -2.486   0.963   0.020  0.00  0.00    +0.344 C 
ATOM     15  O   LIG    1       -3.552   1.546   0.028  0.00  0.00    -0.245 OA
BRANCH  14  16
ATOM     16  O   LIG    1       -2.455  -0.385   0.013  0.00  0.00    -0.461 OA
BRANCH  16  18
ATOM     17  C   LIG    1       -3.498  -2.586   0.006  0.00  0.00    +0.048 C 
ATOM     18  C   LIG    1       -3.733  -1.074   0.015  0.00  0.00    +0.229 C 
ENDBRANCH  16  18
ENDBRANCH  14  16
ENDBRANCH   1  14
TORSDOF 3
