REMARK  Name = ZINC26568833
REMARK                            x       y       z     vdW  Elec       q    Type
REMARK                         _______ _______ _______ _____ _____    ______ ____
ROOT
ATOM      1  C   LIG    1        2.923  -0.371   2.482  0.00  0.00    +0.011 C 
ATOM      2  C   LIG    1        2.177   0.078   1.224  0.00  0.00    +0.031 C 
ATOM      3  C   LIG    1        2.093   1.605   1.197  0.00  0.00    +0.085 C 
ATOM      4  N   LIG    1        1.359   2.036   0.000  0.00  0.00    -0.327 NA
ATOM      5  H   LIG    1        1.326   3.135  -0.035  0.00  0.00    +0.120 HD
ATOM      6  C   LIG    1       -0.019   1.526   0.010  0.00  0.00    +0.024 C 
ATOM      7  C   LIG    1        0.002  -0.004   0.002  0.00  0.00    +0.142 C 
ATOM      8  C   LIG    1        0.761  -0.506   1.233  0.00  0.00    +0.147 C 
ENDROOT
BRANCH   6   9
ATOM      9  N   LIG    1       -0.730   2.013  -1.179  0.00  0.00    +0.390 N 
ATOM     10  H   LIG    1       -0.745   3.112  -1.173  0.00  0.00    -0.088 HD
ATOM     11  H   LIG    1       -0.214   1.659  -2.085  0.00  0.00    -0.088 HD
ATOM     12  H   LIG    1       -1.761   1.631  -1.172  0.00  0.00    -0.088 HD
ENDBRANCH   6   9
BRANCH   7  13
ATOM     13  O   LIG    1       -1.338  -0.499   0.033  0.00  0.00    -0.390 OA
ATOM     14  H   LIG    1       -1.524  -1.584   0.032  0.00  0.00    +0.210 HD
ENDBRANCH   7  13
BRANCH   8  15
ATOM     15  O   LIG    1        0.080  -0.088   2.418  0.00  0.00    -0.389 OA
ATOM     16  H   LIG    1       -0.956  -0.411   2.600  0.00  0.00    +0.210 HD
ENDBRANCH   8  15
TORSDOF 3
