REMARK  Name = ZINC38536757
REMARK                            x       y       z     vdW  Elec       q    Type
REMARK                         _______ _______ _______ _____ _____    ______ ____
ROOT
ATOM      1  C   LIG    1        0.598  -0.611  -1.069  0.00  0.00    +0.143 A 
ATOM      2  C   LIG    1        1.157   0.151  -2.082  0.00  0.00    +0.080 A 
ATOM      3  C   LIG    1        1.764  -0.468  -3.159  0.00  0.00    +0.125 A 
ATOM      4  C   LIG    1        1.814  -1.848  -3.230  0.00  0.00    +0.034 A 
ATOM      5  C   LIG    1        1.259  -2.616  -2.224  0.00  0.00    +0.029 A 
ATOM      6  C   LIG    1        0.654  -2.002  -1.137  0.00  0.00    +0.076 A 
ENDROOT
BRANCH   6   7
ATOM      7  N   LIG    1        0.096  -2.777  -0.113  0.00  0.00    -0.278 N 
ATOM      8  H   LIG    1       -0.614  -2.414   0.439  0.00  0.00    +0.155 HD
ATOM      9  C   LIG    1        0.545  -4.029   0.106  0.00  0.00    +0.252 C 
ATOM     10  O   LIG    1        1.501  -4.449  -0.517  0.00  0.00    -0.270 OA
BRANCH   9  11
ATOM     11  C   LIG    1       -0.122  -4.889   1.101  0.00  0.00    +0.078 A 
ATOM     12  C   LIG    1       -1.225  -4.412   1.815  0.00  0.00    +0.017 A 
ATOM     13  C   LIG    1       -1.844  -5.221   2.743  0.00  0.00    +0.001 A 
ATOM     14  C   LIG    1       -1.379  -6.506   2.972  0.00  0.00    +0.004 A 
ATOM     15  C   LIG    1       -0.290  -6.989   2.274  0.00  0.00    +0.046 A 
ATOM     16  C   LIG    1        0.341  -6.191   1.331  0.00  0.00    +0.129 A 
BRANCH  16  17
ATOM     17  O   LIG    1        1.407  -6.667   0.640  0.00  0.00    -0.506 OA
ATOM     18  H   LIG    1        2.259  -6.501   1.067  0.00  0.00    +0.292 HD
ENDBRANCH  16  17
ENDBRANCH   9  11
ENDBRANCH   6   7
BRANCH   1  20
ATOM     19  C   LIG    1       -0.020   1.425  -0.008  0.00  0.00    +0.277 C 
ATOM     20  O   LIG    1        0.001  -0.004  -0.010  0.00  0.00    -0.493 OA
ENDBRANCH   1  20
BRANCH   3  21
ATOM     21  N   LIG    1        2.360   0.348  -4.240  0.00  0.00    +0.006 N 
ATOM     22  O   LIG    1        2.316   1.555  -4.181  0.00  0.00    -0.130 OA
BRANCH  21  23
ATOM     23  O   LIG    1        2.891  -0.191  -5.183  0.00  0.00    -0.396 OA
ATOM     24  H   LIG    1        2.925  -1.127  -5.229  0.00  0.00    +0.329 HD
ENDBRANCH  21  23
ENDBRANCH   3  21
TORSDOF 6
