REMARK  Name = ZINC28950516
REMARK                            x       y       z     vdW  Elec       q    Type
REMARK                         _______ _______ _______ _____ _____    ______ ____
ROOT
ATOM      1  C   LIG    1        3.224   2.109  -3.614  0.00  0.00    +0.128 A 
ATOM      2  C   LIG    1        1.884   1.713  -3.632  0.00  0.00    +0.063 A 
ATOM      3  C   LIG    1        1.258   1.563  -4.854  0.00  0.00    +0.118 A 
ATOM      4  N   LIG    1        1.944   1.787  -5.965  0.00  0.00    -0.223 NA
ATOM      5  C   LIG    1        3.215   2.157  -5.918  0.00  0.00    +0.221 A 
ATOM      6  N   LIG    1        3.850   2.317  -4.767  0.00  0.00    -0.199 NA
ENDROOT
BRANCH   1   7
ATOM      7  N   LIG    1        3.892   2.276  -2.410  0.00  0.00    -0.299 N 
ATOM      8  H   LIG    1        4.942   2.603  -2.405  0.00  0.00    +0.154 HD
BRANCH   7  15
ATOM      9  C   LIG    1        3.652  -0.421  -1.541  0.00  0.00    +0.045 C 
ATOM     10  C   LIG    1        3.090   0.726  -0.742  0.00  0.00    -0.029 A 
ATOM     11  C   LIG    1        2.436   0.482   0.451  0.00  0.00    +0.009 A 
ATOM     12  C   LIG    1        1.924   1.532   1.189  0.00  0.00    +0.046 A 
ATOM     13  C   LIG    1        2.057   2.835   0.729  0.00  0.00    +0.119 A 
ATOM     14  C   LIG    1        2.712   3.084  -0.466  0.00  0.00    +0.069 A 
ATOM     15  C   LIG    1        3.230   2.029  -1.204  0.00  0.00    +0.039 A 
BRANCH  13  16
ATOM     16  O   LIG    1        1.549   3.866   1.454  0.00  0.00    -0.507 OA
ATOM     17  H   LIG    1        1.654   4.899   1.090  0.00  0.00    +0.292 HD
ENDBRANCH  13  16
ENDBRANCH   7  15
ENDBRANCH   1   7
BRANCH   5  18
ATOM     18  N   LIG    1        3.897   2.383  -7.103  0.00  0.00    -0.284 N 
ATOM     19  H   LIG    1        4.923   2.778  -7.080  0.00  0.00    +0.155 HD
BRANCH  18  20
ATOM     20  C   LIG    1        3.281   2.107  -8.328  0.00  0.00    +0.034 A 
ATOM     21  C   LIG    1        2.406   1.033  -8.440  0.00  0.00    +0.023 A 
ATOM     22  C   LIG    1        1.791   0.759  -9.647  0.00  0.00    +0.003 A 
ATOM     23  C   LIG    1        2.049   1.545 -10.752  0.00  0.00    +0.013 A 
ATOM     24  C   LIG    1        2.930   2.623 -10.651  0.00  0.00    +0.038 A 
ATOM     25  C   LIG    1        3.547   2.902  -9.432  0.00  0.00    +0.036 A 
BRANCH  24  26
ATOM     26  C   LIG    1        3.208   3.466 -11.834  0.00  0.00    +0.242 C 
ATOM     27  N   LIG    1        2.611   3.195 -13.011  0.00  0.00    -0.325 N 
ATOM     28  H   LIG    1        1.916   2.346 -13.092  0.00  0.00    +0.145 HD
ATOM     29  H   LIG    1        2.818   3.822 -13.890  0.00  0.00    +0.145 HD
ATOM     30  O   LIG    1        3.976   4.404 -11.744  0.00  0.00    -0.270 OA
ENDBRANCH  24  26
ENDBRANCH  18  20
ENDBRANCH   5  18
TORSDOF 6
