REMARK  Name = ZINC28570368
REMARK                            x       y       z     vdW  Elec       q    Type
REMARK                         _______ _______ _______ _____ _____    ______ ____
ROOT
ATOM      1  C   UNK    1        6.219  -1.005  -0.056  0.00  0.00    +0.104 C 
ENDROOT
BRANCH   1   5
ATOM      2  C   UNK    1        2.481   1.070  -0.015  0.00  0.00    -0.018 A 
ATOM      3  C   UNK    1        2.507  -0.323  -0.016  0.00  0.00    +0.009 A 
ATOM      4  C   UNK    1        3.717  -0.988  -0.035  0.00  0.00    +0.005 A 
ATOM      5  C   UNK    1        4.901  -0.274  -0.042  0.00  0.00    -0.038 A 
ATOM      6  C   UNK    1        4.881   1.109  -0.036  0.00  0.00    +0.005 A 
ATOM      7  C   UNK    1        3.677   1.784  -0.022  0.00  0.00    +0.009 A 
BRANCH   2  11
ATOM      8  C   UNK    1       -1.236   3.134   0.030  0.00  0.00    +0.000 A 
ATOM      9  C   UNK    1       -1.216   1.751   0.017  0.00  0.00    +0.001 A 
ATOM     10  C   UNK    1       -0.013   1.076   0.008  0.00  0.00    +0.008 A 
ATOM     11  C   UNK    1        1.184   1.790   0.000  0.00  0.00    -0.018 A 
ATOM     12  C   UNK    1        1.157   3.183   0.008  0.00  0.00    +0.008 A 
ATOM     13  C   UNK    1       -0.052   3.848   0.022  0.00  0.00    +0.001 A 
ENDBRANCH   2  11
ENDBRANCH   1   5
BRANCH   1  14
ATOM     14  S   UNK    1        6.762  -1.306   1.648  0.00  0.00    -0.156 S 
BRANCH  14  15
ATOM     15  C   UNK    1        8.339  -2.182   1.458  0.00  0.00    +0.068 C 
BRANCH  15  16
ATOM     16  C   UNK    1        8.916  -2.500   2.839  0.00  0.00    +0.005 C 
BRANCH  16  17
ATOM     17  C   UNK    1       10.246  -3.239   2.678  0.00  0.00    +0.036 C 
BRANCH  17  18
ATOM     18  N   UNK    1       10.008  -4.543   2.046  0.00  0.00    +0.387 N 
ATOM     19  H   UNK    1        9.332  -5.139   2.676  0.00  0.00    -0.089 HD
ATOM     20  H   UNK    1        9.551  -4.394   1.057  0.00  0.00    -0.089 HD
ATOM     21  H   UNK    1       10.965  -5.075   1.930  0.00  0.00    -0.089 HD
ENDBRANCH  17  18
BRANCH  17  22
ATOM     22  C   UNK    1       10.873  -3.445   4.033  0.00  0.00    +0.290 C 
ATOM     23  O   UNK    1       10.775  -4.513   4.588  0.00  0.00    -0.253 OA
BRANCH  22  24
ATOM     24  O   UNK    1       11.540  -2.440   4.623  0.00  0.00    -0.482 OA
ATOM     25  H   UNK    1       11.616  -1.612   4.192  0.00  0.00    +0.295 HD
ENDBRANCH  22  24
ENDBRANCH  17  22
ENDBRANCH  16  17
ENDBRANCH  15  16
ENDBRANCH  14  15
ENDBRANCH   1  14
TORSDOF 9
