REMARK  Name = ZINC38476029
REMARK                            x       y       z     vdW  Elec       q    Type
REMARK                         _______ _______ _______ _____ _____    ______ ____
ROOT
ATOM      1  C   LIG    1       -0.017   1.376   0.010  0.00  0.00    +0.001 A 
ATOM      2  C   LIG    1        1.169   2.089   0.002  0.00  0.00    +0.004 A 
ATOM      3  C   LIG    1        2.382   1.425  -0.013  0.00  0.00    +0.046 A 
ATOM      4  C   LIG    1        2.415   0.040  -0.021  0.00  0.00    +0.126 A 
ATOM      5  C   LIG    1        1.218  -0.682  -0.013  0.00  0.00    +0.043 A 
ATOM      6  C   LIG    1        0.002  -0.004   0.002  0.00  0.00    +0.014 A 
ENDROOT
BRANCH   5   7
ATOM      7  C   LIG    1        1.244  -2.166  -0.022  0.00  0.00    +0.092 A 
ATOM      8  C   LIG    1        0.161  -2.986  -0.021  0.00  0.00    +0.112 A 
ATOM      9  N   LIG    1        0.639  -4.268  -0.032  0.00  0.00    -0.350 N 
ATOM     10  H   LIG    1        0.107  -5.079  -0.034  0.00  0.00    +0.166 HD
ATOM     11  C   LIG    1        1.988  -4.196  -0.039  0.00  0.00    +0.197 A 
ATOM     12  N   LIG    1        2.347  -2.942  -0.038  0.00  0.00    -0.236 NA
ENDBRANCH   5   7
BRANCH   4  13
ATOM     13  O   LIG    1        3.606  -0.613  -0.037  0.00  0.00    -0.506 OA
ATOM     14  H   LIG    1        4.407  -0.127  -0.042  0.00  0.00    +0.292 HD
ENDBRANCH   4  13
TORSDOF 2
