REMARK  Name = ZINC00047043
REMARK                            x       y       z     vdW  Elec       q    Type
REMARK                         _______ _______ _______ _____ _____    ______ ____
ROOT
ATOM      1  N   LIG    1       -2.402   1.759  -2.169  0.00  0.00    -0.327 N 
ATOM      2  C   LIG    1       -2.624   0.370  -2.593  0.00  0.00    +0.124 C 
ATOM      3  C   LIG    1       -3.559  -0.321  -1.595  0.00  0.00    +0.127 C 
ATOM      4  N   LIG    1       -4.779   0.489  -1.459  0.00  0.00    -0.295 N 
ATOM      5  C   LIG    1       -5.999  -0.068  -1.594  0.00  0.00    +0.247 C 
ATOM      6  O   LIG    1       -6.101  -1.233  -1.924  0.00  0.00    -0.270 OA
ATOM      7  C   LIG    1       -4.632   1.924  -1.170  0.00  0.00    +0.127 C 
ATOM      8  C   LIG    1       -3.655   2.527  -2.184  0.00  0.00    +0.124 C 
ENDROOT
BRANCH   1  11
ATOM      9  C   LIG    1        0.792   2.411  -3.866  0.00  0.00    +0.003 A 
ATOM     10  C   LIG    1       -0.168   1.804  -3.079  0.00  0.00    +0.023 A 
ATOM     11  C   LIG    1       -1.429   2.374  -2.960  0.00  0.00    +0.031 A 
ATOM     12  C   LIG    1       -1.718   3.559  -3.624  0.00  0.00    +0.043 A 
ATOM     13  C   LIG    1       -0.754   4.161  -4.410  0.00  0.00    +0.043 A 
ATOM     14 CL   LIG    1       -1.115   5.638  -5.247  0.00  0.00    -0.083 Cl
ATOM     15  C   LIG    1        0.500   3.587  -4.531  0.00  0.00    +0.020 A 
ENDBRANCH   1  11
BRANCH   5  16
ATOM     16  C   LIG    1       -7.211   0.738  -1.341  0.00  0.00    +0.037 A 
ATOM     17  C   LIG    1       -7.198   1.736  -0.365  0.00  0.00    +0.016 A 
ATOM     18  C   LIG    1       -8.330   2.489  -0.137  0.00  0.00    +0.039 A 
ATOM     19  C   LIG    1       -9.484   2.249  -0.868  0.00  0.00    +0.123 A 
ATOM     20  F   LIG    1      -10.592   2.986  -0.637  0.00  0.00    -0.205 F 
ATOM     21  C   LIG    1       -9.504   1.256  -1.835  0.00  0.00    +0.039 A 
ATOM     22  C   LIG    1       -8.376   0.501  -2.075  0.00  0.00    +0.016 A 
ENDBRANCH   5  16
TORSDOF 2
