REMARK  Name = ZINC28826977
REMARK                            x       y       z     vdW  Elec       q    Type
REMARK                         _______ _______ _______ _____ _____    ______ ____
ROOT
ATOM      1  C   LIG    1       -0.627   1.665   3.743  0.00  0.00    +0.233 C 
ATOM      2  N   LIG    1       -0.509   2.952   4.125  0.00  0.00    -0.292 N 
ATOM      3  C   LIG    1        0.269   3.995   3.449  0.00  0.00    +0.143 C 
ATOM      4  C   LIG    1        0.101   5.272   4.233  0.00  0.00    -0.025 A 
ATOM      5  C   LIG    1        0.614   6.542   4.029  0.00  0.00    +0.005 A 
ATOM      6  C   LIG    1        0.311   7.561   4.911  0.00  0.00    +0.000 A 
ATOM      7  C   LIG    1       -0.506   7.314   5.999  0.00  0.00    +0.000 A 
ATOM      8  C   LIG    1       -1.019   6.047   6.202  0.00  0.00    +0.005 A 
ATOM      9  C   LIG    1       -0.716   5.025   5.319  0.00  0.00    -0.025 A 
ATOM     10  C   LIG    1       -1.128   3.575   5.298  0.00  0.00    +0.143 C 
ATOM     11  O   LIG    1       -1.301   0.897   4.397  0.00  0.00    -0.274 OA
ENDROOT
BRANCH   1  12
ATOM     12  C   LIG    1        0.079   1.179   2.503  0.00  0.00    +0.141 C 
BRANCH  12  13
ATOM     13  N   LIG    1        0.204  -0.284   2.553  0.00  0.00    -0.320 NA
ATOM     14  H   LIG    1       -0.797  -0.737   2.606  0.00  0.00    +0.119 HD
ATOM     15  H   LIG    1        0.785  -0.572   3.442  0.00  0.00    +0.119 HD
ENDBRANCH  12  13
BRANCH  12  16
ATOM     16  C   LIG    1       -0.729   1.579   1.267  0.00  0.00    +0.011 C 
ATOM     17  C   LIG    1       -2.121   0.950   1.341  0.00  0.00    +0.009 C 
BRANCH  16  19
ATOM     18  C   LIG    1       -0.753   1.593  -1.232  0.00  0.00    +0.004 C 
ATOM     19  C   LIG    1       -0.013   1.086   0.008  0.00  0.00    +0.002 C 
ENDBRANCH  16  19
ENDBRANCH  12  16
ENDBRANCH   1  12
TORSDOF 4
