REMARK  Name = ZINC13985654
REMARK                            x       y       z     vdW  Elec       q    Type
REMARK                         _______ _______ _______ _____ _____    ______ ____
ROOT
ATOM      1  C   LIG    1        0.773  -0.412  -1.308  0.00  0.00    +0.239 C 
ENDROOT
BRANCH   1   3
ATOM      2  C   LIG    1       -0.244   1.631  -0.290  0.00  0.00    +0.016 C 
ATOM      3  C   LIG    1       -0.026   0.126  -0.119  0.00  0.00    +0.013 C 
ATOM      4  C   LIG    1       -1.381  -0.582  -0.054  0.00  0.00    +0.016 C 
ATOM      5  C   LIG    1        0.748  -0.134   1.175  0.00  0.00    +0.016 C 
ENDBRANCH   1   3
BRANCH   1   6
ATOM      6  N   LIG    1        2.071   0.265  -1.370  0.00  0.00    -0.283 N 
ATOM      7  H   LIG    1        2.120   1.229  -1.273  0.00  0.00    +0.152 HD
ATOM      8  C   LIG    1        3.196  -0.451  -1.564  0.00  0.00    +0.220 C 
ATOM      9  O   LIG    1        3.127  -1.643  -1.776  0.00  0.00    -0.275 OA
BRANCH   8  10
ATOM     10  C   LIG    1        4.540   0.230  -1.515  0.00  0.00    +0.131 C 
BRANCH  10  11
ATOM     11  C   LIG    1        5.626  -0.786  -1.761  0.00  0.00    -0.035 A 
ATOM     12  C   LIG    1        6.185  -1.468  -0.697  0.00  0.00    +0.008 A 
ATOM     13  C   LIG    1        7.182  -2.401  -0.917  0.00  0.00    +0.049 A 
ATOM     14  C   LIG    1        7.622  -2.653  -2.206  0.00  0.00    +0.161 A 
ATOM     15  C   LIG    1        7.059  -1.966  -3.277  0.00  0.00    +0.162 A 
ATOM     16  C   LIG    1        6.057  -1.036  -3.050  0.00  0.00    +0.053 A 
BRANCH  14  17
ATOM     17  O   LIG    1        8.603  -3.569  -2.424  0.00  0.00    -0.491 OA
ATOM     18  C   LIG    1        9.135  -4.236  -1.277  0.00  0.00    +0.277 C 
ENDBRANCH  14  17
BRANCH  15  19
ATOM     19  O   LIG    1        7.488  -2.210  -4.544  0.00  0.00    -0.491 OA
ATOM     20  C   LIG    1        6.864  -1.468  -5.595  0.00  0.00    +0.277 C 
ENDBRANCH  15  19
ENDBRANCH  10  11
ENDBRANCH   8  10
ENDBRANCH   1   6
BRANCH   1  21
ATOM     21  N   LIG    1        0.032  -0.163  -2.547  0.00  0.00    -0.255 N 
ATOM     22  H   LIG    1       -0.368   0.706  -2.706  0.00  0.00    +0.260 HD
BRANCH  21  23
ATOM     23  C   LIG    1       -0.096  -1.165  -3.486  0.00  0.00    +0.404 C 
ATOM     24  N   LIG    1       -0.859  -0.974  -4.565  0.00  0.00    +0.011 NA
BRANCH  23  25
ATOM     25  N   LIG    1        0.540  -2.318  -3.318  0.00  0.00    -0.242 N 
ATOM     26  H   LIG    1        1.019  -2.492  -2.493  0.00  0.00    +0.265 HD
ATOM     27  C   LIG    1        0.519  -3.249  -4.295  0.00  0.00    +0.109 A 
ATOM     28  C   LIG    1        0.148  -2.909  -5.598  0.00  0.00    +0.043 A 
ATOM     29  C   LIG    1        0.131  -3.869  -6.591  0.00  0.00    +0.005 A 
ATOM     30  C   LIG    1        0.473  -5.181  -6.337  0.00  0.00    +0.026 A 
ATOM     31  C   LIG    1        0.852  -5.586  -5.063  0.00  0.00    +0.050 A 
ATOM     32  N   LIG    1        1.193  -6.889  -4.807  0.00  0.00    -0.361 N 
ATOM     33  H   LIG    1        1.160  -7.554  -5.532  0.00  0.00    +0.165 HD
ATOM     34  C   LIG    1        1.573  -7.268  -3.576  0.00  0.00    +0.083 A 
ATOM     35  C   LIG    1        1.617  -6.376  -2.531  0.00  0.00    +0.018 A 
ATOM     36  C   LIG    1        1.276  -5.045  -2.733  0.00  0.00    +0.015 A 
ATOM     37  C   LIG    1        0.890  -4.637  -4.015  0.00  0.00    +0.037 A 
ENDBRANCH  23  25
BRANCH  24  38
ATOM     38  C   LIG    1       -1.425   0.236  -4.789  0.00  0.00    +0.295 C 
ATOM     39  N   LIG    1       -1.900   1.251  -4.977  0.00  0.00    -0.151 NA
ENDBRANCH  24  38
ENDBRANCH  21  23
ENDBRANCH   1  21
TORSDOF 10
