REMARK  Name = ZINC29133346
REMARK                            x       y       z     vdW  Elec       q    Type
REMARK                         _______ _______ _______ _____ _____    ______ ____
ROOT
ATOM      1  N   LIG    1        1.133   1.922   0.002  0.00  0.00    -0.256 N 
ATOM      2  C   LIG    1       -0.015   1.216   0.009  0.00  0.00    +0.258 A 
ATOM      3  C   LIG    1       -1.230   1.919   0.018  0.00  0.00    +0.104 A 
ATOM      4  C   LIG    1       -1.193   3.284   0.031  0.00  0.00    +0.094 A 
ATOM      5  N   LIG    1       -0.007   3.994   0.023  0.00  0.00    -0.262 N 
ATOM      6  C   LIG    1       -0.112   5.356   0.031  0.00  0.00    +0.119 A 
ATOM      7  C   LIG    1       -1.322   5.959   0.045  0.00  0.00    +0.115 A 
ATOM      8  S   LIG    1       -2.431   4.558   0.049  0.00  0.00    -0.063 S 
ATOM      9  O   LIG    1        0.002  -0.004   0.002  0.00  0.00    -0.267 OA
ATOM     10  C   LIG    1        1.141   3.260   0.008  0.00  0.00    +0.337 A 
ATOM     11  O   LIG    1        2.209   3.841   0.001  0.00  0.00    -0.246 OA
ENDROOT
BRANCH   7  12
ATOM     12  C   LIG    1       -1.641   7.391   0.055  0.00  0.00    +0.348 C 
ATOM     13  O   LIG    1       -0.746   8.213   0.049  0.00  0.00    -0.244 OA
BRANCH  12  14
ATOM     14  O   LIG    1       -2.928   7.795   0.069  0.00  0.00    -0.456 OA
BRANCH  14  15
ATOM     15  C   LIG    1       -3.169   9.226   0.078  0.00  0.00    +0.268 C 
BRANCH  15  16
ATOM     16  C   LIG    1       -4.654   9.486   0.094  0.00  0.00    -0.010 A 
ATOM     17  C   LIG    1       -5.346   9.616  -1.095  0.00  0.00    +0.007 A 
ATOM     18  C   LIG    1       -6.708   9.848  -1.081  0.00  0.00    +0.000 A 
ATOM     19  C   LIG    1       -7.377   9.961   0.124  0.00  0.00    +0.000 A 
ATOM     20  C   LIG    1       -6.684   9.837   1.314  0.00  0.00    +0.000 A 
ATOM     21  C   LIG    1       -5.322   9.599   1.299  0.00  0.00    +0.007 A 
ENDBRANCH  15  16
ENDBRANCH  14  15
ENDBRANCH  12  14
ENDBRANCH   7  12
BRANCH   1  22
ATOM     22  C   LIG    1        2.410   1.203  -0.015  0.00  0.00    +0.165 C 
BRANCH  22  26
ATOM     23  C   LIG    1        3.613   0.526  -4.057  0.00  0.00    +0.000 A 
ATOM     24  C   LIG    1        4.005   1.679  -3.403  0.00  0.00    +0.000 A 
ATOM     25  C   LIG    1        3.616   1.898  -2.095  0.00  0.00    +0.005 A 
ATOM     26  C   LIG    1        2.834   0.965  -1.441  0.00  0.00    -0.028 A 
ATOM     27  C   LIG    1        2.446  -0.191  -2.093  0.00  0.00    +0.005 A 
ATOM     28  C   LIG    1        2.831  -0.407  -3.403  0.00  0.00    +0.000 A 
ENDBRANCH  22  26
ENDBRANCH   1  22
TORSDOF 6
