REMARK  Name = ZINC71295348
REMARK                            x       y       z     vdW  Elec       q    Type
REMARK                         _______ _______ _______ _____ _____    ______ ____
ROOT
ATOM      1  C   LIG    1       -0.367   1.468   0.040  0.00  0.00    +0.045 C 
ATOM      2  C   LIG    1       -0.104  -0.015   0.011  0.00  0.00    -0.027 A 
ATOM      3  C   LIG    1       -0.161  -0.720  -1.173  0.00  0.00    +0.048 A 
ATOM      4  C   LIG    1        0.087  -2.091  -1.167  0.00  0.00    +0.126 A 
ATOM      5  N   LIG    1        0.378  -2.728  -0.042  0.00  0.00    -0.216 NA
ATOM      6  C   LIG    1        0.444  -2.095   1.118  0.00  0.00    +0.139 A 
ATOM      7  C   LIG    1        0.211  -0.711   1.188  0.00  0.00    +0.094 A 
ENDROOT
BRANCH   4   8
ATOM      8  N   LIG    1        0.029  -2.800  -2.357  0.00  0.00    -0.283 N 
ATOM      9  H   LIG    1       -0.099  -2.329  -3.196  0.00  0.00    +0.155 HD
BRANCH   8  10
ATOM     10  C   LIG    1        0.153  -4.194  -2.348  0.00  0.00    +0.146 A 
ATOM     11  C   LIG    1        0.183  -5.013  -1.207  0.00  0.00    +0.068 A 
ATOM     12  C   LIG    1        0.313  -6.294  -1.619  0.00  0.00    +0.035 A 
ATOM     13  C   LIG    1        0.389  -7.509  -0.730  0.00  0.00    +0.065 C 
ATOM     14  N   LIG    1        0.364  -6.293  -2.968  0.00  0.00    -0.280 N 
ATOM     15  H   LIG    1        0.456  -7.074  -3.535  0.00  0.00    +0.189 HD
ATOM     16  N   LIG    1        0.257  -4.966  -3.405  0.00  0.00    -0.158 NA
ENDBRANCH   8  10
ENDBRANCH   4   8
BRANCH   6  17
ATOM     17  N   LIG    1        0.751  -2.800   2.269  0.00  0.00    -0.325 N 
ATOM     18  H   LIG    1        0.801  -2.339   3.121  0.00  0.00    +0.148 HD
BRANCH  17  19
ATOM     19  C   LIG    1        1.000  -4.242   2.200  0.00  0.00    +0.069 C 
ATOM     20  C   LIG    1       -0.330  -4.994   2.271  0.00  0.00    +0.028 C 
BRANCH  19  21
ATOM     21  C   LIG    1        1.886  -4.662   3.375  0.00  0.00    +0.022 C 
BRANCH  21  22
ATOM     22  C   LIG    1        3.262  -4.006   3.237  0.00  0.00    +0.005 C 
BRANCH  22  23
ATOM     23  C   LIG    1        4.148  -4.427   4.411  0.00  0.00    +0.034 C 
BRANCH  23  24
ATOM     24  C   LIG    1        5.523  -3.771   4.273  0.00  0.00    +0.061 C 
ATOM     25  C   LIG    1        6.409  -4.192   5.447  0.00  0.00    +0.041 C 
ATOM     26  C   LIG    1        5.365  -2.249   4.273  0.00  0.00    +0.041 C 
BRANCH  24  27
ATOM     27  O   LIG    1        6.128  -4.187   3.047  0.00  0.00    -0.389 OA
ATOM     28  H   LIG    1        6.259  -5.143   2.978  0.00  0.00    +0.210 HD
ENDBRANCH  24  27
ENDBRANCH  23  24
ENDBRANCH  22  23
ENDBRANCH  21  22
ENDBRANCH  19  21
ENDBRANCH  17  19
ENDBRANCH   6  17
BRANCH   7  29
ATOM     29  C   LIG    1        0.289  -0.022   2.441  0.00  0.00    +0.103 C 
ATOM     30  N   LIG    1        0.351   0.524   3.436  0.00  0.00    -0.191 NA
ENDBRANCH   7  29
TORSDOF 10
