REMARK  Name = ZINC20028330
REMARK                            x       y       z     vdW  Elec       q    Type
REMARK                         _______ _______ _______ _____ _____    ______ ____
ROOT
ATOM      1  C   LIG    1        2.517  -4.096   1.134  0.00  0.00    +0.103 A 
ATOM      2  C   LIG    1        3.503  -5.029   1.204  0.00  0.00    +0.041 A 
ATOM      3  C   LIG    1        3.830  -5.208   2.570  0.00  0.00    +0.003 A 
ATOM      4  C   LIG    1        4.753  -6.023   3.239  0.00  0.00    +0.048 A 
ATOM      5  C   LIG    1        4.840  -5.974   4.602  0.00  0.00    +0.124 A 
ATOM      6  F   LIG    1        5.730  -6.761   5.245  0.00  0.00    -0.205 F 
ATOM      7  C   LIG    1        4.019  -5.121   5.333  0.00  0.00    +0.040 A 
ATOM      8  C   LIG    1        3.105  -4.312   4.697  0.00  0.00    +0.029 A 
ATOM      9  C   LIG    1        2.998  -4.345   3.309  0.00  0.00    +0.047 A 
ATOM     10  N   LIG    1        2.206  -3.668   2.410  0.00  0.00    -0.351 N 
ATOM     11  H   LIG    1        1.538  -3.003   2.635  0.00  0.00    +0.166 HD
ENDROOT
BRANCH   1  17
ATOM     12  C   LIG    1        1.735   1.744  -0.942  0.00  0.00    +0.105 C 
ATOM     13  N   LIG    1        1.296   0.387  -0.590  0.00  0.00    -0.302 NA
ATOM     14  C   LIG    1        1.387  -0.513  -1.748  0.00  0.00    +0.103 C 
ATOM     15  C   LIG    1        0.754  -1.862  -1.393  0.00  0.00    +0.123 C 
ATOM     16  N   LIG    1        1.385  -2.365  -0.164  0.00  0.00    -0.294 N 
ATOM     17  C   LIG    1        1.886  -3.615  -0.104  0.00  0.00    +0.263 C 
ATOM     18  O   LIG    1        1.816  -4.345  -1.075  0.00  0.00    -0.268 OA
ATOM     19  C   LIG    1        1.454  -1.468   1.000  0.00  0.00    +0.123 C 
ATOM     20  C   LIG    1        2.060  -0.134   0.551  0.00  0.00    +0.103 C 
ENDBRANCH   1  17
TORSDOF 1
