REMARK  Name = ZINC22463226
REMARK                            x       y       z     vdW  Elec       q    Type
REMARK                         _______ _______ _______ _____ _____    ______ ____
ROOT
ATOM      1  C   LIG    1       -1.436   7.553   5.273  0.00  0.00    +0.000 A 
ATOM      2  C   LIG    1       -0.303   6.876   5.684  0.00  0.00    +0.000 A 
ATOM      3  C   LIG    1       -0.262   5.497   5.617  0.00  0.00    +0.002 A 
ATOM      4  C   LIG    1       -1.353   4.790   5.140  0.00  0.00    -0.057 A 
ATOM      5  C   LIG    1       -2.486   5.467   4.729  0.00  0.00    -0.038 A 
ATOM      6  C   LIG    1       -3.529   4.479   4.254  0.00  0.00    +0.048 C 
ATOM      7  C   LIG    1       -3.083   3.116   4.824  0.00  0.00    +0.002 C 
ATOM      8  C   LIG    1       -1.558   3.300   4.969  0.00  0.00    -0.036 C 
ATOM      9  C   LIG    1       -2.524   6.850   4.796  0.00  0.00    +0.004 A 
ENDROOT
BRANCH   6  10
ATOM     10  C   LIG    1       -4.887   4.854   4.789  0.00  0.00    -0.040 A 
ATOM     11  C   LIG    1       -5.092   4.938   6.154  0.00  0.00    +0.007 A 
ATOM     12  C   LIG    1       -6.335   5.286   6.646  0.00  0.00    +0.038 A 
ATOM     13  C   LIG    1       -7.379   5.541   5.772  0.00  0.00    +0.123 A 
ATOM     14  F   LIG    1       -8.596   5.877   6.252  0.00  0.00    -0.205 F 
ATOM     15  C   LIG    1       -7.173   5.451   4.405  0.00  0.00    +0.038 A 
ATOM     16  C   LIG    1       -5.928   5.108   3.916  0.00  0.00    +0.007 A 
ENDBRANCH   6  10
BRANCH   8  17
ATOM     17  N   LIG    1       -0.870   2.826   3.761  0.00  0.00    +0.386 N 
ATOM     18  H   LIG    1        0.177   3.159   3.816  0.00  0.00    -0.081 HD
ATOM     19  C   LIG    1       -0.876   1.358   3.692  0.00  0.00    -0.062 C 
ATOM     20  C   LIG    1       -0.084   0.904   2.464  0.00  0.00    +0.066 C 
ATOM     21  N   LIG    1       -0.682   1.487   1.255  0.00  0.00    -0.304 NA
ATOM     22  C   LIG    1       -0.676   2.955   1.323  0.00  0.00    +0.066 C 
ATOM     23  C   LIG    1       -1.468   3.409   2.552  0.00  0.00    -0.062 C 
BRANCH  21  24
ATOM     24  C   LIG    1        0.005   1.013   0.047  0.00  0.00    +0.103 C 
BRANCH  24  25
ATOM     25  C   LIG    1       -0.789   1.435  -1.191  0.00  0.00    +0.124 C 
BRANCH  25  26
ATOM     26  N   LIG    1       -0.104   0.963  -2.396  0.00  0.00    -0.283 N 
ATOM     27  C   LIG    1       -0.325  -0.337  -3.048  0.00  0.00    +0.128 C 
ATOM     28  C   LIG    1        0.639  -0.315  -4.250  0.00  0.00    +0.124 C 
ATOM     29  N   LIG    1        1.300   0.994  -4.148  0.00  0.00    -0.298 N 
ATOM     30  H   LIG    1        2.059   1.286  -4.889  0.00  0.00    +0.150 HD
ATOM     31  C   LIG    1        0.820   1.648  -3.082  0.00  0.00    +0.302 C 
ATOM     32  O   LIG    1        1.192   2.761  -2.765  0.00  0.00    -0.253 OA
ENDBRANCH  25  26
ENDBRANCH  24  25
ENDBRANCH  21  24
ENDBRANCH   8  17
TORSDOF 5
