REMARK  Name = ZINC13779018
REMARK                            x       y       z     vdW  Elec       q    Type
REMARK                         _______ _______ _______ _____ _____    ______ ____
ROOT
ATOM      1  C   LIG    1       -0.019   1.526   0.010  0.00  0.00    +0.161 C 
ENDROOT
BRANCH   1   2
ATOM      2  N   LIG    1        1.356   2.033   0.000  0.00  0.00    -0.154 N 
ATOM      3  C   LIG    1        2.197   2.061  -1.050  0.00  0.00    +0.331 A 
ATOM      4  N   LIG    1        3.340   2.591  -0.663  0.00  0.00    -0.119 NA
ATOM      5  C   LIG    1        3.282   2.919   0.628  0.00  0.00    +0.463 A 
ATOM      6  O   LIG    1        4.181   3.428   1.275  0.00  0.00    -0.219 OA
ATOM      7  O   LIG    1        2.063   2.598   1.094  0.00  0.00    -0.315 OA
BRANCH   3   8
ATOM      8  O   LIG    1        1.917   1.620  -2.294  0.00  0.00    -0.478 OA
ATOM      9  H   LIG    1        1.075   1.256  -2.483  0.00  0.00    +0.295 HD
ENDBRANCH   3   8
ENDBRANCH   1   2
BRANCH   1  10
ATOM     10  CA  LIG    1        0.002  -0.004   0.002  0.00  0.00    +0.059 C 
BRANCH  10  11
ATOM     11  N   LIG    1        0.792  -0.477  -1.143  0.00  0.00    +0.388 N 
ATOM     12  H1  LIG    1        0.806  -1.486  -1.148  0.00  0.00    -0.089 HD
ATOM     13  H2  LIG    1        1.736  -0.128  -1.067  0.00  0.00    -0.089 HD
ATOM     14  H3  LIG    1        0.377  -0.141  -1.999  0.00  0.00    -0.089 HD
ENDBRANCH  10  11
BRANCH  10  15
ATOM     15  C   LIG    1       -1.407  -0.525  -0.111  0.00  0.00    +0.292 C 
ATOM     16  O   LIG    1       -1.776  -1.068  -1.139  0.00  0.00    -0.253 OA
BRANCH  15  17
ATOM     17  OXT LIG    1       -2.179  -0.403   0.825  0.00  0.00    -0.482 OA
ATOM     18  HXT LIG    1       -1.896   0.014   1.614  0.00  0.00    +0.295 HD
ENDBRANCH  15  17
ENDBRANCH  10  15
ENDBRANCH   1  10
TORSDOF 6
