REMARK  Name = ZINC13818926
REMARK                            x       y       z     vdW  Elec       q    Type
REMARK                         _______ _______ _______ _____ _____    ______ ____
ROOT
ATOM      1  C   LIG    1        5.544  -0.259  -3.387  0.00  0.00    +0.255 A 
ATOM      2  N   LIG    1        6.722  -0.152  -2.788  0.00  0.00    -0.194 NA
ATOM      3  C   LIG    1        6.822   0.304  -1.545  0.00  0.00    +0.149 A 
ATOM      4  C   LIG    1        5.646   0.674  -0.869  0.00  0.00    +0.147 A 
ATOM      5  C   LIG    1        4.420   0.537  -1.542  0.00  0.00    +0.170 A 
ATOM      6  N   LIG    1        3.457   0.967  -0.665  0.00  0.00    -0.285 N 
ATOM      7  C   LIG    1        4.088   1.335   0.487  0.00  0.00    +0.203 A 
ATOM      8  N   LIG    1        5.372   1.162   0.365  0.00  0.00    -0.231 NA
ATOM      9  N   LIG    1        4.415   0.077  -2.789  0.00  0.00    -0.191 NA
ENDROOT
BRANCH   1  13
ATOM     10  C   LIG    1        6.074  -1.536  -6.660  0.00  0.00    +0.097 A 
ATOM     11  C   LIG    1        4.668  -1.385  -6.630  0.00  0.00    +0.149 A 
ATOM     12  N   LIG    1        4.336  -0.920  -5.458  0.00  0.00    -0.171 NA
ATOM     13  N   LIG    1        5.495  -0.743  -4.694  0.00  0.00    -0.205 N 
ATOM     14  C   LIG    1        6.554  -1.124  -5.433  0.00  0.00    +0.132 A 
BRANCH  10  15
ATOM     15  C   LIG    1        6.876  -2.038  -7.789  0.00  0.00    +0.342 C 
ATOM     16  O   LIG    1        8.084  -2.120  -7.687  0.00  0.00    -0.245 OA
BRANCH  15  17
ATOM     17  O   LIG    1        6.270  -2.406  -8.935  0.00  0.00    -0.461 OA
BRANCH  17  19
ATOM     18  C   LIG    1        6.262  -3.259 -11.216  0.00  0.00    +0.048 C 
ATOM     19  C   LIG    1        7.123  -2.891 -10.005  0.00  0.00    +0.229 C 
ENDBRANCH  17  19
ENDBRANCH  15  17
ENDBRANCH  10  15
ENDBRANCH   1  13
BRANCH   6  20
ATOM     20  C1* LIG    1        2.015   1.015  -0.917  0.00  0.00    +0.253 C 
ATOM     21  C2* LIG    1        1.371  -0.357  -0.622  0.00  0.00    +0.195 C 
ATOM     22  C3* LIG    1        0.002  -0.004   0.002  0.00  0.00    +0.178 C 
ATOM     23  C4* LIG    1       -0.019   1.541   0.011  0.00  0.00    +0.177 C 
ATOM     24  O4* LIG    1        1.372   1.929  -0.001  0.00  0.00    -0.346 OA
BRANCH  21  25
ATOM     25  O2* LIG    1        1.193  -1.097  -1.832  0.00  0.00    -0.385 OA
ATOM     26  H2* LIG    1        0.738  -1.942  -1.713  0.00  0.00    +0.210 HD
ENDBRANCH  21  25
BRANCH  22  27
ATOM     27  O3* LIG    1       -1.064  -0.515  -0.800  0.00  0.00    -0.386 OA
ATOM     28  H3* LIG    1       -1.945  -0.271  -0.485  0.00  0.00    +0.210 HD
ENDBRANCH  22  27
BRANCH  23  29
ATOM     29  C5* LIG    1       -0.706   2.057   1.276  0.00  0.00    +0.190 C 
BRANCH  29  30
ATOM     30  O5* LIG    1       -0.819   3.480   1.210  0.00  0.00    -0.392 OA
ATOM     31  H5* LIG    1       -1.246   3.877   1.982  0.00  0.00    +0.210 HD
ENDBRANCH  29  30
ENDBRANCH  23  29
ENDBRANCH   6  20
BRANCH   3  32
ATOM     32  N   LIG    1        8.056   0.412  -0.928  0.00  0.00    -0.341 N 
ATOM     33  H   LIG    1        8.861   0.153  -1.405  0.00  0.00    +0.144 HD
ATOM     34  H   LIG    1        8.220   1.365  -0.676  0.00  0.00    +0.144 HD
ENDBRANCH   3  32
TORSDOF 10
