REMARK  Name = ZINC00005554
REMARK                            x       y       z     vdW  Elec       q    Type
REMARK                         _______ _______ _______ _____ _____    ______ ____
ROOT
ATOM      1  C   LIG    1       -0.805   2.935   1.180  0.00  0.00    -0.064 C 
ATOM      2  C   LIG    1       -0.807   1.403   1.246  0.00  0.00    -0.010 C 
ATOM      3  C   LIG    1       -0.188   0.866  -0.043  0.00  0.00    +0.034 C 
ATOM      4  C   LIG    1       -0.847   1.487  -1.247  0.00  0.00    -0.044 A 
ATOM      5  C   LIG    1       -0.681   0.848  -2.475  0.00  0.00    +0.006 A 
ATOM      6  C   LIG    1       -1.245   1.352  -3.623  0.00  0.00    +0.026 A 
ATOM      7  C   LIG    1       -1.997   2.521  -3.566  0.00  0.00    +0.047 A 
ATOM      8  C   LIG    1       -2.166   3.162  -2.332  0.00  0.00    +0.013 A 
ATOM      9  C   LIG    1       -2.997   4.351  -2.605  0.00  0.00    +0.039 A 
ATOM     10  C   LIG    1       -3.259   4.333  -3.958  0.00  0.00    +0.094 A 
ATOM     11  N   LIG    1       -2.671   3.259  -4.518  0.00  0.00    -0.360 N 
ATOM     12  H   LIG    1       -2.714   3.034  -5.461  0.00  0.00    +0.165 HD
ATOM     13  C   LIG    1       -1.589   2.639  -1.170  0.00  0.00    -0.036 A 
ATOM     14  C   LIG    1       -1.822   3.370   0.126  0.00  0.00    +0.021 C 
ENDROOT
BRANCH   1  15
ATOM     15  N   LIG    1       -1.188   3.515   2.485  0.00  0.00    +0.382 N 
ATOM     16  H   LIG    1       -1.401   4.512   2.357  0.00  0.00    -0.081 HD
BRANCH  15  17
ATOM     17  C   LIG    1       -2.388   2.831   3.010  0.00  0.00    -0.079 C 
BRANCH  17  19
ATOM     18  C   LIG    1       -4.234   2.989   4.686  0.00  0.00    +0.002 C 
ATOM     19  C   LIG    1       -2.977   3.673   4.143  0.00  0.00    -0.022 C 
ENDBRANCH  17  19
ENDBRANCH  15  17
BRANCH  15  20
ATOM     20  C   LIG    1       -0.071   3.382   3.443  0.00  0.00    -0.079 C 
BRANCH  20  21
ATOM     21  C   LIG    1        0.977   4.451   3.126  0.00  0.00    -0.022 C 
ATOM     22  C   LIG    1        2.071   4.426   4.196  0.00  0.00    +0.002 C 
ENDBRANCH  20  21
ENDBRANCH  15  20
ENDBRANCH   1  15
BRANCH   9  23
ATOM     23  C   LIG    1       -3.437   5.317  -1.665  0.00  0.00    +0.260 C 
ATOM     24  O   LIG    1       -4.186   6.206  -2.014  0.00  0.00    -0.296 OA
ENDBRANCH   9  23
TORSDOF 6
