REMARK  Name = ZINC22003772
REMARK                            x       y       z     vdW  Elec       q    Type
REMARK                         _______ _______ _______ _____ _____    ______ ____
ROOT
ATOM      1  C   LIG    1       -1.226   1.747   0.017  0.00  0.00    +0.001 A 
ATOM      2  C   LIG    1       -0.013   1.076   0.008  0.00  0.00    +0.002 A 
ATOM      3  C   LIG    1        1.175   1.775   0.000  0.00  0.00    +0.026 A 
ATOM      4  C   LIG    1        1.164   3.167   0.007  0.00  0.00    +0.047 A 
ATOM      5  C   LIG    1       -0.065   3.844   0.022  0.00  0.00    +0.007 A 
ATOM      6  C   LIG    1        0.252   5.284   0.025  0.00  0.00    +0.007 A 
ATOM      7  C   LIG    1       -0.529   6.438   0.038  0.00  0.00    +0.011 A 
ATOM      8  C   LIG    1        0.077   7.675   0.038  0.00  0.00    +0.013 A 
ATOM      9  C   LIG    1        1.460   7.776   0.025  0.00  0.00    +0.057 A 
ATOM     10  C   LIG    1        2.244   6.643   0.012  0.00  0.00    +0.038 A 
ATOM     11  C   LIG    1        1.651   5.384   0.012  0.00  0.00    +0.048 A 
ATOM     12  N   LIG    1        2.179   4.106   0.001  0.00  0.00    -0.354 N 
ATOM     13  H   LIG    1        3.230   3.780  -0.010  0.00  0.00    +0.166 HD
ATOM     14  C   LIG    1       -1.257   3.124   0.030  0.00  0.00    +0.010 A 
ENDROOT
BRANCH   9  15
ATOM     15  C   LIG    1        2.110   9.135   0.026  0.00  0.00    +0.417 C 
ATOM     16  F   LIG    1        3.348   9.060   0.673  0.00  0.00    -0.166 F 
ATOM     17  F   LIG    1        1.287  10.045   0.698  0.00  0.00    -0.166 F 
ATOM     18  F   LIG    1        2.299   9.562  -1.293  0.00  0.00    -0.166 F 
ENDBRANCH   9  15
TORSDOF 1
