REMARK  Name = ZINC33970297
REMARK                            x       y       z     vdW  Elec       q    Type
REMARK                         _______ _______ _______ _____ _____    ______ ____
ROOT
ATOM      1  C   LIG    1       -0.742   0.495   2.281  0.00  0.00    +0.121 A 
ATOM      2  C   LIG    1       -2.115   0.649   2.417  0.00  0.00    +0.046 A 
ATOM      3  C   LIG    1       -2.733   0.319   3.606  0.00  0.00    +0.012 A 
ATOM      4  C   LIG    1       -1.988  -0.178   4.668  0.00  0.00    -0.013 A 
ATOM      5  C   LIG    1       -0.602  -0.309   4.533  0.00  0.00    -0.036 A 
ATOM      6  C   LIG    1        0.207  -0.808   5.698  0.00  0.00    +0.040 C 
ATOM      7  C   LIG    1       -0.375  -0.286   7.011  0.00  0.00    +0.042 C 
ATOM      8  C   LIG    1       -1.847  -0.594   7.106  0.00  0.00    -0.015 A 
ATOM      9  C   LIG    1       -2.444  -0.820   8.342  0.00  0.00    +0.054 A 
ATOM     10  N   LIG    1       -2.008  -0.694   9.649  0.00  0.00    -0.337 N 
ATOM     11  C   LIG    1       -2.965  -1.154  10.523  0.00  0.00    +0.050 A 
ATOM     12  C   LIG    1       -4.120  -1.483   9.783  0.00  0.00    +0.008 A 
ATOM     13  C   LIG    1       -5.271  -1.969  10.400  0.00  0.00    +0.010 A 
ATOM     14  C   LIG    1       -5.224  -2.121  11.777  0.00  0.00    +0.001 A 
ATOM     15  C   LIG    1       -4.092  -1.803  12.505  0.00  0.00    +0.002 A 
ATOM     16  C   LIG    1       -2.942  -1.312  11.907  0.00  0.00    +0.026 A 
ATOM     17  C   LIG    1       -3.804  -1.211   8.379  0.00  0.00    +0.013 A 
ATOM     18  C   LIG    1       -4.545  -1.287   7.212  0.00  0.00    -0.008 A 
ATOM     19  C   LIG    1       -5.994  -1.609   6.939  0.00  0.00    +0.141 C 
ATOM     20  N   LIG    1       -6.137  -1.619   5.480  0.00  0.00    -0.307 N 
ATOM     21  H   LIG    1       -6.951  -1.813   4.990  0.00  0.00    +0.149 HD
ATOM     22  C   LIG    1       -4.947  -1.312   4.932  0.00  0.00    +0.245 C 
ATOM     23  O   LIG    1       -4.736  -1.315   3.735  0.00  0.00    -0.270 OA
ATOM     24  C   LIG    1       -3.956  -1.018   5.978  0.00  0.00    +0.050 A 
ATOM     25  C   LIG    1       -2.614  -0.586   5.945  0.00  0.00    -0.000 A 
ATOM     26  C   LIG    1        0.013   0.022   3.346  0.00  0.00    +0.050 A 
ENDROOT
BRANCH   1  27
ATOM     27  O   LIG    1       -0.135   0.812   1.108  0.00  0.00    -0.489 OA
BRANCH  27  29
ATOM     28  C   LIG    1       -1.361   2.655   0.138  0.00  0.00    +0.051 C 
ATOM     29  C   LIG    1       -0.983   1.177   0.017  0.00  0.00    +0.167 C 
ATOM     30  C   LIG    1       -0.244   0.946  -1.302  0.00  0.00    +0.051 C 
ENDBRANCH  27  29
ENDBRANCH   1  27
BRANCH  10  31
ATOM     31  C   LIG    1       -0.734  -0.124  10.098  0.00  0.00    +0.150 C 
BRANCH  31  32
ATOM     32  C   LIG    1        0.282  -1.249  10.305  0.00  0.00    +0.177 C 
BRANCH  32  33
ATOM     33  O   LIG    1        1.546  -0.688  10.665  0.00  0.00    -0.393 OA
ATOM     34  H   LIG    1        2.240  -1.345  10.812  0.00  0.00    +0.209 HD
ENDBRANCH  32  33
ENDBRANCH  31  32
ENDBRANCH  10  31
TORSDOF 5
