REMARK  Name = ZINC40861329
REMARK                            x       y       z     vdW  Elec       q    Type
REMARK                         _______ _______ _______ _____ _____    ______ ____
ROOT
ATOM      1  C   LIG    1        1.379  -3.965  -2.363  0.00  0.00    +0.403 C 
ATOM      2  N   LIG    1        1.998  -4.466  -3.450  0.00  0.00    -0.267 N 
ATOM      3  C   LIG    1        2.570  -3.570  -4.465  0.00  0.00    +0.111 C 
ATOM      4  C   LIG    1        2.008  -3.957  -5.837  0.00  0.00    +0.022 C 
ATOM      5  C   LIG    1        2.271  -5.444  -6.090  0.00  0.00    -0.008 C 
ATOM      6  C   LIG    1        1.559  -6.279  -5.023  0.00  0.00    +0.022 C 
ATOM      7  C   LIG    1        2.121  -5.918  -3.640  0.00  0.00    +0.111 C 
ATOM      8  O   LIG    1        0.915  -4.716  -1.528  0.00  0.00    -0.226 OA
ENDROOT
BRANCH   1   9
ATOM      9  O   LIG    1        1.274  -2.632  -2.202  0.00  0.00    -0.441 OA
BRANCH   9  10
ATOM     10  C   LIG    1        0.606  -2.171  -1.026  0.00  0.00    +0.329 C 
BRANCH  10  14
ATOM     11  C   LIG    1       -0.018   1.461   0.010  0.00  0.00    +0.128 C 
ATOM     12  N   LIG    1        0.002  -0.004   0.002  0.00  0.00    -0.316 N 
ATOM     13  H   LIG    1       -0.404  -0.499   0.731  0.00  0.00    +0.148 HD
ATOM     14  C   LIG    1        0.585  -0.664  -1.018  0.00  0.00    +0.251 C 
ATOM     15  O   LIG    1        1.093  -0.046  -1.929  0.00  0.00    -0.272 OA
ENDBRANCH  10  14
ENDBRANCH   9  10
ENDBRANCH   1   9
BRANCH   5  16
ATOM     16  C   LIG    1        1.742  -5.826  -7.474  0.00  0.00    +0.008 C 
BRANCH  16  17
ATOM     17  C   LIG    1        2.114  -7.279  -7.779  0.00  0.00    +0.035 C 
BRANCH  17  18
ATOM     18  C   LIG    1        1.593  -7.655  -9.142  0.00  0.00    -0.047 A 
ATOM     19  C   LIG    1        0.325  -8.190  -9.273  0.00  0.00    +0.005 A 
ATOM     20  C   LIG    1       -0.154  -8.536 -10.522  0.00  0.00    +0.020 A 
ATOM     21  C   LIG    1        0.636  -8.347 -11.642  0.00  0.00    +0.041 A 
ATOM     22 CL   LIG    1        0.036  -8.782 -13.212  0.00  0.00    -0.084 Cl
ATOM     23  C   LIG    1        1.905  -7.812 -11.510  0.00  0.00    +0.020 A 
ATOM     24  C   LIG    1        2.381  -7.461 -10.261  0.00  0.00    +0.005 A 
ENDBRANCH  17  18
ENDBRANCH  16  17
ENDBRANCH   5  16
TORSDOF 6
