REMARK  Name = ZINC00008492
REMARK                            x       y       z     vdW  Elec       q    Type
REMARK                         _______ _______ _______ _____ _____    ______ ____
ROOT
ATOM      1  C   LIG    1       -0.017   1.388   0.010  0.00  0.00    +0.004 A 
ATOM      2  C   LIG    1        1.142   2.104   0.003  0.00  0.00    +0.010 A 
ATOM      3  C   LIG    1        2.375   1.433  -0.013  0.00  0.00    +0.004 A 
ATOM      4  C   LIG    1        3.593   2.138  -0.020  0.00  0.00    +0.011 A 
ATOM      5  C   LIG    1        4.754   1.419  -0.035  0.00  0.00    +0.020 A 
ATOM      6  C   LIG    1        4.709   0.027  -0.042  0.00  0.00    +0.111 A 
ATOM      7  N   LIG    1        3.573  -0.627  -0.036  0.00  0.00    -0.251 NA
ATOM      8  C   LIG    1        2.402   0.017  -0.021  0.00  0.00    +0.112 A 
ATOM      9  C   LIG    1        1.182  -0.692  -0.013  0.00  0.00    +0.143 A 
ATOM     10  C   LIG    1        0.002  -0.004   0.002  0.00  0.00    +0.047 A 
ENDROOT
BRANCH   9  11
ATOM     11  O   LIG    1        1.181  -2.050  -0.021  0.00  0.00    -0.505 OA
ATOM     12  H   LIG    1        1.189  -2.448   0.860  0.00  0.00    +0.292 HD
ENDBRANCH   9  11
TORSDOF 1
