REMARK  Name = ZINC29313822
REMARK                            x       y       z     vdW  Elec       q    Type
REMARK                         _______ _______ _______ _____ _____    ______ ____
ROOT
ATOM      1  C   LIG    1        1.417   2.032  -0.001  0.00  0.00    +0.015 C 
ENDROOT
BRANCH   1   2
ATOM      2  N   LIG    1        1.397   3.501   0.007  0.00  0.00    +0.386 N 
ATOM      3  H   LIG    1        0.865   3.866  -0.884  0.00  0.00    -0.089 HD
ATOM      4  H   LIG    1        0.882   3.856   0.912  0.00  0.00    -0.089 HD
ATOM      5  H   LIG    1        2.429   3.882  -0.000  0.00  0.00    -0.089 HD
ENDBRANCH   1   2
BRANCH   1   6
ATOM      6  P   LIG    1        2.270   1.444  -1.500  0.00  0.00    +0.177 P 
ATOM      7  O   LIG    1        1.791   2.210  -2.673  0.00  0.00    -0.296 OA
ATOM      8  H   LIG    1        2.102   0.408  -1.828  0.00  0.00    +0.126 HD
BRANCH   6   9
ATOM      9  O   LIG    1        3.857   1.657  -1.333  0.00  0.00    -0.347 OA
ATOM     10  H   LIG    1        4.172   1.155  -0.565  0.00  0.00    +0.217 HD
ENDBRANCH   6   9
ENDBRANCH   1   6
BRANCH   1  11
ATOM     11  C   LIG    1       -0.018   1.503   0.010  0.00  0.00    +0.028 C 
BRANCH  11  15
ATOM     12  C   LIG    1        0.039  -2.768  -0.013  0.00  0.00    +0.000 A 
ATOM     13  C   LIG    1        0.041  -2.084   1.188  0.00  0.00    +0.000 A 
ATOM     14  C   LIG    1        0.023  -0.702   1.195  0.00  0.00    +0.003 A 
ATOM     15  C   LIG    1        0.002  -0.004   0.002  0.00  0.00    -0.048 A 
ATOM     16  C   LIG    1       -0.006  -0.689  -1.199  0.00  0.00    +0.003 A 
ATOM     17  C   LIG    1        0.018  -2.071  -1.206  0.00  0.00    +0.000 A 
ENDBRANCH  11  15
ENDBRANCH   1  11
TORSDOF 5
