REMARK  Name = ZINC49877706
REMARK                            x       y       z     vdW  Elec       q    Type
REMARK                         _______ _______ _______ _____ _____    ______ ____
ROOT
ATOM      1  C   LIG    1        0.387  -3.690   7.236  0.00  0.00    +0.159 C 
ENDROOT
BRANCH   1   4
ATOM      2  N   LIG    1        0.167  -3.718   4.773  0.00  0.00    -0.284 N 
ATOM      3  H   LIG    1        0.088  -4.684   4.820  0.00  0.00    +0.155 HD
ATOM      4  C   LIG    1        0.274  -2.994   5.904  0.00  0.00    +0.238 C 
ATOM      5  O   LIG    1        0.279  -1.782   5.851  0.00  0.00    -0.273 OA
BRANCH   2  13
ATOM      6  C   LIG    1       -0.637  -1.675  -1.388  0.00  0.00    +0.045 C 
ATOM      7  C   LIG    1        0.169  -1.146  -0.231  0.00  0.00    -0.033 A 
ATOM      8  C   LIG    1        0.920  -0.021  -0.360  0.00  0.00    +0.096 A 
ATOM      9  C   LIG    1        1.666   0.455   0.738  0.00  0.00    +0.337 A 
ATOM     10  O   LIG    1        1.656  -0.175   1.923  0.00  0.00    -0.422 OA
ATOM     11  C   LIG    1        0.931  -1.298   2.119  0.00  0.00    +0.141 A 
ATOM     12  C   LIG    1        0.933  -1.936   3.349  0.00  0.00    +0.070 A 
ATOM     13  C   LIG    1        0.169  -3.079   3.532  0.00  0.00    +0.037 A 
ATOM     14  C   LIG    1       -0.590  -3.599   2.484  0.00  0.00    +0.024 A 
ATOM     15  C   LIG    1       -0.598  -2.985   1.266  0.00  0.00    +0.013 A 
ATOM     16  O   LIG    1        2.335   1.464   0.608  0.00  0.00    -0.245 OA
ATOM     17  C   LIG    1        0.159  -1.825   1.066  0.00  0.00    +0.021 A 
ENDBRANCH   2  13
ENDBRANCH   1   4
BRANCH   1  18
ATOM     18  N   LIG    1        0.491  -2.690   8.302  0.00  0.00    -0.303 N 
ATOM     19  H   LIG    1        0.130  -1.800   8.169  0.00  0.00    +0.149 HD
ATOM     20  C   LIG    1        1.088  -3.008   9.468  0.00  0.00    +0.231 C 
ATOM     21  O   LIG    1        1.539  -4.121   9.635  0.00  0.00    -0.274 OA
BRANCH  20  22
ATOM     22  C   LIG    1        1.194  -1.979  10.564  0.00  0.00    +0.200 C 
BRANCH  22  23
ATOM     23  N   LIG    1        1.879  -2.566  11.719  0.00  0.00    -0.305 N 
ATOM     24  H   LIG    1        2.181  -3.487  11.687  0.00  0.00    +0.149 HD
ATOM     25  C   LIG    1        2.088  -1.826  12.826  0.00  0.00    +0.234 C 
ATOM     26  O   LIG    1        1.710  -0.674  12.866  0.00  0.00    -0.274 OA
BRANCH  25  27
ATOM     27  C   LIG    1        2.793  -2.429  14.014  0.00  0.00    +0.159 C 
BRANCH  27  28
ATOM     28  N   LIG    1        3.319  -1.359  14.865  0.00  0.00    -0.304 N 
ATOM     29  H   LIG    1        4.272  -1.301  15.037  0.00  0.00    +0.149 HD
ATOM     30  C   LIG    1        2.480  -0.456  15.408  0.00  0.00    +0.211 C 
ATOM     31  C   LIG    1        3.021   0.645  16.283  0.00  0.00    +0.109 C 
ATOM     32  O   LIG    1        1.288  -0.528  15.193  0.00  0.00    -0.276 OA
ENDBRANCH  27  28
BRANCH  27  33
ATOM     33  C   LIG    1        1.804  -3.278  14.815  0.00  0.00    +0.034 C 
BRANCH  33  34
ATOM     34  C   LIG    1        2.539  -3.965  15.968  0.00  0.00    -0.015 C 
ATOM     35  C   LIG    1        3.542  -4.973  15.405  0.00  0.00    +0.007 C 
ATOM     36  C   LIG    1        1.528  -4.692  16.857  0.00  0.00    +0.007 C 
ENDBRANCH  33  34
ENDBRANCH  27  33
ENDBRANCH  25  27
ENDBRANCH  22  23
ENDBRANCH  20  22
ENDBRANCH   1  18
BRANCH   1  37
ATOM     37  C   LIG    1       -0.854  -4.555   7.467  0.00  0.00    +0.032 C 
BRANCH  37  38
ATOM     38  C   LIG    1       -0.683  -5.357   8.759  0.00  0.00    +0.004 C 
BRANCH  38  39
ATOM     39  C   LIG    1       -1.924  -6.222   8.990  0.00  0.00    +0.019 C 
BRANCH  39  40
ATOM     40  C   LIG    1       -1.753  -7.024  10.281  0.00  0.00    +0.104 C 
BRANCH  40  41
ATOM     41  N   LIG    1       -2.941  -7.852  10.502  0.00  0.00    -0.316 N 
ATOM     42  H   LIG    1       -3.675  -7.827   9.868  0.00  0.00    +0.149 HD
ATOM     43  C   LIG    1       -3.015  -8.648  11.587  0.00  0.00    +0.210 C 
ATOM     44  C   LIG    1       -4.237  -9.500  11.815  0.00  0.00    +0.109 C 
ATOM     45  O   LIG    1       -2.098  -8.679  12.380  0.00  0.00    -0.276 OA
ENDBRANCH  40  41
ENDBRANCH  39  40
ENDBRANCH  38  39
ENDBRANCH  37  38
ENDBRANCH   1  37
TORSDOF 14
