REMARK  Name = ZINC26840904
REMARK                            x       y       z     vdW  Elec       q    Type
REMARK                         _______ _______ _______ _____ _____    ______ ____
ROOT
ATOM      1  N   LIG    1       -0.223   5.026   0.002  0.00  0.00    -0.203 N 
ENDROOT
BRANCH   1   6
ATOM      2  C   LIG    1       -1.988   1.866   0.656  0.00  0.00    +0.122 A 
ATOM      3  C   LIG    1       -1.098   0.953   0.106  0.00  0.00    +0.046 A 
ATOM      4  C   LIG    1        0.073   1.393  -0.480  0.00  0.00    +0.005 A 
ATOM      5  C   LIG    1        0.365   2.743  -0.516  0.00  0.00    +0.025 A 
ATOM      6  C   LIG    1       -0.518   3.661   0.039  0.00  0.00    +0.055 A 
ATOM      7  C   LIG    1       -1.695   3.220   0.628  0.00  0.00    +0.070 A 
BRANCH   2   8
ATOM      8  O   LIG    1       -3.142   1.432   1.228  0.00  0.00    -0.492 OA
BRANCH   8   9
ATOM      9  C   LIG    1       -3.376   0.022   1.227  0.00  0.00    +0.232 C 
BRANCH   9  11
ATOM     10  C   LIG    1       -5.851   0.326   1.078  0.00  0.00    +0.010 C 
ATOM     11  C   LIG    1       -4.714  -0.274   1.907  0.00  0.00    +0.020 C 
ATOM     12  C   LIG    1       -4.906  -1.787   2.018  0.00  0.00    +0.010 C 
ENDBRANCH   9  11
ENDBRANCH   8   9
ENDBRANCH   2   8
ENDBRANCH   1   6
BRANCH   1  13
ATOM     13  S   LIG    1        1.207   5.580   0.628  0.00  0.00    +0.054 S 
ATOM     14  O   LIG    1        1.571   4.619   1.609  0.00  0.00    -0.155 OA
ATOM     15  O   LIG    1        0.944   6.927   0.996  0.00  0.00    -0.155 OA
BRANCH  13  16
ATOM     16  C   LIG    1        2.374   5.529  -0.760  0.00  0.00    +0.301 C 
BRANCH  16  17
ATOM     17  C   LIG    1        3.784   5.839  -0.253  0.00  0.00    +0.411 C 
ATOM     18  F   LIG    1        3.802   7.113   0.325  0.00  0.00    -0.169 F 
ATOM     19  F   LIG    1        4.684   5.800  -1.323  0.00  0.00    -0.169 F 
ATOM     20  F   LIG    1        4.155   4.888   0.704  0.00  0.00    -0.169 F 
ENDBRANCH  16  17
ENDBRANCH  13  16
ENDBRANCH   1  13
BRANCH   1  21
ATOM     21  C   LIG    1       -1.177   5.966  -0.589  0.00  0.00    +0.167 C 
BRANCH  21  22
ATOM     22  C   LIG    1       -0.977   6.014  -2.082  0.00  0.00    -0.010 A 
ATOM     23  C   LIG    1       -0.197   7.008  -2.655  0.00  0.00    +0.008 A 
ATOM     24  C   LIG    1       -0.037   7.009  -4.032  0.00  0.00    +0.020 A 
ATOM     25  C   LIG    1       -0.663   6.033  -4.784  0.00  0.00    +0.111 A 
ATOM     26  N   LIG    1       -1.401   5.106  -4.205  0.00  0.00    -0.263 NA
ATOM     27  C   LIG    1       -1.572   5.071  -2.898  0.00  0.00    +0.116 A 
ENDBRANCH  21  22
ENDBRANCH   1  21
TORSDOF 9
