REMARK  Name = ZINC20269234
REMARK                            x       y       z     vdW  Elec       q    Type
REMARK                         _______ _______ _______ _____ _____    ______ ____
ROOT
ATOM      1  C   LIG    1        2.952   3.852  -0.007  0.00  0.00    +0.039 A 
ATOM      2  C   LIG    1        1.605   4.141   0.008  0.00  0.00    +0.013 A 
ATOM      3  C   LIG    1        0.677   3.103   0.012  0.00  0.00    +0.007 A 
ATOM      4  C   LIG    1        1.112   1.768   0.001  0.00  0.00    +0.050 A 
ATOM      5  N   LIG    1       -0.011   0.966   0.007  0.00  0.00    -0.360 N 
ATOM      6  C   LIG    1       -1.135   1.724   0.016  0.00  0.00    +0.091 A 
ATOM      7  H   LIG    1        0.095  -0.129   0.005  0.00  0.00    +0.165 HD
ATOM      8  C   LIG    1        2.475   1.495  -0.014  0.00  0.00    +0.064 A 
ATOM      9  C   LIG    1       -0.798   3.049   0.026  0.00  0.00    +0.000 A 
ATOM     10  C   LIG    1        3.385   2.533  -0.018  0.00  0.00    +0.125 A 
ATOM     11  F   LIG    1        4.709   2.262  -0.034  0.00  0.00    -0.205 F 
ENDROOT
BRANCH   9  12
ATOM     12  C   LIG    1       -1.717   4.187   0.041  0.00  0.00    +0.017 C 
ATOM     13  C   LIG    1       -3.056   3.977   0.053  0.00  0.00    +0.092 C 
BRANCH  13  14
ATOM     14  C   LIG    1       -3.943   5.076   0.067  0.00  0.00    +0.330 C 
ATOM     15  O   LIG    1       -3.505   6.211   0.069  0.00  0.00    -0.246 OA
BRANCH  14  16
ATOM     16  O   LIG    1       -5.277   4.867   0.079  0.00  0.00    -0.478 OA
ATOM     17  H   LIG    1       -5.614   3.992   0.077  0.00  0.00    +0.295 HD
ENDBRANCH  14  16
ENDBRANCH  13  14
ENDBRANCH   9  12
TORSDOF 3
