REMARK  Name = ZINC18187616
REMARK                            x       y       z     vdW  Elec       q    Type
REMARK                         _______ _______ _______ _____ _____    ______ ____
ROOT
ATOM      1  C   LIG    1       -0.018   1.505   0.010  0.00  0.00    +0.091 C 
ATOM      2  C   LIG    1        1.454   1.867  -0.002  0.00  0.00    +0.091 C 
ATOM      3  N   LIG    1        2.122   0.767  -0.014  0.00  0.00    -0.240 NA
ATOM      4  C   LIG    1        1.348  -0.354  -0.013  0.00  0.00    +0.164 A 
ATOM      5  N   LIG    1        1.669  -1.661  -0.023  0.00  0.00    -0.197 NA
ATOM      6  C   LIG    1        0.741  -2.592  -0.020  0.00  0.00    +0.195 A 
ATOM      7  N   LIG    1       -0.585  -2.288  -0.005  0.00  0.00    -0.295 N 
ATOM      8  H   LIG    1       -1.247  -2.997  -0.004  0.00  0.00    +0.172 HD
ATOM      9  C   LIG    1       -0.977  -0.994   0.006  0.00  0.00    +0.258 A 
ATOM     10  O   LIG    1       -2.162  -0.700   0.018  0.00  0.00    -0.267 OA
ATOM     11  C   LIG    1        0.002  -0.004   0.002  0.00  0.00    +0.066 A 
ENDROOT
BRANCH   6  12
ATOM     12  N   LIG    1        1.121  -3.908  -0.031  0.00  0.00    -0.329 N 
ATOM     13  H   LIG    1        2.062  -4.141  -0.041  0.00  0.00    +0.145 HD
ATOM     14  H   LIG    1        0.448  -4.607  -0.028  0.00  0.00    +0.145 HD
ENDBRANCH   6  12
TORSDOF 1
