REMARK  Name = ZINC13831249
REMARK                            x       y       z     vdW  Elec       q    Type
REMARK                         _______ _______ _______ _____ _____    ______ ____
ROOT
ATOM      1  C   LIG    1       -7.556  -4.426  -5.305  0.00  0.00    +0.045 A 
ATOM      2  C   LIG    1       -8.897  -3.900  -5.036  0.00  0.00    +0.001 A 
ATOM      3  C   LIG    1       -9.548  -3.765  -3.789  0.00  0.00    +0.013 A 
ATOM      4  C   LIG    1      -10.816  -3.250  -3.712  0.00  0.00    +0.046 A 
ATOM      5  C   LIG    1      -11.499  -2.844  -4.854  0.00  0.00    +0.118 A 
ATOM      6  C   LIG    1      -10.886  -2.963  -6.091  0.00  0.00    +0.061 A 
ATOM      7  C   LIG    1       -9.611  -3.482  -6.174  0.00  0.00    +0.024 A 
ATOM      8  S   LIG    1       -8.506  -3.793  -7.527  0.00  0.00    -0.087 S 
ATOM      9  C   LIG    1       -7.122  -4.457  -6.623  0.00  0.00    +0.031 A 
ENDROOT
BRANCH   9  10
ATOM     10  C   LIG    1       -5.827  -4.928  -7.149  0.00  0.00    -0.010 A 
ATOM     11  C   LIG    1       -5.299  -6.149  -6.720  0.00  0.00    +0.012 A 
ATOM     12  C   LIG    1       -4.089  -6.584  -7.214  0.00  0.00    +0.046 A 
ATOM     13  C   LIG    1       -3.394  -5.812  -8.136  0.00  0.00    +0.117 A 
ATOM     14  C   LIG    1       -3.915  -4.598  -8.565  0.00  0.00    +0.046 A 
ATOM     15  C   LIG    1       -5.128  -4.157  -8.082  0.00  0.00    +0.012 A 
BRANCH  13  16
ATOM     16  O   LIG    1       -2.201  -6.245  -8.620  0.00  0.00    -0.507 OA
ATOM     17  H   LIG    1       -2.267  -6.720  -9.460  0.00  0.00    +0.292 HD
ENDBRANCH  13  16
ENDBRANCH   9  10
BRANCH   1  18
ATOM     18  C   LIG    1       -6.699  -4.898  -4.217  0.00  0.00    +0.195 C 
ATOM     19  O   LIG    1       -6.787  -6.049  -3.828  0.00  0.00    -0.287 OA
BRANCH  18  23
ATOM     20  C   LIG    1       -3.904  -2.255  -2.416  0.00  0.00    +0.030 A 
ATOM     21  C   LIG    1       -3.922  -3.599  -2.054  0.00  0.00    +0.024 A 
ATOM     22  C   LIG    1       -4.826  -4.458  -2.636  0.00  0.00    +0.013 A 
ATOM     23  C   LIG    1       -5.728  -3.979  -3.591  0.00  0.00    +0.022 A 
ATOM     24  C   LIG    1       -5.707  -2.629  -3.952  0.00  0.00    +0.013 A 
ATOM     25  C   LIG    1       -4.804  -1.774  -3.363  0.00  0.00    +0.024 A 
BRANCH  20  30
ATOM     26  N   LIG    1       -0.602  -0.014  -1.353  0.00  0.00    +0.383 N 
ATOM     27  H   LIG    1       -0.969   0.491  -0.560  0.00  0.00    -0.081 HD
ATOM     28  C   LIG    1       -0.668  -1.456  -1.084  0.00  0.00    -0.059 C 
ATOM     29  C   LIG    1       -2.109  -1.845  -0.739  0.00  0.00    +0.086 C 
ATOM     30  N   LIG    1       -2.989  -1.389  -1.826  0.00  0.00    -0.333 N 
ATOM     31  C   LIG    1       -2.873   0.008  -2.272  0.00  0.00    +0.086 C 
ATOM     32  C   LIG    1       -1.395   0.309  -2.546  0.00  0.00    -0.059 C 
BRANCH  26  34
ATOM     33  C   LIG    1        0.868   1.882  -1.845  0.00  0.00    -0.014 C 
ATOM     34  C   LIG    1        0.796   0.377  -1.576  0.00  0.00    -0.075 C 
ATOM     35  C   LIG    1        1.624   0.041  -0.334  0.00  0.00    -0.014 C 
ENDBRANCH  26  34
ENDBRANCH  20  30
ENDBRANCH  18  23
ENDBRANCH   1  18
BRANCH   5  36
ATOM     36  O   LIG    1      -12.756  -2.336  -4.758  0.00  0.00    -0.507 OA
ATOM     37  H   LIG    1      -12.785  -1.376  -4.641  0.00  0.00    +0.292 HD
ENDBRANCH   5  36
TORSDOF 7
