REMARK  Name = ZINC13897226
REMARK                            x       y       z     vdW  Elec       q    Type
REMARK                         _______ _______ _______ _____ _____    ______ ____
ROOT
ATOM      1  C   LIG    1       -3.517  -4.512  -2.654  0.00  0.00    -0.030 A 
ATOM      2  C   LIG    1       -3.955  -3.472  -3.455  0.00  0.00    +0.006 A 
ATOM      3  C   LIG    1       -3.838  -3.559  -4.828  0.00  0.00    +0.009 A 
ATOM      4  C   LIG    1       -3.279  -4.697  -5.407  0.00  0.00    -0.017 A 
ATOM      5  C   LIG    1       -2.840  -5.742  -4.594  0.00  0.00    +0.009 A 
ATOM      6  C   LIG    1       -2.956  -5.641  -3.223  0.00  0.00    +0.006 A 
ENDROOT
BRANCH   4   7
ATOM      7  C   LIG    1       -3.151  -4.797  -6.880  0.00  0.00    -0.007 A 
ATOM      8  C   LIG    1       -4.245  -4.526  -7.697  0.00  0.00    +0.009 A 
ATOM      9  C   LIG    1       -4.122  -4.619  -9.069  0.00  0.00    +0.001 A 
ATOM     10  C   LIG    1       -2.915  -4.983  -9.641  0.00  0.00    +0.001 A 
ATOM     11  C   LIG    1       -1.820  -5.255  -8.847  0.00  0.00    +0.012 A 
ATOM     12  C   LIG    1       -1.924  -5.160  -7.460  0.00  0.00    +0.028 A 
BRANCH  12  13
ATOM     13  C   LIG    1       -0.753  -5.446  -6.605  0.00  0.00    +0.180 A 
ATOM     14  N   LIG    1       -0.708  -5.406  -5.271  0.00  0.00    -0.239 N 
ATOM     15  H   LIG    1       -1.455  -5.180  -4.671  0.00  0.00    +0.192 HD
ATOM     16  N   LIG    1        0.490  -5.718  -4.914  0.00  0.00    -0.046 NA
ATOM     17  N   LIG    1        1.199  -5.951  -5.963  0.00  0.00    -0.023 NA
ATOM     18  N   LIG    1        0.468  -5.799  -7.014  0.00  0.00    -0.108 NA
ENDBRANCH  12  13
ENDBRANCH   4   7
BRANCH   1  19
ATOM     19  C   LIG    1       -3.647  -4.411  -1.157  0.00  0.00    +0.143 C 
BRANCH  19  21
ATOM     20  C   LIG    1       -3.562  -2.014  -0.730  0.00  0.00    +0.217 C 
ATOM     21  N   LIG    1       -2.949  -3.213  -0.685  0.00  0.00    -0.283 N 
ATOM     22  O   LIG    1       -4.724  -1.939  -1.069  0.00  0.00    -0.276 OA
BRANCH  20  23
ATOM     23  C   LIG    1       -2.805  -0.765  -0.357  0.00  0.00    +0.096 C 
BRANCH  23  24
ATOM     24  C   LIG    1       -3.686   0.460  -0.611  0.00  0.00    +0.009 C 
BRANCH  24  26
ATOM     25  C   LIG    1       -3.797   2.953  -0.486  0.00  0.00    +0.004 C 
ATOM     26  C   LIG    1       -2.917   1.728  -0.233  0.00  0.00    -0.003 C 
ENDBRANCH  24  26
ENDBRANCH  23  24
ENDBRANCH  20  23
BRANCH  21  27
ATOM     27  C   LIG    1       -1.583  -3.317  -0.166  0.00  0.00    +0.187 C 
BRANCH  27  28
ATOM     28  C   LIG    1       -1.600  -4.071   1.166  0.00  0.00    +0.014 C 
ATOM     29  C   LIG    1       -2.192  -5.466   0.955  0.00  0.00    +0.009 C 
ATOM     30  C   LIG    1       -2.454  -3.302   2.175  0.00  0.00    +0.009 C 
ENDBRANCH  27  28
BRANCH  27  31
ATOM     31  C   LIG    1       -0.726  -4.065  -1.155  0.00  0.00    +0.326 C 
ATOM     32  O   LIG    1       -1.088  -4.178  -2.313  0.00  0.00    -0.249 OA
BRANCH  31  33
ATOM     33  O   LIG    1        0.331  -4.556  -0.796  0.00  0.00    -0.479 OA
ATOM     34  H   LIG    1        0.610  -4.470   0.094  0.00  0.00    +0.295 HD
ENDBRANCH  31  33
ENDBRANCH  27  31
ENDBRANCH  21  27
ENDBRANCH  19  21
ENDBRANCH   1  19
TORSDOF 11
