REMARK  Name = ZINC20289076
REMARK                            x       y       z     vdW  Elec       q    Type
REMARK                         _______ _______ _______ _____ _____    ______ ____
ROOT
ATOM      1  C   LIG    1        1.655   7.548  -1.024  0.00  0.00    +0.114 C 
ENDROOT
BRANCH   1   2
ATOM      2  N   LIG    1        1.611   6.080  -0.979  0.00  0.00    -0.290 NA
ATOM      3  C   LIG    1        2.438   5.561   0.120  0.00  0.00    +0.104 C 
ATOM      4  C   LIG    1        2.428   4.031   0.083  0.00  0.00    +0.120 C 
ATOM      5  N   LIG    1        1.045   3.550   0.198  0.00  0.00    -0.327 N 
ATOM      6  C   LIG    1        0.217   4.069  -0.901  0.00  0.00    +0.120 C 
ATOM      7  C   LIG    1        0.227   5.599  -0.864  0.00  0.00    +0.104 C 
BRANCH   5   8
ATOM      8  C   LIG    1        1.002   2.153   0.240  0.00  0.00    +0.030 A 
ATOM      9  C   LIG    1       -0.217   1.497   0.348  0.00  0.00    +0.026 A 
ATOM     10  C   LIG    1       -0.257   0.117   0.389  0.00  0.00    +0.040 A 
ATOM     11  C   LIG    1        0.918  -0.612   0.324  0.00  0.00    +0.124 A 
ATOM     12  F   LIG    1        0.877  -1.962   0.365  0.00  0.00    -0.205 F 
ATOM     13  C   LIG    1        2.135   0.039   0.217  0.00  0.00    +0.040 A 
ATOM     14  C   LIG    1        2.179   1.419   0.176  0.00  0.00    +0.026 A 
ENDBRANCH   5   8
ENDBRANCH   1   2
BRANCH   1  15
ATOM     15  C   LIG    1        3.070   8.000  -1.279  0.00  0.00    +0.009 A 
ATOM     16  C   LIG    1        3.743   9.045  -0.739  0.00  0.00    +0.013 A 
ATOM     17  C   LIG    1        5.051   9.271  -1.123  0.00  0.00    +0.008 A 
ATOM     18  C   LIG    1        5.620   8.446  -2.037  0.00  0.00    +0.045 A 
ATOM     19  S   LIG    1        4.292   7.302  -2.377  0.00  0.00    -0.100 S 
ENDBRANCH   1  15
BRANCH   1  21
ATOM     20  C   LIG    1        0.826   9.578  -2.221  0.00  0.00    +0.030 C 
ATOM     21  C   LIG    1        0.748   8.051  -2.148  0.00  0.00    +0.092 C 
BRANCH  21  22
ATOM     22  N   LIG    1        1.187   7.478  -3.423  0.00  0.00    -0.303 N 
ATOM     23  H   LIG    1        2.231   7.157  -3.551  0.00  0.00    +0.149 HD
ATOM     24  C   LIG    1        0.311   7.345  -4.439  0.00  0.00    +0.299 C 
ATOM     25  O   LIG    1       -0.841   7.700  -4.297  0.00  0.00    -0.265 OA
BRANCH  24  26
ATOM     26  C   LIG    1        0.758   6.761  -5.739  0.00  0.00    +0.299 C 
ATOM     27  N   LIG    1       -0.118   6.628  -6.755  0.00  0.00    -0.303 N 
ATOM     28  H   LIG    1       -1.162   6.949  -6.627  0.00  0.00    +0.149 HD
ATOM     29  O   LIG    1        1.910   6.406  -5.881  0.00  0.00    -0.265 OA
BRANCH  27  30
ATOM     30  C   LIG    1        0.321   6.054  -8.030  0.00  0.00    +0.141 C 
BRANCH  30  31
ATOM     31  C   LIG    1       -0.840   6.017  -8.990  0.00  0.00    -0.012 A 
ATOM     32  C   LIG    1       -1.667   4.905  -9.049  0.00  0.00    +0.008 A 
ATOM     33  C   LIG    1       -2.725   4.916  -9.944  0.00  0.00    +0.020 A 
ATOM     34  C   LIG    1       -2.915   6.024 -10.748  0.00  0.00    +0.111 A 
ATOM     35  N   LIG    1       -2.106   7.062 -10.668  0.00  0.00    -0.263 NA
ATOM     36  C   LIG    1       -1.092   7.088  -9.826  0.00  0.00    +0.115 A 
ENDBRANCH  30  31
ENDBRANCH  27  30
ENDBRANCH  24  26
ENDBRANCH  21  22
ENDBRANCH   1  21
TORSDOF 8
