REMARK  Name = ZINC26150498
REMARK                            x       y       z     vdW  Elec       q    Type
REMARK                         _______ _______ _______ _____ _____    ______ ____
ROOT
ATOM      1  C   LIG    1        2.462   4.088   0.000  0.00  0.00    -0.004 A 
ATOM      2  C   LIG    1        1.240   3.444   0.003  0.00  0.00    +0.052 A 
ATOM      3  C   LIG    1        1.186   2.059   0.002  0.00  0.00    +0.121 A 
ATOM      4  C   LIG    1        2.359   1.319  -0.013  0.00  0.00    +0.049 A 
ATOM      5  C   LIG    1        3.581   1.963  -0.021  0.00  0.00    +0.049 A 
ATOM      6  C   LIG    1        3.635   3.349  -0.015  0.00  0.00    +0.123 A 
ENDROOT
BRANCH   3   7
ATOM      7  O   LIG    1       -0.017   1.425   0.010  0.00  0.00    -0.495 OA
ATOM      8  C   LIG    1        0.002  -0.004   0.002  0.00  0.00    +0.277 C 
ENDBRANCH   3   7
BRANCH   6   9
ATOM      9  O   LIG    1        4.838   3.982  -0.023  0.00  0.00    -0.495 OA
ATOM     10  C   LIG    1        6.005   3.158  -0.038  0.00  0.00    +0.277 C 
ENDBRANCH   6   9
BRANCH   1  11
ATOM     11  C   LIG    1        2.520   5.594   0.007  0.00  0.00    +0.023 C 
BRANCH  11  12
ATOM     12  C   LIG    1        2.652   6.106  -1.429  0.00  0.00    -0.071 C 
ATOM     13  C   LIG    1        2.586   7.634  -1.434  0.00  0.00    -0.013 C 
BRANCH  12  14
ATOM     14  N   LIG    1        3.938   5.669  -1.988  0.00  0.00    +0.381 N 
ATOM     15  H   LIG    1        4.716   6.387  -1.687  0.00  0.00    -0.086 HD
ATOM     16  H   LIG    1        4.180   4.675  -1.583  0.00  0.00    -0.086 HD
BRANCH  14  17
ATOM     17  C   LIG    1        3.878   5.599  -3.455  0.00  0.00    -0.082 C 
BRANCH  17  19
ATOM     18  C   LIG    1        5.171   5.069  -5.526  0.00  0.00    +0.002 C 
ATOM     19  C   LIG    1        5.233   5.142  -3.999  0.00  0.00    -0.022 C 
ENDBRANCH  17  19
ENDBRANCH  14  17
ENDBRANCH  12  14
ENDBRANCH  11  12
ENDBRANCH   1  11
TORSDOF 7
