REMARK  Name = ZINC13821002
REMARK                            x       y       z     vdW  Elec       q    Type
REMARK                         _______ _______ _______ _____ _____    ______ ____
ROOT
ATOM      1  N   LIG    1       -0.127  -0.207   0.339  0.00  0.00    -0.324 N 
ATOM      2  C   LIG    1       -0.011   1.151   0.351  0.00  0.00    +0.200 A 
ATOM      3  N   LIG    1        1.244   1.490   0.409  0.00  0.00    -0.232 NA
ATOM      4  C   LIG    1        2.015   0.376   0.439  0.00  0.00    +0.128 A 
ATOM      5  C   LIG    1        3.396   0.137   0.500  0.00  0.00    +0.144 A 
ATOM      6  N   LIG    1        3.852  -1.105   0.513  0.00  0.00    -0.238 NA
ATOM      7  C   LIG    1        3.045  -2.154   0.471  0.00  0.00    +0.115 A 
ATOM      8  C   LIG    1        1.688  -2.009   0.411  0.00  0.00    +0.048 A 
ATOM      9  C   LIG    1        1.144  -0.727   0.394  0.00  0.00    +0.074 A 
ENDROOT
BRANCH   5  10
ATOM     10  N   LIG    1        4.284   1.203   0.546  0.00  0.00    -0.341 N 
ATOM     11  H   LIG    1        3.905   2.235   0.534  0.00  0.00    +0.144 HD
ATOM     12  H   LIG    1        5.367   1.015   0.594  0.00  0.00    +0.144 HD
ENDBRANCH   5  10
BRANCH   1  13
ATOM     13  C   LIG    1       -1.376  -0.971   0.278  0.00  0.00    +0.117 C 
BRANCH  13  14
ATOM     14  C   LIG    1       -2.040  -0.755  -1.083  0.00  0.00    +0.134 C 
ATOM     15  C   LIG    1       -2.377   0.727  -1.256  0.00  0.00    +0.040 C 
BRANCH  14  16
ATOM     16  O   LIG    1       -1.146  -1.164  -2.120  0.00  0.00    -0.390 OA
ATOM     17  H   LIG    1       -1.451  -1.083  -3.174  0.00  0.00    +0.210 HD
ENDBRANCH  14  16
ENDBRANCH  13  14
BRANCH  13  18
ATOM     18  C   LIG    1       -2.318  -0.498   1.387  0.00  0.00    +0.028 C 
BRANCH  18  19
ATOM     19  C   LIG    1       -3.563  -1.387   1.412  0.00  0.00    +0.002 C 
BRANCH  19  20
ATOM     20  C   LIG    1       -4.514  -0.902   2.507  0.00  0.00    +0.000 C 
BRANCH  20  21
ATOM     21  C   LIG    1       -5.759  -1.791   2.533  0.00  0.00    -0.000 C 
BRANCH  21  23
ATOM     22  C   LIG    1       -7.955  -2.195   3.654  0.00  0.00    +0.004 C 
ATOM     23  C   LIG    1       -6.710  -1.306   3.628  0.00  0.00    -0.003 C 
ENDBRANCH  21  23
ENDBRANCH  20  21
ENDBRANCH  19  20
ENDBRANCH  18  19
ENDBRANCH  13  18
ENDBRANCH   1  13
TORSDOF 9
