REMARK  Name = ZINC66136520
REMARK                            x       y       z     vdW  Elec       q    Type
REMARK                         _______ _______ _______ _____ _____    ______ ____
ROOT
ATOM      1  C   LIG    1       -1.285  -0.773   0.007  0.00  0.00    -0.019 C 
ATOM      2  C   LIG    1       -2.179  -0.321  -1.150  0.00  0.00    +0.010 C 
ATOM      3  C   LIG    1       -3.496  -1.099  -1.111  0.00  0.00    +0.001 C 
ATOM      4  C   LIG    1       -4.207  -0.832   0.217  0.00  0.00    +0.000 C 
ATOM      5  C   LIG    1       -3.313  -1.284   1.373  0.00  0.00    +0.001 C 
ATOM      6  C   LIG    1       -1.996  -0.506   1.335  0.00  0.00    +0.010 C 
ENDROOT
BRANCH   1  14
ATOM      7  C   LIG    1        0.019   1.353   0.219  0.00  0.00    +0.005 A 
ATOM      8  C   LIG    1        1.208   2.057   0.185  0.00  0.00    +0.022 A 
ATOM      9  C   LIG    1        2.392   1.401  -0.100  0.00  0.00    +0.059 A 
ATOM     10 CL   LIG    1        3.885   2.284  -0.144  0.00  0.00    -0.082 Cl
ATOM     11  C   LIG    1        2.385   0.039  -0.351  0.00  0.00    +0.060 A 
ATOM     12 CL   LIG    1        3.870  -0.786  -0.710  0.00  0.00    -0.082 Cl
ATOM     13  C   LIG    1        1.194  -0.664  -0.316  0.00  0.00    +0.025 A 
ATOM     14  C   LIG    1        0.012  -0.007  -0.031  0.00  0.00    -0.042 A 
ENDBRANCH   1  14
BRANCH   1  15
ATOM     15  C   LIG    1       -0.998  -2.270  -0.126  0.00  0.00    -0.071 C 
BRANCH  15  16
ATOM     16  N   LIG    1       -0.261  -2.734   1.058  0.00  0.00    +0.381 N 
ATOM     17  H   LIG    1       -0.849  -2.651   1.873  0.00  0.00    -0.085 HD
ATOM     18  H   LIG    1        0.566  -2.170   1.181  0.00  0.00    -0.085 HD
BRANCH  16  19
ATOM     19  C   LIG    1        0.127  -4.138   0.873  0.00  0.00    -0.072 C 
ATOM     20  C   LIG    1       -0.467  -5.168   1.837  0.00  0.00    -0.017 C 
ATOM     21  C   LIG    1        1.007  -4.775   1.950  0.00  0.00    -0.017 C 
ENDBRANCH  16  19
ENDBRANCH  15  16
ENDBRANCH   1  15
TORSDOF 4
