REMARK  Name = ZINC25664385
REMARK                            x       y       z     vdW  Elec       q    Type
REMARK                         _______ _______ _______ _____ _____    ______ ____
ROOT
ATOM      1  C   LIG    1       -2.412   1.019   0.019  0.00  0.00    +0.204 C 
ATOM      2  O   LIG    1       -2.395  -0.199   0.012  0.00  0.00    -0.286 OA
ENDROOT
BRANCH   1   7
ATOM      3  C   LIG    1       -6.100   1.714   0.041  0.00  0.00    +0.004 A 
ATOM      4  C   LIG    1       -6.066   3.100   0.048  0.00  0.00    +0.020 A 
ATOM      5  C   LIG    1       -4.843   3.750   0.045  0.00  0.00    +0.111 A 
ATOM      6  N   LIG    1       -3.717   3.069   0.036  0.00  0.00    -0.252 NA
ATOM      7  C   LIG    1       -3.705   1.742   0.029  0.00  0.00    +0.110 A 
ATOM      8  C   LIG    1       -4.899   1.023   0.025  0.00  0.00    +0.031 A 
ENDBRANCH   1   7
BRANCH   1   9
ATOM      9  C   LIG    1       -1.200   1.740   0.017  0.00  0.00    +0.054 C 
ATOM     10  C   LIG    1       -0.013   1.076   0.008  0.00  0.00    +0.019 C 
BRANCH  10  11
ATOM     11  C   LIG    1        1.201   1.799   0.000  0.00  0.00    +0.012 A 
ATOM     12  C   LIG    1        2.508   1.319  -0.015  0.00  0.00    +0.015 A 
ATOM     13  C   LIG    1        3.513   2.252  -0.020  0.00  0.00    +0.008 A 
ATOM     14  C   LIG    1        3.192   3.575  -0.011  0.00  0.00    +0.046 A 
ATOM     15  S   LIG    1        1.459   3.564  -0.001  0.00  0.00    -0.097 S 
ENDBRANCH  10  11
ENDBRANCH   1   9
TORSDOF 3
