REMARK  Name = ZINC19685792
REMARK                            x       y       z     vdW  Elec       q    Type
REMARK                         _______ _______ _______ _____ _____    ______ ____
ROOT
ATOM      1  C   LIG    1       -4.337   1.990  -1.224  0.00  0.00    +0.338 C 
ATOM      2  O   LIG    1       -3.674   2.169  -0.218  0.00  0.00    -0.245 OA
ENDROOT
BRANCH   1   5
ATOM      3  C   LIG    1       -2.319   3.962  -1.151  0.00  0.00    +0.066 C 
ATOM      4  C   LIG    1       -3.050   3.640  -2.429  0.00  0.00    +0.049 C 
ATOM      5  C   LIG    1       -4.018   2.677  -2.409  0.00  0.00    +0.069 C 
ATOM      6  C   LIG    1       -4.736   2.376  -3.711  0.00  0.00    +0.096 C 
ATOM      7  C   LIG    1       -4.295   3.190  -4.914  0.00  0.00    +0.065 C 
ATOM      8  C   LIG    1       -3.281   4.128  -4.710  0.00  0.00    +0.049 C 
ATOM      9  C   LIG    1       -2.807   4.962  -5.872  0.00  0.00    +0.066 C 
ATOM     10  C   LIG    1       -4.870   3.012  -6.153  0.00  0.00    +0.285 C 
ATOM     11  N   LIG    1       -2.733   4.306  -3.529  0.00  0.00    -0.256 NA
BRANCH   6  12
ATOM     12  C   LIG    1       -4.534   0.918  -4.034  0.00  0.00    -0.033 A 
ATOM     13  C   LIG    1       -3.255   0.401  -4.126  0.00  0.00    +0.005 A 
ATOM     14  C   LIG    1       -3.070  -0.936  -4.422  0.00  0.00    +0.003 A 
ATOM     15  C   LIG    1       -4.163  -1.757  -4.627  0.00  0.00    +0.032 A 
ATOM     16  C   LIG    1       -5.442  -1.240  -4.534  0.00  0.00    +0.122 A 
ATOM     17  C   LIG    1       -5.628   0.096  -4.233  0.00  0.00    +0.037 A 
BRANCH  16  18
ATOM     18  N   LIG    1       -6.613  -2.119  -4.753  0.00  0.00    +0.006 N 
ATOM     19  O   LIG    1       -6.455  -3.306  -4.921  0.00  0.00    -0.130 OA
BRANCH  18  20
ATOM     20  O   LIG    1       -7.727  -1.650  -4.763  0.00  0.00    -0.396 OA
ATOM     21  H   LIG    1       -7.850  -0.730  -4.633  0.00  0.00    +0.329 HD
ENDBRANCH  18  20
ENDBRANCH  16  18
ENDBRANCH   6  12
BRANCH  10  22
ATOM     22  O   LIG    1       -5.935   2.198  -6.291  0.00  0.00    -0.467 OA
ATOM     23  C   LIG    1       -6.480   2.060  -7.605  0.00  0.00    +0.280 C 
ENDBRANCH  10  22
BRANCH  10  24
ATOM     24  O   LIG    1       -4.367   3.651  -7.228  0.00  0.00    -0.480 OA
ATOM     25  H   LIG    1       -3.626   4.217  -7.132  0.00  0.00    +0.295 HD
ENDBRANCH  10  24
ENDBRANCH   1   5
BRANCH   1  26
ATOM     26  O   LIG    1       -5.378   1.130  -1.202  0.00  0.00    -0.463 OA
BRANCH  26  27
ATOM     27  C   LIG    1       -5.715   0.551   0.060  0.00  0.00    +0.214 C 
BRANCH  27  28
ATOM     28  C   LIG    1       -6.829  -0.480  -0.133  0.00  0.00    -0.037 C 
BRANCH  28  29
ATOM     29  N   LIG    1       -7.248  -0.999   1.176  0.00  0.00    +0.384 N 
ATOM     30  H   LIG    1       -6.442  -1.348   1.673  0.00  0.00    -0.082 HD
ATOM     31  C   LIG    1       -7.872   0.081   1.954  0.00  0.00    -0.063 C 
ATOM     32  C   LIG    1       -8.291  -0.455   3.325  0.00  0.00    +0.067 C 
ATOM     33  N   LIG    1       -9.239  -1.564   3.145  0.00  0.00    -0.295 NA
ATOM     34  C   LIG    1       -8.637  -2.641   2.347  0.00  0.00    +0.067 C 
ATOM     35  C   LIG    1       -8.214  -2.088   0.985  0.00  0.00    -0.063 C 
BRANCH  33  36
ATOM     36  C   LIG    1       -9.709  -2.069   4.442  0.00  0.00    +0.117 C 
BRANCH  36  37
ATOM     37  C   LIG    1      -10.622  -3.248   4.221  0.00  0.00    -0.026 A 
ATOM     38  C   LIG    1      -11.606  -3.188   3.251  0.00  0.00    +0.005 A 
ATOM     39  C   LIG    1      -12.443  -4.269   3.048  0.00  0.00    +0.000 A 
ATOM     40  C   LIG    1      -12.296  -5.410   3.814  0.00  0.00    +0.000 A 
ATOM     41  C   LIG    1      -11.311  -5.470   4.783  0.00  0.00    +0.000 A 
ATOM     42  C   LIG    1      -10.472  -4.391   4.983  0.00  0.00    +0.005 A 
ENDBRANCH  36  37
BRANCH  36  43
ATOM     43  C   LIG    1      -10.461  -0.980   5.162  0.00  0.00    -0.026 A 
ATOM     44  C   LIG    1      -11.390  -0.214   4.482  0.00  0.00    +0.005 A 
ATOM     45  C   LIG    1      -12.079   0.785   5.143  0.00  0.00    +0.000 A 
ATOM     46  C   LIG    1      -11.841   1.018   6.484  0.00  0.00    +0.000 A 
ATOM     47  C   LIG    1      -10.914   0.252   7.165  0.00  0.00    +0.000 A 
ATOM     48  C   LIG    1      -10.227  -0.750   6.505  0.00  0.00    +0.005 A 
ENDBRANCH  36  43
ENDBRANCH  33  36
ENDBRANCH  28  29
ENDBRANCH  27  28
ENDBRANCH  26  27
ENDBRANCH   1  26
TORSDOF 13
