REMARK  Name = ZINC18058000
REMARK                            x       y       z     vdW  Elec       q    Type
REMARK                         _______ _______ _______ _____ _____    ______ ____
ROOT
ATOM      1  C   LIG    1        7.920  -6.547  -0.104  0.00  0.00    +0.059 A 
ATOM      2  C   LIG    1        9.016  -5.679  -0.104  0.00  0.00    +0.017 A 
ATOM      3  C   LIG    1       10.295  -6.188  -0.119  0.00  0.00    +0.025 A 
ATOM      4  C   LIG    1       10.498  -7.564  -0.133  0.00  0.00    +0.044 A 
ATOM      5  C   LIG    1        9.411  -8.431  -0.134  0.00  0.00    +0.025 A 
ATOM      6  C   LIG    1        8.128  -7.929  -0.113  0.00  0.00    +0.017 A 
ENDROOT
BRANCH   4   7
ATOM      7  N   LIG    1       11.798  -8.077  -0.148  0.00  0.00    -0.210 N 
ATOM      8  C   LIG    1       12.908  -7.293  -0.144  0.00  0.00    +0.230 C 
ATOM      9  C   LIG    1       14.059  -8.195  -0.472  0.00  0.00    +0.092 C 
ATOM     10  C   LIG    1       15.397  -7.917   0.179  0.00  0.00    +0.040 C 
ATOM     11  C   LIG    1       16.256  -9.146  -0.037  0.00  0.00    -0.030 C 
ATOM     12  C   LIG    1       15.793 -10.316  -0.357  0.00  0.00    -0.030 C 
ATOM     13  C   LIG    1       14.323 -10.635  -0.536  0.00  0.00    +0.040 C 
ATOM     14  C   LIG    1       13.537  -9.536   0.131  0.00  0.00    +0.092 C 
ATOM     15  O   LIG    1       12.957  -6.103   0.081  0.00  0.00    -0.274 OA
ATOM     16  C   LIG    1       12.074  -9.407  -0.163  0.00  0.00    +0.230 C 
ATOM     17  O   LIG    1       11.293 -10.309  -0.374  0.00  0.00    -0.274 OA
ENDBRANCH   4   7
BRANCH   1  18
ATOM     18  C   LIG    1        6.548  -6.006  -0.089  0.00  0.00    +0.340 C 
ATOM     19  O   LIG    1        5.597  -6.762  -0.084  0.00  0.00    -0.245 OA
BRANCH  18  20
ATOM     20  O   LIG    1        6.350  -4.673  -0.081  0.00  0.00    -0.453 OA
BRANCH  20  21
ATOM     21  C   LIG    1        4.995  -4.219  -0.066  0.00  0.00    +0.311 C 
BRANCH  21  22
ATOM     22  C   LIG    1        4.970  -2.713  -0.058  0.00  0.00    +0.200 C 
ATOM     23  O   LIG    1        6.010  -2.089  -0.064  0.00  0.00    -0.288 OA
BRANCH  22  29
ATOM     24  C   LIG    1       -0.016   1.357   0.009  0.00  0.00    +0.001 A 
ATOM     25  C   LIG    1        1.168   2.092   0.002  0.00  0.00    +0.001 A 
ATOM     26  C   LIG    1        2.378   1.468  -0.013  0.00  0.00    +0.008 A 
ATOM     27  C   LIG    1        2.437   0.063  -0.021  0.00  0.00    -0.017 A 
ATOM     28  C   LIG    1        3.667  -0.611  -0.035  0.00  0.00    +0.020 A 
ATOM     29  C   LIG    1        3.684  -1.998  -0.043  0.00  0.00    +0.021 A 
ATOM     30  C   LIG    1        2.479  -2.728  -0.036  0.00  0.00    +0.012 A 
ATOM     31  C   LIG    1        1.281  -2.091  -0.022  0.00  0.00    +0.009 A 
ATOM     32  C   LIG    1        1.231  -0.684  -0.013  0.00  0.00    -0.018 A 
ATOM     33  C   LIG    1        0.002  -0.004   0.002  0.00  0.00    +0.008 A 
ENDBRANCH  22  29
ENDBRANCH  21  22
ENDBRANCH  20  21
ENDBRANCH  18  20
ENDBRANCH   1  18
TORSDOF 6
