REMARK  Name = ZINC22010574
REMARK                            x       y       z     vdW  Elec       q    Type
REMARK                         _______ _______ _______ _____ _____    ______ ____
ROOT
ATOM      1  C   LIG    1        6.338  -1.645  -0.709  0.00  0.00    +0.029 C 
ATOM      2  C   LIG    1        5.397  -2.826  -0.461  0.00  0.00    +0.087 C 
ATOM      3  C   LIG    1        5.493  -3.808  -1.627  0.00  0.00    +0.107 C 
ATOM      4  N   LIG    1        4.478  -4.858  -1.466  0.00  0.00    -0.295 NA
ATOM      5  C   LIG    1        3.120  -4.299  -1.512  0.00  0.00    +0.104 C 
ATOM      6  C   LIG    1        2.928  -3.337  -0.335  0.00  0.00    +0.123 C 
ATOM      7  N   LIG    1        4.012  -2.342  -0.362  0.00  0.00    -0.293 N 
ATOM      8  C   LIG    1        3.742  -1.023  -0.303  0.00  0.00    +0.254 C 
ATOM      9  O   LIG    1        4.649  -0.222  -0.217  0.00  0.00    -0.272 OA
ENDROOT
BRANCH   4  10
ATOM     10  C   LIG    1        4.647  -5.913  -2.474  0.00  0.00    +0.119 C 
BRANCH  10  11
ATOM     11  C   LIG    1        3.764  -7.085  -2.128  0.00  0.00    -0.033 A 
ATOM     12  C   LIG    1        4.249  -8.101  -1.327  0.00  0.00    +0.008 A 
ATOM     13  C   LIG    1        3.439  -9.173  -1.004  0.00  0.00    +0.038 A 
ATOM     14  C   LIG    1        2.145  -9.235  -1.494  0.00  0.00    +0.123 A 
ATOM     15  F   LIG    1        1.354 -10.286  -1.184  0.00  0.00    -0.205 F 
ATOM     16  C   LIG    1        1.663  -8.219  -2.301  0.00  0.00    +0.038 A 
ATOM     17  C   LIG    1        2.473  -7.144  -2.617  0.00  0.00    +0.008 A 
ENDBRANCH  10  11
ENDBRANCH   4  10
BRANCH   8  18
ATOM     18  C   LIG    1        2.314  -0.544  -0.344  0.00  0.00    +0.324 C 
BRANCH  18  19
ATOM     19  O   LIG    1        2.288   0.883  -0.268  0.00  0.00    -0.481 OA
BRANCH  19  20
ATOM     20  C   LIG    1        1.067   1.481  -0.292  0.00  0.00    +0.142 A 
ATOM     21  C   LIG    1       -0.081   0.711  -0.387  0.00  0.00    +0.049 A 
ATOM     22  C   LIG    1       -1.322   1.320  -0.418  0.00  0.00    +0.024 A 
ATOM     23  C   LIG    1       -1.422   2.698  -0.343  0.00  0.00    +0.043 A 
ATOM     24 CL   LIG    1       -2.983   3.456  -0.375  0.00  0.00    -0.083 Cl
ATOM     25  C   LIG    1       -0.281   3.473  -0.248  0.00  0.00    +0.047 A 
ATOM     26  C   LIG    1        0.968   2.868  -0.222  0.00  0.00    +0.078 A 
BRANCH  26  27
ATOM     27  N   LIG    1        2.126   3.652  -0.126  0.00  0.00    -0.267 N 
ATOM     28  H   LIG    1        3.045   3.339  -0.643  0.00  0.00    +0.156 HD
ATOM     29  C   LIG    1        2.113   4.788   0.599  0.00  0.00    +0.301 C 
ATOM     30  N   LIG    1        3.249   5.494   0.765  0.00  0.00    -0.313 N 
ATOM     31  H   LIG    1        4.186   5.143   0.309  0.00  0.00    +0.146 HD
ATOM     32  H   LIG    1        3.238   6.421   1.357  0.00  0.00    +0.146 HD
ATOM     33  O   LIG    1        1.077   5.175   1.103  0.00  0.00    -0.253 OA
ENDBRANCH  26  27
ENDBRANCH  19  20
ENDBRANCH  18  19
ENDBRANCH   8  18
TORSDOF 6
