REMARK  Name = ZINC00006164
REMARK                            x       y       z     vdW  Elec       q    Type
REMARK                         _______ _______ _______ _____ _____    ______ ____
ROOT
ATOM      1  C   LIG    1       -0.019   1.526   0.010  0.00  0.00    -0.008 C 
ATOM      2  C   LIG    1        0.002  -0.004   0.002  0.00  0.00    -0.050 C 
ATOM      3  C   LIG    1        0.717  -0.498  -1.257  0.00  0.00    -0.008 C 
ATOM      4  C   LIG    1       -1.434  -0.534   0.015  0.00  0.00    +0.147 C 
ATOM      5  O   LIG    1       -1.408  -1.964   0.064  0.00  0.00    -0.379 OA
ATOM      6  C   LIG    1       -0.706  -2.487   1.194  0.00  0.00    +0.112 C 
ATOM      7  C   LIG    1        0.732  -1.960   1.183  0.00  0.00    -0.049 C 
ATOM      8  N   LIG    1        0.713  -0.491   1.192  0.00  0.00    +0.386 N 
ATOM      9  H   LIG    1        0.240  -0.166   2.023  0.00  0.00    -0.085 HD
ATOM     10  H   LIG    1        1.659  -0.142   1.185  0.00  0.00    -0.085 HD
ENDROOT
BRANCH   6  11
ATOM     11  C   LIG    1       -0.691  -4.015   1.124  0.00  0.00    +0.150 C 
BRANCH  11  12
ATOM     12  C   LIG    1       -2.099  -4.537   1.254  0.00  0.00    +0.307 C 
ATOM     13  O   LIG    1       -3.028  -3.759   1.389  0.00  0.00    -0.251 OA
BRANCH  12  14
ATOM     14  O   LIG    1       -2.309  -5.738   1.222  0.00  0.00    -0.481 OA
ATOM     15  H   LIG    1       -1.596  -6.336   1.118  0.00  0.00    +0.295 HD
ENDBRANCH  12  14
ENDBRANCH  11  12
ENDBRANCH   6  11
TORSDOF 3
