REMARK  Name = ZINC53293729
REMARK                            x       y       z     vdW  Elec       q    Type
REMARK                         _______ _______ _______ _____ _____    ______ ____
ROOT
ATOM      1  C   LIG    1       -2.604   0.383   4.947  0.00  0.00    +0.332 C 
ATOM      2  O   LIG    1       -3.627   0.168   4.324  0.00  0.00    -0.246 OA
ENDROOT
BRANCH   1   3
ATOM      3  C   LIG    1       -2.672   0.811   6.296  0.00  0.00    +0.092 C 
ATOM      4  C   LIG    1       -3.874   0.980   6.893  0.00  0.00    +0.015 C 
BRANCH   4   5
ATOM      5  C   LIG    1       -3.944   1.423   8.289  0.00  0.00    -0.017 A 
ATOM      6  C   LIG    1       -2.783   1.679   9.014  0.00  0.00    +0.008 A 
ATOM      7  C   LIG    1       -2.854   2.098  10.334  0.00  0.00    +0.001 A 
ATOM      8  C   LIG    1       -4.045   2.274  10.969  0.00  0.00    +0.008 A 
ATOM      9  C   LIG    1       -5.258   2.035  10.301  0.00  0.00    -0.017 A 
ATOM     10  C   LIG    1       -6.495   2.212  10.944  0.00  0.00    +0.008 A 
ATOM     11  C   LIG    1       -7.649   1.986  10.258  0.00  0.00    +0.001 A 
ATOM     12  C   LIG    1       -7.624   1.564   8.931  0.00  0.00    +0.001 A 
ATOM     13  C   LIG    1       -6.441   1.376   8.278  0.00  0.00    +0.009 A 
ATOM     14  C   LIG    1       -5.236   1.611   8.950  0.00  0.00    -0.011 A 
ENDBRANCH   4   5
ENDBRANCH   1   3
BRANCH   1  15
ATOM     15  O   LIG    1       -1.404   0.214   4.352  0.00  0.00    -0.460 OA
BRANCH  15  16
ATOM     16  C   LIG    1       -1.410  -0.219   2.990  0.00  0.00    +0.254 C 
BRANCH  16  17
ATOM     17  C   LIG    1        0.030  -0.353   2.491  0.00  0.00    +0.166 C 
BRANCH  17  23
ATOM     18  C   LIG    1       -0.018   1.503   0.010  0.00  0.00    +0.086 C 
ATOM     19  C   LIG    1        0.002  -0.004   0.002  0.00  0.00    +0.108 A 
ATOM     20  N   LIG    1        0.008  -0.759  -1.063  0.00  0.00    -0.239 NA
ATOM     21  C   LIG    1        0.028  -2.047  -0.691  0.00  0.00    +0.164 A 
ATOM     22  C   LIG    1        0.035  -2.093   0.655  0.00  0.00    +0.211 A 
ATOM     23  N   LIG    1        0.023  -0.797   1.095  0.00  0.00    -0.306 N 
BRANCH  22  24
ATOM     24  N   LIG    1        0.055  -3.311   1.496  0.00  0.00    +0.025 N 
ATOM     25  O   LIG    1        0.069  -4.403   0.979  0.00  0.00    -0.128 OA
BRANCH  24  26
ATOM     26  O   LIG    1        0.059  -3.213   2.701  0.00  0.00    -0.395 OA
ATOM     27  H   LIG    1        0.048  -2.366   3.103  0.00  0.00    +0.329 HD
ENDBRANCH  24  26
ENDBRANCH  22  24
ENDBRANCH  17  23
ENDBRANCH  16  17
ENDBRANCH  15  16
ENDBRANCH   1  15
TORSDOF 8
