REMARK  Name = ZINC26025260
REMARK                            x       y       z     vdW  Elec       q    Type
REMARK                         _______ _______ _______ _____ _____    ______ ____
ROOT
ATOM      1  N   LIG    1       -1.214  -0.695   0.065  0.00  0.00    -0.280 N 
ATOM      2  H   LIG    1       -2.158  -0.141   0.177  0.00  0.00    +0.155 HD
ATOM      3  C   LIG    1       -1.228  -2.041  -0.013  0.00  0.00    +0.218 C 
ATOM      4  O   LIG    1       -0.184  -2.657  -0.047  0.00  0.00    -0.275 OA
ENDROOT
BRANCH   1   7
ATOM      5  C   LIG    1       -0.548   0.985   2.193  0.00  0.00    +0.037 C 
ATOM      6  C   LIG    1        0.360   0.810   1.003  0.00  0.00    +0.000 C 
ATOM      7  CA  LIG    1        0.003  -0.002   0.004  0.00  0.00    +0.114 C 
BRANCH   7   8
ATOM      8  C   LIG    1        0.888  -0.169  -1.163  0.00  0.00    +0.351 C 
ATOM      9  O   LIG    1        0.521  -0.830  -2.114  0.00  0.00    -0.244 OA
BRANCH   8  10
ATOM     10  OXT LIG    1        2.104   0.412  -1.174  0.00  0.00    -0.476 OA
ATOM     11  HXT LIG    1        2.387   0.922  -0.441  0.00  0.00    +0.295 HD
ENDBRANCH   8  10
ENDBRANCH   7   8
ENDBRANCH   1   7
BRANCH   3  12
ATOM     12  C   LIG    1       -2.541  -2.779  -0.059  0.00  0.00    +0.099 C 
BRANCH  12  13
ATOM     13  C   LIG    1       -2.276  -4.284  -0.146  0.00  0.00    -0.008 C 
ATOM     14  C   LIG    1       -3.604  -5.025  -0.318  0.00  0.00    +0.008 C 
ATOM     15  C   LIG    1       -1.591  -4.756   1.138  0.00  0.00    +0.008 C 
ENDBRANCH  12  13
ENDBRANCH   3  12
TORSDOF 5
