REMARK  Name = ZINC40556749
REMARK                            x       y       z     vdW  Elec       q    Type
REMARK                         _______ _______ _______ _____ _____    ______ ____
ROOT
ATOM      1  C   LIG    1       -0.555  -1.060   2.387  0.00  0.00    +0.125 A 
ATOM      2  C   LIG    1        0.208  -1.462   3.471  0.00  0.00    +0.059 A 
ATOM      3  C   LIG    1       -0.412  -1.764   4.684  0.00  0.00    +0.044 A 
ATOM      4  C   LIG    1       -1.798  -1.659   4.800  0.00  0.00    +0.059 A 
ATOM      5  C   LIG    1       -2.554  -1.257   3.711  0.00  0.00    +0.125 A 
ATOM      6  C   LIG    1       -1.933  -0.953   2.508  0.00  0.00    +0.091 A 
ENDROOT
BRANCH   3   7
ATOM      7  C   LIG    1        0.399  -2.193   5.844  0.00  0.00    +0.250 C 
ATOM      8  N   LIG    1       -0.202  -2.484   7.015  0.00  0.00    -0.266 N 
ATOM      9  H   LIG    1       -1.169  -2.484   7.077  0.00  0.00    +0.157 HD
ATOM     10  O   LIG    1        1.607  -2.283   5.741  0.00  0.00    -0.270 OA
BRANCH   8  11
ATOM     11  C   LIG    1        0.565  -2.784   8.132  0.00  0.00    +0.125 A 
ATOM     12  C   LIG    1       -0.063  -3.196   9.305  0.00  0.00    +0.044 A 
ATOM     13  C   LIG    1        0.696  -3.492  10.405  0.00  0.00    +0.020 A 
ATOM     14  C   LIG    1        2.091  -3.369  10.309  0.00  0.00    +0.077 A 
ATOM     15  C   LIG    1        2.653  -2.950   9.100  0.00  0.00    +0.127 A 
ATOM     16  N   LIG    1        1.885  -2.680   8.065  0.00  0.00    -0.239 NA
BRANCH  14  17
ATOM     17  C   LIG    1        2.950  -3.675  11.465  0.00  0.00    +0.338 C 
ATOM     18  O   LIG    1        2.449  -4.041  12.520  0.00  0.00    -0.245 OA
BRANCH  17  19
ATOM     19  O   LIG    1        4.165  -3.564  11.371  0.00  0.00    -0.477 OA
ATOM     20  H   LIG    1        4.549  -3.284  10.564  0.00  0.00    +0.295 HD
ENDBRANCH  17  19
ENDBRANCH  14  17
ENDBRANCH   8  11
ENDBRANCH   3   7
BRANCH   1  21
ATOM     21  O   LIG    1        0.047  -0.765   1.205  0.00  0.00    -0.489 OA
BRANCH  21  23
ATOM     22  C   LIG    1        1.738  -2.447   0.815  0.00  0.00    +0.052 C 
ATOM     23  C   LIG    1        1.458  -0.975   1.126  0.00  0.00    +0.175 C 
BRANCH  23  24
ATOM     24  C   LIG    1        2.043  -0.099   0.017  0.00  0.00    +0.079 C 
BRANCH  24  25
ATOM     25  C   LIG    1        1.876   1.353   0.383  0.00  0.00    -0.044 A 
ATOM     26  C   LIG    1        0.733   2.034   0.008  0.00  0.00    +0.004 A 
ATOM     27  C   LIG    1        0.579   3.366   0.344  0.00  0.00    +0.000 A 
ATOM     28  C   LIG    1        1.569   4.018   1.056  0.00  0.00    +0.000 A 
ATOM     29  C   LIG    1        2.712   3.337   1.432  0.00  0.00    +0.000 A 
ATOM     30  C   LIG    1        2.863   2.004   1.099  0.00  0.00    +0.004 A 
ENDBRANCH  24  25
ENDBRANCH  23  24
ENDBRANCH  21  23
ENDBRANCH   1  21
BRANCH   5  31
ATOM     31  O   LIG    1       -3.905  -1.156   3.823  0.00  0.00    -0.487 OA
BRANCH  31  32
ATOM     32  C   LIG    1       -4.629  -0.815   2.640  0.00  0.00    +0.196 C 
ATOM     33  C   LIG    1       -4.869  -2.076   1.807  0.00  0.00    +0.054 C 
BRANCH  32  34
ATOM     34  C   LIG    1       -5.974  -0.195   3.026  0.00  0.00    +0.203 C 
BRANCH  34  35
ATOM     35  O   LIG    1       -6.775  -1.173   3.691  0.00  0.00    -0.379 OA
ATOM     36  C   LIG    1       -8.059  -0.694   4.097  0.00  0.00    +0.194 C 
ENDBRANCH  34  35
ENDBRANCH  32  34
ENDBRANCH  31  32
ENDBRANCH   5  31
TORSDOF 12
