REMARK  Name = ZINC33313731
REMARK                            x       y       z     vdW  Elec       q    Type
REMARK                         _______ _______ _______ _____ _____    ______ ____
ROOT
ATOM      1  C   LIG    1       -2.500   0.984   0.216  0.00  0.00    +0.028 C 
ATOM      2  C   LIG    1       -2.485  -0.357   0.012  0.00  0.00    +0.077 C 
ATOM      3  C   LIG    1       -3.613  -1.306  -0.096  0.00  0.00    +0.263 C 
ATOM      4  N   LIG    1       -3.301  -2.575  -0.303  0.00  0.00    -0.224 N 
ATOM      5  C   LIG    1       -2.018  -2.978  -0.399  0.00  0.00    +0.125 C 
ATOM      6  S   LIG    1       -1.417  -4.561  -0.656  0.00  0.00    -0.027 S 
ATOM      7  O   LIG    1       -4.769  -0.939  -0.003  0.00  0.00    -0.269 OA
ATOM      8  S   LIG    1       -1.096  -1.463  -0.193  0.00  0.00    -0.061 S 
ENDROOT
BRANCH   1  11
ATOM      9  C   LIG    1       -0.054   3.822   0.446  0.00  0.00    +0.001 A 
ATOM     10  C   LIG    1       -1.228   3.100   0.518  0.00  0.00    +0.008 A 
ATOM     11  C   LIG    1       -1.250   1.754   0.134  0.00  0.00    -0.023 A 
ATOM     12  C   LIG    1       -0.083   1.147  -0.335  0.00  0.00    +0.023 A 
ATOM     13  C   LIG    1        1.097   1.883  -0.403  0.00  0.00    +0.059 A 
ATOM     14  C   LIG    1        1.105   3.225  -0.010  0.00  0.00    +0.015 A 
BRANCH  13  15
ATOM     15  C   LIG    1        2.339   1.248  -0.890  0.00  0.00    +0.337 C 
ATOM     16  O   LIG    1        2.332   0.082  -1.232  0.00  0.00    -0.245 OA
BRANCH  15  17
ATOM     17  O   LIG    1        3.480   1.962  -0.956  0.00  0.00    -0.477 OA
ATOM     18  H   LIG    1        3.486   2.861  -0.692  0.00  0.00    +0.295 HD
ENDBRANCH  15  17
ENDBRANCH  13  15
ENDBRANCH   1  11
BRANCH   4  19
ATOM     19  C   LIG    1       -4.327  -3.522  -0.419  0.00  0.00    +0.043 A 
ATOM     20  C   LIG    1       -4.532  -4.452   0.592  0.00  0.00    +0.024 A 
ATOM     21  C   LIG    1       -5.544  -5.384   0.475  0.00  0.00    +0.002 A 
ATOM     22  C   LIG    1       -6.353  -5.392  -0.647  0.00  0.00    +0.012 A 
ATOM     23  C   LIG    1       -6.152  -4.467  -1.654  0.00  0.00    +0.057 A 
ATOM     24  C   LIG    1       -5.143  -3.529  -1.541  0.00  0.00    +0.036 A 
BRANCH  23  25
ATOM     25  C   LIG    1       -7.036  -4.478  -2.875  0.00  0.00    +0.417 C 
ATOM     26  F   LIG    1       -6.253  -4.689  -4.015  0.00  0.00    -0.166 F 
ATOM     27  F   LIG    1       -7.697  -3.250  -2.983  0.00  0.00    -0.166 F 
ATOM     28  F   LIG    1       -7.978  -5.506  -2.759  0.00  0.00    -0.166 F 
ENDBRANCH  23  25
ENDBRANCH   4  19
TORSDOF 5
