REMARK  Name = ZINC49778018
REMARK                            x       y       z     vdW  Elec       q    Type
REMARK                         _______ _______ _______ _____ _____    ______ ____
ROOT
ATOM      1  C   LIG    1        6.849  -1.128   0.788  0.00  0.00    +0.048 A 
ATOM      2  C   LIG    1        6.570  -0.244  -0.248  0.00  0.00    +0.025 A 
ATOM      3  C   LIG    1        7.543   0.624  -0.695  0.00  0.00    +0.011 A 
ATOM      4  C   LIG    1        8.808   0.615  -0.108  0.00  0.00    -0.006 A 
ATOM      5  C   LIG    1        9.085  -0.272   0.931  0.00  0.00    +0.064 A 
ATOM      6  C   LIG    1        8.107  -1.135   1.379  0.00  0.00    +0.037 A 
ENDROOT
BRANCH   4   7
ATOM      7  C   LIG    1        9.857   1.548  -0.588  0.00  0.00    -0.017 A 
ATOM      8  C   LIG    1       11.058   1.043  -1.101  0.00  0.00    +0.010 A 
ATOM      9  C   LIG    1       12.033   1.886  -1.547  0.00  0.00    +0.029 A 
ATOM     10  C   LIG    1       11.843   3.265  -1.496  0.00  0.00    +0.075 A 
ATOM     11  C   LIG    1       10.639   3.787  -0.982  0.00  0.00    +0.021 A 
ATOM     12  C   LIG    1       10.753   5.240  -1.064  0.00  0.00    +0.143 A 
ATOM     13  N   LIG    1       11.916   5.520  -1.579  0.00  0.00    -0.174 NA
ATOM     14  N   LIG    1       12.616   4.342  -1.857  0.00  0.00    -0.232 N 
ATOM     15  C   LIG    1        9.642   2.916  -0.532  0.00  0.00    +0.020 A 
BRANCH  14  16
ATOM     16  C   LIG    1       13.899   4.270  -2.416  0.00  0.00    +0.066 A 
ATOM     17  C   LIG    1       14.771   3.263  -2.026  0.00  0.00    +0.030 A 
ATOM     18  C   LIG    1       16.035   3.194  -2.578  0.00  0.00    +0.040 A 
ATOM     19  C   LIG    1       16.433   4.130  -3.519  0.00  0.00    +0.124 A 
ATOM     20  F   LIG    1       17.670   4.061  -4.057  0.00  0.00    -0.205 F 
ATOM     21  C   LIG    1       15.564   5.135  -3.908  0.00  0.00    +0.040 A 
ATOM     22  C   LIG    1       14.297   5.204  -3.363  0.00  0.00    +0.030 A 
ENDBRANCH  14  16
ENDBRANCH   4   7
BRANCH   5  23
ATOM     23  C   LIG    1       10.451  -0.284   1.568  0.00  0.00    +0.418 C 
ATOM     24  F   LIG    1       10.753   0.995   2.048  0.00  0.00    -0.166 F 
ATOM     25  F   LIG    1       11.405  -0.663   0.618  0.00  0.00    -0.166 F 
ATOM     26  F   LIG    1       10.462  -1.196   2.629  0.00  0.00    -0.166 F 
ENDBRANCH   5  23
BRANCH   1  27
ATOM     27  N   LIG    1        5.862  -2.006   1.240  0.00  0.00    -0.220 N 
ATOM     28  H   LIG    1        5.905  -2.946   1.003  0.00  0.00    +0.173 HD
BRANCH  27  29
ATOM     29  S   LIG    1        4.619  -1.444   2.178  0.00  0.00    +0.047 S 
ATOM     30  O   LIG    1        4.080  -0.350   1.448  0.00  0.00    -0.155 OA
ATOM     31  O   LIG    1        3.828  -2.590   2.457  0.00  0.00    -0.155 OA
BRANCH  29  32
ATOM     32  C   LIG    1        5.414  -0.849   3.697  0.00  0.00    +0.223 C 
BRANCH  32  36
ATOM     33  C   LIG    1        2.463   0.833   6.286  0.00  0.00    +0.000 A 
ATOM     34  C   LIG    1        2.773  -0.511   6.373  0.00  0.00    +0.000 A 
ATOM     35  C   LIG    1        3.728  -1.056   5.535  0.00  0.00    +0.005 A 
ATOM     36  C   LIG    1        4.372  -0.256   4.610  0.00  0.00    -0.025 A 
ATOM     37  C   LIG    1        4.061   1.088   4.522  0.00  0.00    +0.005 A 
ATOM     38  C   LIG    1        3.107   1.633   5.361  0.00  0.00    +0.000 A 
ENDBRANCH  32  36
ENDBRANCH  29  32
ENDBRANCH  27  29
ENDBRANCH   1  27
TORSDOF 7
