REMARK  Name = ZINC43013338
REMARK                            x       y       z     vdW  Elec       q    Type
REMARK                         _______ _______ _______ _____ _____    ______ ____
ROOT
ATOM      1  C   LIG    1        0.136   1.297   0.353  0.00  0.00    +0.027 C 
ATOM      2  C   LIG    1        0.165  -0.215   0.588  0.00  0.00    +0.094 C 
ATOM      3  C   LIG    1       -1.269  -0.748   0.690  0.00  0.00    +0.125 C 
ATOM      4  N   LIG    1       -1.857  -0.275   1.952  0.00  0.00    -0.327 N 
ATOM      5  C   LIG    1       -1.157  -0.565   3.211  0.00  0.00    +0.122 C 
ATOM      6  C   LIG    1        0.277  -0.032   3.109  0.00  0.00    +0.128 C 
ATOM      7  N   LIG    1        0.868  -0.505   1.846  0.00  0.00    -0.171 NA
ENDROOT
BRANCH   4   8
ATOM      8  C   LIG    1       -3.060   0.438   1.953  0.00  0.00    +0.042 A 
ATOM      9  C   LIG    1       -3.045   1.827   1.966  0.00  0.00    +0.026 A 
ATOM     10  C   LIG    1       -4.234   2.529   1.967  0.00  0.00    +0.040 A 
ATOM     11  C   LIG    1       -5.441   1.849   1.956  0.00  0.00    +0.124 A 
ATOM     12  F   LIG    1       -6.603   2.538   1.957  0.00  0.00    -0.205 F 
ATOM     13  C   LIG    1       -5.458   0.465   1.943  0.00  0.00    +0.052 A 
ATOM     14  C   LIG    1       -4.271  -0.241   1.936  0.00  0.00    +0.078 A 
BRANCH  14  15
ATOM     15  C   LIG    1       -4.290  -1.748   1.916  0.00  0.00    +0.419 C 
ATOM     16  F   LIG    1       -3.538  -2.239   2.989  0.00  0.00    -0.166 F 
ATOM     17  F   LIG    1       -3.739  -2.205   0.714  0.00  0.00    -0.166 F 
ATOM     18  F   LIG    1       -5.610  -2.199   2.026  0.00  0.00    -0.166 F 
ENDBRANCH  14  15
ENDBRANCH   4   8
BRANCH   7  19
ATOM     19  S   LIG    1        2.292  -1.350   1.840  0.00  0.00    +0.063 S 
ATOM     20  O   LIG    1        2.303  -2.120   0.645  0.00  0.00    -0.153 OA
ATOM     21  O   LIG    1        2.421  -1.939   3.126  0.00  0.00    -0.153 OA
BRANCH  19  22
ATOM     22  C   LIG    1        3.596  -0.174   1.692  0.00  0.00    +0.124 A 
ATOM     23  C   LIG    1        4.501  -0.015   2.727  0.00  0.00    +0.031 A 
ATOM     24  C   LIG    1        5.524   0.904   2.618  0.00  0.00    +0.015 A 
ATOM     25  C   LIG    1        5.646   1.675   1.461  0.00  0.00    +0.038 A 
ATOM     26  C   LIG    1        4.730   1.511   0.420  0.00  0.00    +0.035 A 
ATOM     27  C   LIG    1        3.714   0.584   0.539  0.00  0.00    +0.068 A 
ATOM     28 CL   LIG    1        2.578   0.372  -0.756  0.00  0.00    -0.082 Cl
BRANCH  25  29
ATOM     29  C   LIG    1        6.740   2.662   1.338  0.00  0.00    +0.242 C 
ATOM     30  N   LIG    1        6.855   3.405   0.220  0.00  0.00    -0.325 N 
ATOM     31  H   LIG    1        7.572   4.053   0.139  0.00  0.00    +0.145 HD
ATOM     32  H   LIG    1        6.220   3.292  -0.505  0.00  0.00    +0.145 HD
ATOM     33  O   LIG    1        7.535   2.803   2.246  0.00  0.00    -0.270 OA
ENDBRANCH  25  29
ENDBRANCH  19  22
ENDBRANCH   7  19
TORSDOF 5
