REMARK  Name = ZINC26460911
REMARK                            x       y       z     vdW  Elec       q    Type
REMARK                         _______ _______ _______ _____ _____    ______ ____
ROOT
ATOM      1  C   LIG    1       -2.393  -0.045   0.029  0.00  0.00    +0.002 A 
ATOM      2  C   LIG    1       -2.415   1.337   0.035  0.00  0.00    +0.004 A 
ATOM      3  C   LIG    1       -1.232   2.055   0.031  0.00  0.00    +0.048 A 
ATOM      4  C   LIG    1       -0.017   1.389   0.010  0.00  0.00    +0.150 A 
ATOM      5  C   LIG    1        0.002  -0.004   0.002  0.00  0.00    +0.074 A 
ATOM      6  N   LIG    1        1.237  -0.673  -0.020  0.00  0.00    -0.309 N 
ATOM      7  H   LIG    1        1.284  -1.749   0.205  0.00  0.00    +0.152 HD
ATOM      8  C   LIG    1        2.382   0.079  -0.334  0.00  0.00    +0.075 A 
ATOM      9  C   LIG    1        3.566  -0.552  -0.655  0.00  0.00    +0.042 A 
ATOM     10  C   LIG    1        4.696   0.211  -0.969  0.00  0.00    +0.061 A 
ATOM     11  C   LIG    1        4.615   1.606  -0.955  0.00  0.00    +0.018 A 
ATOM     12  C   LIG    1        3.429   2.228  -0.632  0.00  0.00    +0.049 A 
ATOM     13  C   LIG    1        2.306   1.474  -0.319  0.00  0.00    +0.150 A 
ATOM     14  O   LIG    1        1.143   2.094   0.002  0.00  0.00    -0.452 OA
ATOM     15  C   LIG    1       -1.183  -0.718   0.013  0.00  0.00    +0.027 A 
ENDROOT
BRANCH  10  16
ATOM     16  C   LIG    1        5.966  -0.454  -1.312  0.00  0.00    +0.337 C 
ATOM     17  O   LIG    1        6.034  -1.667  -1.323  0.00  0.00    -0.245 OA
BRANCH  16  18
ATOM     18  O   LIG    1        7.053   0.284  -1.614  0.00  0.00    -0.477 OA
ATOM     19  H   LIG    1        7.001   1.220  -1.606  0.00  0.00    +0.295 HD
ENDBRANCH  16  18
ENDBRANCH  10  16
TORSDOF 2
