REMARK  Name = ZINC66252178
REMARK                            x       y       z     vdW  Elec       q    Type
REMARK                         _______ _______ _______ _____ _____    ______ ____
ROOT
ATOM      1  C   LIG    1       -0.017   1.395   0.010  0.00  0.00    +0.035 A 
ATOM      2  C   LIG    1        1.205   2.065   0.002  0.00  0.00    +0.089 A 
ATOM      3  C   LIG    1        2.397   1.320  -0.013  0.00  0.00    +0.149 A 
ATOM      4 CL   LIG    1        3.919   2.155  -0.022  0.00  0.00    -0.061 Cl
ATOM      5  N   LIG    1        2.387   0.010  -0.020  0.00  0.00    -0.215 NA
ATOM      6  C   LIG    1        1.244  -0.687  -0.014  0.00  0.00    +0.163 A 
ATOM      7  N   LIG    1        1.258  -2.019  -0.025  0.00  0.00    -0.232 NA
ATOM      8  C   LIG    1        0.152  -2.748  -0.023  0.00  0.00    +0.049 A 
ATOM      9  C   LIG    1        0.322  -4.247  -0.056  0.00  0.00    +0.056 C 
ATOM     10  C   LIG    1       -0.962  -4.943   0.388  0.00  0.00    +0.006 C 
ATOM     11  C   LIG    1       -2.128  -4.379  -0.432  0.00  0.00    +0.005 C 
ATOM     12  C   LIG    1       -2.376  -2.939   0.015  0.00  0.00    +0.039 C 
ATOM     13  C   LIG    1       -1.094  -2.151  -0.001  0.00  0.00    -0.005 A 
ATOM     14  C   LIG    1       -1.191  -0.761   0.011  0.00  0.00    +0.040 A 
ATOM     15  C   LIG    1        0.002  -0.004   0.002  0.00  0.00    +0.041 A 
ENDROOT
BRANCH  14  16
ATOM     16  N   LIG    1       -2.427  -0.137   0.032  0.00  0.00    -0.357 N 
ATOM     17  H   LIG    1       -3.238  -0.668   0.038  0.00  0.00    +0.142 HD
ATOM     18  H   LIG    1       -2.481   0.831   0.041  0.00  0.00    +0.142 HD
ENDBRANCH  14  16
BRANCH   2  19
ATOM     19  C   LIG    1        1.245   3.497   0.008  0.00  0.00    +0.102 C 
ATOM     20  N   LIG    1        1.278   4.632   0.012  0.00  0.00    -0.191 NA
ENDBRANCH   2  19
TORSDOF 2
