REMARK  Name = ZINC40977166
REMARK                            x       y       z     vdW  Elec       q    Type
REMARK                         _______ _______ _______ _____ _____    ______ ____
ROOT
ATOM      1  C   LIG    1       -0.134   1.136   0.266  0.00  0.00    +0.000 A 
ATOM      2  C   LIG    1        1.009   1.910   0.184  0.00  0.00    +0.001 A 
ATOM      3  C   LIG    1        2.249   1.309   0.092  0.00  0.00    +0.010 A 
ATOM      4  C   LIG    1        2.341  -0.079   0.089  0.00  0.00    +0.004 A 
ATOM      5  C   LIG    1        1.188  -0.856   0.193  0.00  0.00    -0.038 A 
ATOM      6  C   LIG    1        1.314  -2.353   0.257  0.00  0.00    +0.036 C 
ATOM      7  C   LIG    1        1.575  -2.945  -1.124  0.00  0.00    +0.009 C 
ATOM      8  C   LIG    1        2.626  -2.127  -1.873  0.00  0.00    +0.041 C 
ATOM      9  C   LIG    1        3.784  -1.782  -0.980  0.00  0.00    +0.019 A 
ATOM     10  C   LIG    1        4.999  -2.450  -1.069  0.00  0.00    +0.130 A 
ATOM     11  N   LIG    1        5.993  -2.077  -0.265  0.00  0.00    -0.199 NA
ATOM     12  C   LIG    1        5.835  -1.088   0.602  0.00  0.00    +0.215 A 
ATOM     13  N   LIG    1        4.686  -0.437   0.721  0.00  0.00    -0.214 NA
ATOM     14  C   LIG    1        3.647  -0.764  -0.040  0.00  0.00    +0.081 A 
ATOM     15  C   LIG    1       -0.046  -0.245   0.268  0.00  0.00    +0.004 A 
ENDROOT
BRANCH  10  16
ATOM     16  N   LIG    1        5.173  -3.485  -1.975  0.00  0.00    -0.316 N 
ATOM     17  C   LIG    1        5.646  -3.340  -3.363  0.00  0.00    +0.105 C 
ATOM     18  C   LIG    1        6.248  -4.721  -3.723  0.00  0.00    +0.004 C 
ATOM     19  C   LIG    1        5.274  -5.685  -2.995  0.00  0.00    -0.056 C 
ATOM     20  C   LIG    1        4.921  -4.909  -1.708  0.00  0.00    +0.090 C 
BRANCH  19  21
ATOM     21  N   LIG    1        5.942  -6.952  -2.671  0.00  0.00    +0.381 N 
ATOM     22  H   LIG    1        6.239  -7.404  -3.523  0.00  0.00    -0.090 HD
ATOM     23  H   LIG    1        5.300  -7.554  -2.177  0.00  0.00    -0.090 HD
ATOM     24  H   LIG    1        6.747  -6.769  -2.089  0.00  0.00    -0.090 HD
ENDBRANCH  19  21
ENDBRANCH  10  16
BRANCH  12  25
ATOM     25  N   LIG    1        6.900  -0.723   1.406  0.00  0.00    -0.327 N 
ATOM     26  H   LIG    1        7.747  -1.189   1.331  0.00  0.00    +0.145 HD
ATOM     27  H   LIG    1        6.800   0.000   2.045  0.00  0.00    +0.145 HD
ENDBRANCH  12  25
TORSDOF 3
