REMARK  Name = ZINC26748290
REMARK                            x       y       z     vdW  Elec       q    Type
REMARK                         _______ _______ _______ _____ _____    ______ ____
ROOT
ATOM      1  C   LIG    1       -5.120   1.497   0.035  0.00  0.00    +0.001 A 
ATOM      2  C   LIG    1       -5.856   2.637   0.045  0.00  0.00    +0.091 A 
ATOM      3  N   LIG    1       -5.027   3.722   0.047  0.00  0.00    -0.360 N 
ATOM      4  C   LIG    1       -3.713   3.318   0.039  0.00  0.00    +0.047 A 
ATOM      5  C   LIG    1       -2.505   4.013   0.037  0.00  0.00    +0.027 A 
ATOM      6  C   LIG    1       -1.322   3.333   0.032  0.00  0.00    +0.015 A 
ATOM      7  C   LIG    1       -1.303   1.932   0.019  0.00  0.00    +0.037 A 
ATOM      8  C   LIG    1       -2.499   1.220   0.021  0.00  0.00    +0.023 A 
ATOM      9  H   LIG    1       -5.450   4.737   0.055  0.00  0.00    +0.165 HD
ATOM     10  C   LIG    1       -3.705   1.910   0.030  0.00  0.00    +0.008 A 
ENDROOT
BRANCH   1  17
ATOM     11  C   LIG    1       -7.466  -2.270   2.266  0.00  0.00    -0.096 C 
ATOM     12  N   LIG    1       -7.011  -1.635   1.022  0.00  0.00    +0.381 N 
ATOM     13  H   LIG    1       -7.905  -1.319   0.464  0.00  0.00    -0.082 HD
ATOM     14  C   LIG    1       -6.252  -2.586   0.192  0.00  0.00    -0.075 C 
ATOM     15  C   LIG    1       -6.083  -1.984  -1.206  0.00  0.00    +0.009 C 
ATOM     16  C   LIG    1       -5.579  -0.573  -1.092  0.00  0.00    -0.026 C 
ATOM     17  C   LIG    1       -5.635   0.114   0.030  0.00  0.00    -0.059 C 
ATOM     18  C   LIG    1       -6.193  -0.448   1.306  0.00  0.00    -0.043 C 
ENDBRANCH   1  17
BRANCH   7  19
ATOM     19  C   LIG    1       -0.014   1.212   0.009  0.00  0.00    +0.242 C 
ATOM     20  N   LIG    1        1.143   1.901   0.001  0.00  0.00    -0.325 N 
ATOM     21  H   LIG    1        1.129   3.001   0.003  0.00  0.00    +0.145 HD
ATOM     22  H   LIG    1        2.103   1.364  -0.006  0.00  0.00    +0.145 HD
ATOM     23  O   LIG    1        0.002  -0.004   0.002  0.00  0.00    -0.270 OA
ENDBRANCH   7  19
TORSDOF 2
