REMARK  Name = ZINC22455064
REMARK                            x       y       z     vdW  Elec       q    Type
REMARK                         _______ _______ _______ _____ _____    ______ ____
ROOT
ATOM      1  N   LIG    1       -0.090   5.844  -1.351  0.00  0.00    +0.384 N 
ATOM      2  H   LIG    1       -0.913   5.339  -1.879  0.00  0.00    -0.081 HD
ATOM      3  C   LIG    1        1.163   5.519  -2.046  0.00  0.00    -0.063 C 
ATOM      4  C   LIG    1        1.071   5.982  -3.502  0.00  0.00    +0.066 C 
ATOM      5  N   LIG    1        0.813   7.428  -3.538  0.00  0.00    -0.300 NA
ATOM      6  C   LIG    1       -0.441   7.754  -2.843  0.00  0.00    +0.066 C 
ATOM      7  C   LIG    1       -0.349   7.290  -1.387  0.00  0.00    -0.063 C 
ENDROOT
BRANCH   1   8
ATOM      8  C   LIG    1       -0.070   5.347   0.031  0.00  0.00    -0.043 C 
BRANCH   8  12
ATOM      9  C   LIG    1       -0.013   1.076   0.008  0.00  0.00    +0.000 A 
ATOM     10  C   LIG    1       -1.219   1.751   0.017  0.00  0.00    +0.000 A 
ATOM     11  C   LIG    1       -1.238   3.133   0.030  0.00  0.00    +0.002 A 
ATOM     12  C   LIG    1       -0.050   3.840   0.023  0.00  0.00    -0.064 A 
ATOM     13  C   LIG    1        1.156   3.165   0.008  0.00  0.00    +0.002 A 
ATOM     14  C   LIG    1        1.175   1.783   0.000  0.00  0.00    +0.000 A 
ENDBRANCH   8  12
ENDBRANCH   1   8
BRANCH   5  15
ATOM     15  C   LIG    1        0.793   7.925  -4.920  0.00  0.00    +0.140 C 
BRANCH  15  16
ATOM     16  C   LIG    1        1.974   7.367  -5.671  0.00  0.00    +0.063 A 
ATOM     17  C   LIG    1        1.835   6.240  -6.419  0.00  0.00    +0.071 A 
ATOM     18  S   LIG    1        3.498   6.059  -7.053  0.00  0.00    -0.075 S 
ATOM     19  C   LIG    1        4.194   7.500  -6.256  0.00  0.00    +0.109 A 
ATOM     20  N   LIG    1        3.137   7.972  -5.610  0.00  0.00    -0.243 NA
BRANCH  19  21
ATOM     21  C   LIG    1        5.574   8.026  -6.309  0.00  0.00    +0.007 A 
ATOM     22  C   LIG    1        5.910   9.184  -5.606  0.00  0.00    +0.010 A 
ATOM     23  C   LIG    1        7.201   9.668  -5.656  0.00  0.00    +0.001 A 
ATOM     24  C   LIG    1        8.160   9.013  -6.408  0.00  0.00    +0.000 A 
ATOM     25  C   LIG    1        7.832   7.867  -7.111  0.00  0.00    +0.001 A 
ATOM     26  C   LIG    1        6.546   7.370  -7.066  0.00  0.00    +0.010 A 
ENDBRANCH  19  21
ENDBRANCH  15  16
ENDBRANCH   5  15
TORSDOF 5
