REMARK  Name = ZINC20149036
REMARK                            x       y       z     vdW  Elec       q    Type
REMARK                         _______ _______ _______ _____ _____    ______ ____
ROOT
ATOM      1  C   LIG    1        3.527  -2.480   1.481  0.00  0.00    +0.109 A 
ATOM      2  C   LIG    1        4.356  -1.375   1.569  0.00  0.00    +0.031 A 
ATOM      3  C   LIG    1        4.995  -1.082   2.756  0.00  0.00    +0.029 A 
ATOM      4  C   LIG    1        4.803  -1.903   3.870  0.00  0.00    +0.064 A 
ATOM      5  C   LIG    1        3.965  -3.016   3.773  0.00  0.00    +0.029 A 
ATOM      6  C   LIG    1        3.328  -3.294   2.582  0.00  0.00    +0.031 A 
ENDROOT
BRANCH   1   7
ATOM      7  S   LIG    1        2.714  -2.847  -0.039  0.00  0.00    +0.073 S 
ATOM      8  O   LIG    1        3.490  -2.249  -1.069  0.00  0.00    -0.150 OA
ATOM      9  O   LIG    1        2.419  -4.236  -0.017  0.00  0.00    -0.150 OA
BRANCH   7  10
ATOM     10  N   LIG    1        1.260  -2.054  -0.021  0.00  0.00    -0.199 N 
ATOM     11  H   LIG    1        0.432  -2.559  -0.016  0.00  0.00    +0.175 HD
BRANCH  10  16
ATOM     12  C   LIG    1       -0.017   1.379   0.010  0.00  0.00    +0.005 A 
ATOM     13  C   LIG    1        1.195   2.058   0.002  0.00  0.00    +0.020 A 
ATOM     14  C   LIG    1        2.373   1.339  -0.013  0.00  0.00    +0.113 A 
ATOM     15  N   LIG    1        2.361   0.020  -0.020  0.00  0.00    -0.239 NA
ATOM     16  C   LIG    1        1.227  -0.664  -0.013  0.00  0.00    +0.138 A 
ATOM     17  C   LIG    1        0.002  -0.004   0.002  0.00  0.00    +0.045 A 
ENDBRANCH  10  16
ENDBRANCH   7  10
ENDBRANCH   1   7
BRANCH   4  18
ATOM     18  N   LIG    1        5.434  -1.618   5.050  0.00  0.00    -0.255 NA
ATOM     19  C   LIG    1        4.770  -1.673   6.177  0.00  0.00    +0.125 C 
BRANCH  19  20
ATOM     20  C   LIG    1        5.423  -1.378   7.399  0.00  0.00    +0.063 A 
ATOM     21  C   LIG    1        4.826  -1.398   8.749  0.00  0.00    +0.028 A 
ATOM     22  C   LIG    1        5.856  -1.039   9.632  0.00  0.00    +0.051 A 
ATOM     23  N   LIG    1        6.998  -0.815   8.886  0.00  0.00    -0.325 N 
ATOM     24  H   LIG    1        7.857  -0.552   9.254  0.00  0.00    +0.169 HD
ATOM     25  C   LIG    1        5.583  -0.973  10.998  0.00  0.00    +0.028 A 
ATOM     26  C   LIG    1        4.347  -1.247  11.491  0.00  0.00    +0.031 A 
ATOM     27  C   LIG    1        3.283  -1.613  10.633  0.00  0.00    +0.079 A 
ATOM     28  N   LIG    1        2.002  -1.920  10.931  0.00  0.00    -0.247 NA
ATOM     29  C   LIG    1        1.134  -2.237  10.015  0.00  0.00    +0.157 A 
ATOM     30  S   LIG    1        2.000  -2.156   8.575  0.00  0.00    -0.075 S 
ATOM     31  C   LIG    1        3.567  -1.677   9.254  0.00  0.00    +0.049 A 
ATOM     32  C   LIG    1        6.752  -1.018   7.565  0.00  0.00    +0.200 A 
BRANCH  32  33
ATOM     33  O   LIG    1        7.658  -0.888   6.570  0.00  0.00    -0.493 OA
ATOM     34  H   LIG    1        7.703   0.001   6.192  0.00  0.00    +0.294 HD
ENDBRANCH  32  33
ENDBRANCH  19  20
ENDBRANCH   4  18
TORSDOF 6
