REMARK  Name = ZINC28340894
REMARK                            x       y       z     vdW  Elec       q    Type
REMARK                         _______ _______ _______ _____ _____    ______ ____
ROOT
ATOM      1  C   LIG    1        7.241   6.939  -0.215  0.00  0.00    +0.045 A 
ATOM      2  C   LIG    1        7.113   5.552  -0.107  0.00  0.00    +0.015 A 
ATOM      3  C   LIG    1        5.864   4.976  -0.077  0.00  0.00    +0.024 A 
ATOM      4  C   LIG    1        4.720   5.768  -0.155  0.00  0.00    +0.028 A 
ATOM      5  C   LIG    1        4.830   7.148  -0.268  0.00  0.00    +0.032 A 
ATOM      6  C   LIG    1        6.086   7.743  -0.293  0.00  0.00    -0.003 A 
ENDROOT
BRANCH   6   7
ATOM      7  C   LIG    1        6.210   9.213  -0.408  0.00  0.00    -0.009 A 
ATOM      8  C   LIG    1        5.752  10.035   0.607  0.00  0.00    +0.009 A 
ATOM      9  C   LIG    1        5.866  11.417   0.507  0.00  0.00    +0.001 A 
ATOM     10  C   LIG    1        6.429  12.000  -0.589  0.00  0.00    +0.008 A 
ATOM     11  C   LIG    1        6.907  11.203  -1.643  0.00  0.00    -0.017 A 
ATOM     12  C   LIG    1        7.491  11.781  -2.784  0.00  0.00    +0.008 A 
ATOM     13  C   LIG    1        7.943  10.980  -3.788  0.00  0.00    +0.001 A 
ATOM     14  C   LIG    1        7.837   9.593  -3.701  0.00  0.00    +0.001 A 
ATOM     15  C   LIG    1        7.277   9.000  -2.610  0.00  0.00    +0.009 A 
ATOM     16  C   LIG    1        6.804   9.793  -1.555  0.00  0.00    -0.010 A 
ENDBRANCH   6   7
BRANCH   1  19
ATOM     17  N   LIG    1        9.679   6.786  -0.171  0.00  0.00    -0.298 N 
ATOM     18  H   LIG    1        9.581   5.694  -0.086  0.00  0.00    +0.150 HD
ATOM     19  C   LIG    1        8.577   7.558  -0.247  0.00  0.00    +0.245 C 
ATOM     20  O   LIG    1        8.686   8.765  -0.341  0.00  0.00    -0.270 OA
BRANCH  17  21
ATOM     21  C   LIG    1       11.008   7.402  -0.202  0.00  0.00    +0.182 C 
BRANCH  21  22
ATOM     22  C   LIG    1       11.998   6.496   0.485  0.00  0.00    +0.327 C 
ATOM     23  O   LIG    1       11.630   5.444   0.953  0.00  0.00    -0.249 OA
BRANCH  22  24
ATOM     24  O   LIG    1       13.287   6.858   0.577  0.00  0.00    -0.467 OA
ATOM     25  C   LIG    1       14.183   5.936   1.252  0.00  0.00    +0.280 C 
ENDBRANCH  22  24
ENDBRANCH  21  22
BRANCH  21  26
ATOM     26  C   LIG    1       11.437   7.616  -1.655  0.00  0.00    +0.036 C 
BRANCH  26  28
ATOM     27  C   LIG    1       10.671   9.994  -1.641  0.00  0.00    +0.007 C 
ATOM     28  C   LIG    1       10.504   8.632  -2.317  0.00  0.00    -0.015 C 
ATOM     29  C   LIG    1       10.854   8.754  -3.802  0.00  0.00    +0.007 C 
ENDBRANCH  26  28
ENDBRANCH  21  26
ENDBRANCH  17  21
ENDBRANCH   1  19
BRANCH   4  30
ATOM     30  N   LIG    1        3.462   5.174  -0.124  0.00  0.00    -0.345 N 
ATOM     31  H   LIG    1        2.558   5.798  -0.184  0.00  0.00    +0.146 HD
BRANCH  30  32
ATOM     32  C   LIG    1        3.342   3.719  -0.010  0.00  0.00    +0.086 C 
BRANCH  32  33
ATOM     33  C   LIG    1        1.863   3.328   0.002  0.00  0.00    -0.048 C 
BRANCH  33  34
ATOM     34  N   LIG    1        1.201   3.880  -1.188  0.00  0.00    +0.382 N 
ATOM     35  H   LIG    1        1.291   4.976  -1.183  0.00  0.00    -0.090 HD
ATOM     36  H   LIG    1        1.680   3.477  -2.093  0.00  0.00    -0.090 HD
ATOM     37  H   LIG    1        0.138   3.599  -1.179  0.00  0.00    -0.090 HD
ENDBRANCH  33  34
BRANCH  33  38
ATOM     38  C   LIG    1        1.738   1.804  -0.005  0.00  0.00    +0.051 C 
BRANCH  38  39
ATOM     39  S   LIG    1       -0.016   1.341   0.009  0.00  0.00    -0.180 S 
ATOM     40  H   LIG    1       -0.305   0.279   0.006  0.00  0.00    +0.102 HD
ENDBRANCH  38  39
ENDBRANCH  33  38
ENDBRANCH  32  33
ENDBRANCH  30  32
ENDBRANCH   4  30
TORSDOF 13
