REMARK  Name = ZINC49808163
REMARK                            x       y       z     vdW  Elec       q    Type
REMARK                         _______ _______ _______ _____ _____    ______ ____
ROOT
ATOM      1  C   LIG    1       -5.151  -2.830   1.606  0.00  0.00    +0.042 C 
ATOM      2  C   LIG    1       -6.638  -3.131   1.817  0.00  0.00    +0.012 C 
ATOM      3  C   LIG    1       -6.812  -3.722   3.222  0.00  0.00    +0.024 C 
ATOM      4  C   LIG    1       -6.111  -5.082   3.265  0.00  0.00    +0.142 C 
ATOM      5  N   LIG    1       -4.757  -4.974   2.739  0.00  0.00    -0.287 NA
ATOM      6  C   LIG    1       -4.328  -4.016   2.017  0.00  0.00    +0.048 C 
ENDROOT
BRANCH   6   7
ATOM      7  C   LIG    1       -2.927  -4.075   1.557  0.00  0.00    +0.014 A 
ATOM      8  C   LIG    1       -2.186  -2.901   1.376  0.00  0.00    +0.012 A 
ATOM      9  C   LIG    1       -0.876  -3.012   0.943  0.00  0.00    +0.020 A 
ATOM     10  C   LIG    1       -0.346  -4.267   0.704  0.00  0.00    +0.111 A 
ATOM     11  N   LIG    1       -1.068  -5.357   0.882  0.00  0.00    -0.263 NA
ATOM     12  C   LIG    1       -2.316  -5.304   1.299  0.00  0.00    +0.120 A 
ENDBRANCH   6   7
BRANCH   1  13
ATOM     13  C   LIG    1       -4.899  -2.523   0.129  0.00  0.00    +0.048 C 
BRANCH  13  17
ATOM     14  C   LIG    1       -6.971   1.057  -0.958  0.00  0.00    +0.124 A 
ATOM     15  C   LIG    1       -7.514  -0.183  -1.262  0.00  0.00    +0.046 A 
ATOM     16  C   LIG    1       -6.843  -1.338  -0.910  0.00  0.00    +0.011 A 
ATOM     17  C   LIG    1       -5.628  -1.262  -0.254  0.00  0.00    -0.005 A 
ATOM     18  C   LIG    1       -5.081  -0.024   0.052  0.00  0.00    +0.127 A 
ATOM     19  C   LIG    1       -5.750   1.137  -0.306  0.00  0.00    +0.091 A 
BRANCH  14  21
ATOM     20  C   LIG    1       -8.884   2.036  -1.974  0.00  0.00    +0.277 C 
ATOM     21  O   LIG    1       -7.632   2.193  -1.304  0.00  0.00    -0.495 OA
ENDBRANCH  14  21
BRANCH  18  22
ATOM     22  O   LIG    1       -3.887   0.051   0.697  0.00  0.00    -0.495 OA
ATOM     23  C   LIG    1       -3.433   1.352   1.073  0.00  0.00    +0.277 C 
ENDBRANCH  18  22
ENDBRANCH  13  17
ENDBRANCH   1  13
TORSDOF 5
