REMARK  Name = ZINC26824949
REMARK                            x       y       z     vdW  Elec       q    Type
REMARK                         _______ _______ _______ _____ _____    ______ ____
ROOT
ATOM      1  N   LIG    1       -0.065   1.119  -2.440  0.00  0.00    -0.294 NA
ATOM      2  C   LIG    1        1.272   1.718  -2.554  0.00  0.00    +0.113 C 
ATOM      3  C   LIG    1        1.968   1.146  -3.793  0.00  0.00    +0.176 C 
ATOM      4  O   LIG    1        1.167   1.421  -4.945  0.00  0.00    -0.369 OA
ATOM      5  C   LIG    1       -0.152   0.871  -4.885  0.00  0.00    +0.166 C 
ATOM      6  C   LIG    1       -0.907   1.290  -6.123  0.00  0.00    -0.011 A 
ATOM      7  C   LIG    1       -0.642   0.608  -7.301  0.00  0.00    +0.052 A 
ATOM      8  C   LIG    1       -1.291   0.955  -8.475  0.00  0.00    +0.117 A 
ATOM      9  C   LIG    1       -2.212   1.992  -8.468  0.00  0.00    +0.045 A 
ATOM     10  C   LIG    1       -2.476   2.665  -7.293  0.00  0.00    +0.007 A 
ATOM     11  C   LIG    1       -1.827   2.315  -6.116  0.00  0.00    -0.041 A 
ATOM     12  C   LIG    1       -2.173   3.091  -4.871  0.00  0.00    +0.037 C 
ATOM     13  C   LIG    1       -1.111   2.884  -3.792  0.00  0.00    +0.026 C 
ATOM     14  C   LIG    1       -0.868   1.381  -3.638  0.00  0.00    +0.090 C 
ENDROOT
BRANCH   8  15
ATOM     15  O   LIG    1       -1.026   0.284  -9.627  0.00  0.00    -0.507 OA
ATOM     16  H   LIG    1       -1.543   0.563 -10.556  0.00  0.00    +0.292 HD
ENDBRANCH   8  15
BRANCH   1  17
ATOM     17  C   LIG    1       -0.753   1.593  -1.232  0.00  0.00    +0.084 C 
BRANCH  17  19
ATOM     18  C   LIG    1       -0.729   1.579   1.267  0.00  0.00    +0.005 C 
ATOM     19  C   LIG    1       -0.013   1.086   0.008  0.00  0.00    +0.012 C 
ENDBRANCH  17  19
ENDBRANCH   1  17
TORSDOF 3
