REMARK  Name = ZINC13940059
REMARK                            x       y       z     vdW  Elec       q    Type
REMARK                         _______ _______ _______ _____ _____    ______ ____
ROOT
ATOM      1  C   LIG    1       -0.901   1.734   0.047  0.00  0.00    +0.028 C 
ATOM      2  C   LIG    1       -1.507   2.887   0.849  0.00  0.00    +0.081 C 
ATOM      3  C   LIG    1       -1.002   2.835   2.297  0.00  0.00    +0.050 C 
ATOM      4  C   LIG    1       -1.564   4.035   3.060  0.00  0.00    +0.115 C 
ATOM      5  C   LIG    1       -3.057   4.121   2.882  0.00  0.00    -0.005 A 
ATOM      6  C   LIG    1       -3.801   4.839   3.803  0.00  0.00    +0.007 A 
ATOM      7  C   LIG    1       -5.172   4.939   3.665  0.00  0.00    +0.000 A 
ATOM      8  C   LIG    1       -5.810   4.321   2.605  0.00  0.00    +0.002 A 
ATOM      9  C   LIG    1       -5.076   3.603   1.683  0.00  0.00    +0.024 A 
ATOM     10  C   LIG    1       -3.696   3.499   1.821  0.00  0.00    +0.042 A 
ATOM     11  N   LIG    1       -2.970   2.758   0.880  0.00  0.00    -0.264 N 
ATOM     12  C   LIG    1       -3.604   1.940   0.016  0.00  0.00    +0.251 C 
ATOM     13  O   LIG    1       -2.981   1.400  -0.877  0.00  0.00    -0.270 OA
ENDROOT
BRANCH  12  14
ATOM     14  C   LIG    1       -5.056   1.699   0.156  0.00  0.00    +0.037 A 
ATOM     15  C   LIG    1       -5.606   1.443   1.413  0.00  0.00    +0.013 A 
ATOM     16  C   LIG    1       -6.962   1.224   1.537  0.00  0.00    +0.001 A 
ATOM     17  C   LIG    1       -7.775   1.247   0.418  0.00  0.00    +0.000 A 
ATOM     18  C   LIG    1       -7.235   1.494  -0.832  0.00  0.00    +0.001 A 
ATOM     19  C   LIG    1       -5.881   1.720  -0.969  0.00  0.00    +0.013 A 
ENDBRANCH  12  14
BRANCH   4  20
ATOM     20  N   LIG    1       -0.945   5.263   2.554  0.00  0.00    -0.260 N 
ATOM     21  C   LIG    1        0.353   5.519   2.812  0.00  0.00    +0.251 C 
ATOM     22  O   LIG    1        0.909   6.450   2.262  0.00  0.00    -0.270 OA
BRANCH  21  23
ATOM     23  C   LIG    1        1.099   4.670   3.764  0.00  0.00    +0.037 A 
ATOM     24  C   LIG    1        0.587   3.428   4.145  0.00  0.00    +0.013 A 
ATOM     25  C   LIG    1        1.291   2.639   5.031  0.00  0.00    +0.001 A 
ATOM     26  C   LIG    1        2.496   3.079   5.548  0.00  0.00    +0.000 A 
ATOM     27  C   LIG    1        3.007   4.310   5.178  0.00  0.00    +0.001 A 
ATOM     28  C   LIG    1        2.316   5.108   4.290  0.00  0.00    +0.013 A 
ENDBRANCH  21  23
BRANCH  20  29
ATOM     29  C   LIG    1       -1.701   6.168   1.802  0.00  0.00    +0.037 A 
ATOM     30  C   LIG    1       -2.428   5.725   0.704  0.00  0.00    +0.023 A 
ATOM     31  C   LIG    1       -3.178   6.621  -0.032  0.00  0.00    +0.002 A 
ATOM     32  C   LIG    1       -3.197   7.959   0.316  0.00  0.00    +0.000 A 
ATOM     33  C   LIG    1       -2.470   8.404   1.405  0.00  0.00    +0.002 A 
ATOM     34  C   LIG    1       -1.722   7.513   2.149  0.00  0.00    +0.023 A 
ENDBRANCH  20  29
ENDBRANCH   4  20
TORSDOF 4
