REMARK  Name = ZINC64491718
REMARK                            x       y       z     vdW  Elec       q    Type
REMARK                         _______ _______ _______ _____ _____    ______ ____
ROOT
ATOM      1  C   LIG    1        0.706  -0.527   1.180  0.00  0.00    +0.070 C 
ENDROOT
BRANCH   1   3
ATOM      2  C   LIG    1       -0.018   1.465   0.010  0.00  0.00    +0.084 C 
ATOM      3  N   LIG    1        0.002  -0.004   0.002  0.00  0.00    -0.358 NA
BRANCH   3   4
ATOM      4  N   LIG    1        0.594  -0.510  -1.226  0.00  0.00    +0.389 N 
ATOM      5  H   LIG    1        0.093  -0.137  -2.019  0.00  0.00    -0.065 HD
ATOM      6  H   LIG    1        0.537  -1.518  -1.236  0.00  0.00    -0.065 HD
ATOM      7  H   LIG    1        1.561  -0.228  -1.275  0.00  0.00    -0.065 HD
ENDBRANCH   3   4
ENDBRANCH   1   3
BRANCH   1   8
ATOM      8  C   LIG    1        0.516  -2.044   1.256  0.00  0.00    +0.049 C 
BRANCH   8   9
ATOM      9  C   LIG    1        1.238  -2.581   2.465  0.00  0.00    -0.046 A 
ATOM     10  C   LIG    1        2.558  -2.979   2.361  0.00  0.00    +0.003 A 
ATOM     11  C   LIG    1        3.220  -3.471   3.470  0.00  0.00    +0.000 A 
ATOM     12  C   LIG    1        2.563  -3.565   4.683  0.00  0.00    +0.000 A 
ATOM     13  C   LIG    1        1.244  -3.167   4.787  0.00  0.00    +0.000 A 
ATOM     14  C   LIG    1        0.583  -2.670   3.679  0.00  0.00    +0.003 A 
ENDBRANCH   8   9
ENDBRANCH   1   8
TORSDOF 4
