REMARK  Name = ZINC44679143
REMARK                            x       y       z     vdW  Elec       q    Type
REMARK                         _______ _______ _______ _____ _____    ______ ____
ROOT
ATOM      1  N   LIG    1        3.749  -0.600  -0.674  0.00  0.00    -0.225 N 
ATOM      2  C   LIG    1        3.886  -1.960  -0.634  0.00  0.00    +0.098 A 
ATOM      3  C   LIG    1        3.034  -3.051  -0.799  0.00  0.00    +0.163 A 
ATOM      4  N   LIG    1        3.516  -4.271  -0.692  0.00  0.00    -0.154 NA
ATOM      5  N   LIG    1        4.748  -4.518  -0.439  0.00  0.00    -0.133 NA
ATOM      6  C   LIG    1        5.649  -3.565  -0.263  0.00  0.00    +0.156 A 
ATOM      7  C   LIG    1        5.246  -2.220  -0.356  0.00  0.00    +0.063 A 
ATOM      8  C   LIG    1        5.887  -0.970  -0.236  0.00  0.00    +0.146 A 
ATOM      9  N   LIG    1        5.005  -0.029  -0.429  0.00  0.00    -0.173 NA
ENDROOT
BRANCH   1  14
ATOM     10  C   LIG    1        0.212   1.485  -1.411  0.00  0.00    +0.006 A 
ATOM     11  C   LIG    1        0.233   0.474  -0.468  0.00  0.00    +0.041 A 
ATOM     12  C   LIG    1        1.403  -0.220  -0.221  0.00  0.00    +0.151 A 
ATOM     13  F   LIG    1        1.423  -1.208   0.702  0.00  0.00    -0.203 F 
ATOM     14  C   LIG    1        2.560   0.100  -0.922  0.00  0.00    +0.136 A 
ATOM     15  C   LIG    1        2.535   1.117  -1.869  0.00  0.00    +0.151 A 
ATOM     16  F   LIG    1        3.657   1.432  -2.553  0.00  0.00    -0.203 F 
ATOM     17  C   LIG    1        1.360   1.806  -2.110  0.00  0.00    +0.041 A 
ENDBRANCH   1  14
BRANCH   6  18
ATOM     18  N   LIG    1        6.971  -3.887   0.008  0.00  0.00    -0.296 N 
ATOM     19  H   LIG    1        7.606  -3.186   0.225  0.00  0.00    +0.154 HD
BRANCH  18  20
ATOM     20  C   LIG    1        7.388  -5.221  -0.030  0.00  0.00    +0.052 A 
ATOM     21  C   LIG    1        6.634  -6.163  -0.713  0.00  0.00    +0.037 A 
ATOM     22  C   LIG    1        7.054  -7.493  -0.748  0.00  0.00    +0.039 A 
ATOM     23  C   LIG    1        8.231  -7.867  -0.095  0.00  0.00    +0.014 A 
ATOM     24  C   LIG    1        8.974  -6.923   0.582  0.00  0.00    +0.022 A 
ATOM     25  C   LIG    1        8.561  -5.602   0.612  0.00  0.00    +0.062 A 
ATOM     26 CL   LIG    1        9.507  -4.419   1.461  0.00  0.00    -0.082 Cl
BRANCH  22  27
ATOM     27  C   LIG    1        6.256  -8.504  -1.474  0.00  0.00    +0.244 C 
ATOM     28  N   LIG    1        6.664  -9.788  -1.507  0.00  0.00    -0.308 N 
ATOM     29  H   LIG    1        7.481 -10.049  -1.054  0.00  0.00    +0.149 HD
ATOM     30  O   LIG    1        5.232  -8.176  -2.041  0.00  0.00    -0.270 OA
BRANCH  28  31
ATOM     31  C   LIG    1        5.873 -10.789  -2.226  0.00  0.00    +0.073 C 
ATOM     32  C   LIG    1        5.653 -12.140  -1.542  0.00  0.00    +0.024 C 
ATOM     33  C   LIG    1        6.603 -12.033  -2.736  0.00  0.00    +0.024 C 
ENDBRANCH  28  31
ENDBRANCH  22  27
ENDBRANCH  18  20
ENDBRANCH   6  18
TORSDOF 5
