REMARK  Name = ZINC37491161
REMARK                            x       y       z     vdW  Elec       q    Type
REMARK                         _______ _______ _______ _____ _____    ______ ____
ROOT
ATOM      1  N   LIG    1        4.148  -1.058   1.305  0.00  0.00    +0.387 N 
ATOM      2  H   LIG    1        4.854  -1.779   1.304  0.00  0.00    -0.085 HD
ATOM      3  H   LIG    1        3.425  -1.296   1.968  0.00  0.00    -0.085 HD
ENDROOT
BRANCH   1  11
ATOM      4  C   LIG    1       -0.017   1.377   0.010  0.00  0.00    +0.000 A 
ATOM      5  C   LIG    1        1.172   2.083   0.002  0.00  0.00    +0.000 A 
ATOM      6  C   LIG    1        2.376   1.406  -0.013  0.00  0.00    +0.002 A 
ATOM      7  C   LIG    1        2.396   0.021  -0.021  0.00  0.00    -0.058 A 
ATOM      8  C   LIG    1        1.208  -0.685  -0.013  0.00  0.00    -0.046 A 
ATOM      9  C   LIG    1        1.496  -2.171  -0.025  0.00  0.00    +0.034 C 
ATOM     10  C   LIG    1        2.966  -2.294  -0.480  0.00  0.00    -0.007 C 
ATOM     11  C   LIG    1        3.564  -0.942  -0.037  0.00  0.00    -0.040 C 
ATOM     12  C   LIG    1        0.002  -0.004   0.002  0.00  0.00    +0.004 A 
ENDBRANCH   1  11
BRANCH   1  13
ATOM     13  C   LIG    1        4.758   0.223   1.686  0.00  0.00    -0.042 C 
ATOM     14  C   LIG    1        5.936   0.523   0.757  0.00  0.00    -0.013 C 
ATOM     15  C   LIG    1        6.571   1.858   1.154  0.00  0.00    -0.001 C 
ATOM     16  C   LIG    1        7.069   1.776   2.598  0.00  0.00    +0.002 C 
ATOM     17  C   LIG    1        5.891   1.475   3.527  0.00  0.00    +0.030 C 
ATOM     18  C   LIG    1        5.256   0.141   3.131  0.00  0.00    +0.101 C 
BRANCH  18  19
ATOM     19  O   LIG    1        6.228  -0.901   3.241  0.00  0.00    -0.393 OA
ATOM     20  H   LIG    1        6.588  -1.010   4.132  0.00  0.00    +0.210 HD
ENDBRANCH  18  19
ENDBRANCH   1  13
TORSDOF 3
