REMARK  Name = ZINC29130875
REMARK                            x       y       z     vdW  Elec       q    Type
REMARK                         _______ _______ _______ _____ _____    ______ ____
ROOT
ATOM      1  C   LIG    1        6.097   1.496  -1.254  0.00  0.00    +0.123 A 
ATOM      2  C   LIG    1        7.365   1.167  -1.713  0.00  0.00    +0.046 A 
ATOM      3  C   LIG    1        8.307   0.665  -0.837  0.00  0.00    +0.004 A 
ATOM      4  C   LIG    1        7.988   0.489   0.497  0.00  0.00    +0.000 A 
ATOM      5  C   LIG    1        6.728   0.821   0.958  0.00  0.00    +0.007 A 
ATOM      6  C   LIG    1        5.780   1.319   0.085  0.00  0.00    -0.007 A 
ENDROOT
BRANCH   1   8
ATOM      7  C   LIG    1        5.566   2.146  -3.478  0.00  0.00    +0.277 C 
ATOM      8  O   LIG    1        5.169   1.990  -2.114  0.00  0.00    -0.495 OA
ENDBRANCH   1   8
BRANCH   6   9
ATOM      9  C   LIG    1        4.405   1.675   0.587  0.00  0.00    +0.020 C 
BRANCH   9  10
ATOM     10  C   LIG    1        3.457   0.496   0.358  0.00  0.00    -0.074 C 
BRANCH  10  11
ATOM     11  N   LIG    1        2.116   0.844   0.848  0.00  0.00    +0.380 N 
ATOM     12  H   LIG    1        2.241   1.226   1.872  0.00  0.00    -0.082 HD
ATOM     13  C   LIG    1        1.494   1.881  -0.002  0.00  0.00    -0.079 C 
ATOM     14  C   LIG    1       -0.019   1.547   0.011  0.00  0.00    -0.020 C 
ATOM     15  C   LIG    1        0.002  -0.004   0.002  0.00  0.00    -0.020 C 
ATOM     16  C   LIG    1        1.237  -0.340   0.865  0.00  0.00    -0.079 C 
ENDBRANCH  10  11
ENDBRANCH   9  10
ENDBRANCH   6   9
TORSDOF 4
