REMARK  Name = ZINC13813271
REMARK                            x       y       z     vdW  Elec       q    Type
REMARK                         _______ _______ _______ _____ _____    ______ ____
ROOT
ATOM      1  C   LIG    1        1.743   3.202   0.003  0.00  0.00    +0.055 C 
ENDROOT
BRANCH   1   3
ATOM      2  C   LIG    1       -0.017   1.365   0.009  0.00  0.00    +0.105 A 
ATOM      3  C   LIG    1        1.267   1.772  -0.001  0.00  0.00    +0.033 A 
ATOM      4  N   LIG    1        2.048   0.681  -0.014  0.00  0.00    -0.350 N 
ATOM      5  H   LIG    1        3.018   0.686  -0.023  0.00  0.00    +0.166 HD
ATOM      6  C   LIG    1        1.297  -0.386  -0.012  0.00  0.00    +0.171 A 
ATOM      7  N   LIG    1        0.002  -0.004   0.002  0.00  0.00    -0.352 N 
ATOM      8  H   LIG    1       -0.771  -0.590   0.006  0.00  0.00    +0.166 HD
ENDBRANCH   1   3
BRANCH   1   9
ATOM      9  C   LIG    1        1.798   3.718   1.442  0.00  0.00    +0.006 C 
BRANCH   9  10
ATOM     10  C   LIG    1        2.281   5.170   1.445  0.00  0.00    -0.001 C 
BRANCH  10  11
ATOM     11  C   LIG    1        2.336   5.685   2.885  0.00  0.00    -0.020 C 
BRANCH  11  12
ATOM     12  C   LIG    1        2.819   7.137   2.888  0.00  0.00    -0.086 C 
BRANCH  12  13
ATOM     13  N   LIG    1        2.872   7.633   4.270  0.00  0.00    +0.378 N 
ATOM     14  H   LIG    1        3.191   8.590   4.272  0.00  0.00    -0.090 HD
ATOM     15  H   LIG    1        3.511   7.065   4.806  0.00  0.00    -0.090 HD
ATOM     16  H   LIG    1        1.952   7.583   4.680  0.00  0.00    -0.090 HD
ENDBRANCH  12  13
ENDBRANCH  11  12
ENDBRANCH  10  11
ENDBRANCH   9  10
ENDBRANCH   1   9
TORSDOF 6
