REMARK  Name = ZINC00039452
REMARK                            x       y       z     vdW  Elec       q    Type
REMARK                         _______ _______ _______ _____ _____    ______ ____
ROOT
ATOM      1  C   LIG    1       -1.290   1.371  -0.222  0.00  0.00    +0.040 A 
ATOM      2  C   LIG    1       -0.242   0.459  -0.269  0.00  0.00    +0.127 A 
ATOM      3  C   LIG    1        1.068   0.892  -0.429  0.00  0.00    +0.092 A 
ATOM      4  C   LIG    1        1.343   2.244  -0.534  0.00  0.00    +0.134 A 
ATOM      5  C   LIG    1        0.290   3.170  -0.476  0.00  0.00    +0.101 A 
ATOM      6  C   LIG    1        0.554   4.610  -0.572  0.00  0.00    +0.174 C 
ATOM      7  O   LIG    1        1.678   5.060  -0.485  0.00  0.00    -0.292 OA
ATOM      8  C   LIG    1       -0.651   5.509  -0.784  0.00  0.00    +0.129 C 
ATOM      9  C   LIG    1       -1.786   4.961   0.093  0.00  0.00    +0.211 C 
ATOM     10  O   LIG    1       -2.061   3.611  -0.278  0.00  0.00    -0.483 OA
ATOM     11  C   LIG    1       -1.037   2.727  -0.321  0.00  0.00    +0.142 A 
ENDROOT
BRANCH   9  12
ATOM     12  C   LIG    1       -3.023   5.799  -0.104  0.00  0.00    -0.007 A 
ATOM     13  C   LIG    1       -3.877   5.532  -1.158  0.00  0.00    +0.011 A 
ATOM     14  C   LIG    1       -5.015   6.295  -1.337  0.00  0.00    +0.046 A 
ATOM     15  C   LIG    1       -5.294   7.337  -0.466  0.00  0.00    +0.117 A 
ATOM     16  C   LIG    1       -4.433   7.607   0.588  0.00  0.00    +0.046 A 
ATOM     17  C   LIG    1       -3.300   6.838   0.766  0.00  0.00    +0.011 A 
BRANCH  15  18
ATOM     18  O   LIG    1       -6.410   8.092  -0.643  0.00  0.00    -0.507 OA
ATOM     19  H   LIG    1       -6.276   8.864  -1.210  0.00  0.00    +0.292 HD
ENDBRANCH  15  18
ENDBRANCH   9  12
BRANCH   2  20
ATOM     20  O   LIG    1       -0.503  -0.868  -0.165  0.00  0.00    -0.506 OA
ATOM     21  H   LIG    1       -0.488  -1.202   0.743  0.00  0.00    +0.292 HD
ENDBRANCH   2  20
BRANCH   4  22
ATOM     22  O   LIG    1        2.621   2.671  -0.692  0.00  0.00    -0.506 OA
ATOM     23  H   LIG    1        2.899   2.745  -1.615  0.00  0.00    +0.292 HD
ENDBRANCH   4  22
BRANCH   1  24
ATOM     24  C   LIG    1       -2.705   0.881  -0.056  0.00  0.00    +0.069 C 
BRANCH  24  28
ATOM     25  C   LIG    1       -5.047   2.105   0.929  0.00  0.00    +0.038 C 
ATOM     26  C   LIG    1       -4.096   1.420   1.877  0.00  0.00    -0.079 C 
ATOM     27  C   LIG    1       -4.361   1.448   3.360  0.00  0.00    +0.038 C 
ATOM     28  C   LIG    1       -3.040   0.801   1.412  0.00  0.00    -0.023 C 
ENDBRANCH  24  28
ENDBRANCH   1  24
TORSDOF 6
