REMARK  Name = ZINC28636956
REMARK                            x       y       z     vdW  Elec       q    Type
REMARK                         _______ _______ _______ _____ _____    ______ ____
ROOT
ATOM      1  C   LIG    1       -0.016   1.344   0.009  0.00  0.00    +0.420 C 
ATOM      2  N   LIG    1        0.002  -0.004   0.002  0.00  0.00    -0.172 N 
ATOM      3  H   LIG    1       -0.943  -0.567   0.008  0.00  0.00    +0.181 HD
ATOM      4  O   LIG    1       -1.077   1.937   0.018  0.00  0.00    -0.225 OA
ENDROOT
BRANCH   2   5
ATOM      5  N   LIG    1        1.225  -0.688  -0.013  0.00  0.00    -0.185 NA
ATOM      6  C   LIG    1        1.242  -1.985  -0.021  0.00  0.00    +0.138 C 
BRANCH   6   7
ATOM      7  C   LIG    1        2.529  -2.705  -0.037  0.00  0.00    -0.005 A 
ATOM      8  C   LIG    1        3.731  -1.992  -0.050  0.00  0.00    +0.013 A 
ATOM      9  C   LIG    1        4.931  -2.669  -0.061  0.00  0.00    +0.046 A 
ATOM     10  C   LIG    1        4.947  -4.058  -0.068  0.00  0.00    +0.117 A 
ATOM     11  C   LIG    1        3.755  -4.771  -0.060  0.00  0.00    +0.046 A 
ATOM     12  C   LIG    1        2.550  -4.102  -0.044  0.00  0.00    +0.013 A 
BRANCH  10  13
ATOM     13  O   LIG    1        6.133  -4.721  -0.085  0.00  0.00    -0.507 OA
ATOM     14  H   LIG    1        6.148  -5.821  -0.091  0.00  0.00    +0.292 HD
ENDBRANCH  10  13
ENDBRANCH   6   7
ENDBRANCH   2   5
BRANCH   1  15
ATOM     15  O   LIG    1        1.141   2.033   0.002  0.00  0.00    -0.445 OA
BRANCH  15  16
ATOM     16  C   LIG    1        1.045   3.482   0.011  0.00  0.00    +0.269 C 
BRANCH  16  20
ATOM     17  C   LIG    1        4.971   5.169  -0.018  0.00  0.00    +0.120 A 
ATOM     18  C   LIG    1        4.322   4.901  -1.214  0.00  0.00    +0.046 A 
ATOM     19  C   LIG    1        3.053   4.355  -1.202  0.00  0.00    +0.010 A 
ATOM     20  C   LIG    1        2.430   4.077   0.001  0.00  0.00    -0.010 A 
ATOM     21  C   LIG    1        3.073   4.348   1.194  0.00  0.00    +0.010 A 
ATOM     22  C   LIG    1        4.345   4.888   1.188  0.00  0.00    +0.046 A 
BRANCH  17  24
ATOM     23  C   LIG    1        6.829   5.954   1.242  0.00  0.00    +0.277 C 
ATOM     24  O   LIG    1        6.220   5.705  -0.027  0.00  0.00    -0.495 OA
ENDBRANCH  17  24
ENDBRANCH  16  20
ENDBRANCH  15  16
ENDBRANCH   1  15
TORSDOF 7
