REMARK  Name = ZINC20269183
REMARK                            x       y       z     vdW  Elec       q    Type
REMARK                         _______ _______ _______ _____ _____    ______ ____
ROOT
ATOM      1  C   LIG    1        1.210  -0.697  -0.013  0.00  0.00    +0.121 A 
ATOM      2  C   LIG    1        0.002  -0.004   0.002  0.00  0.00    +0.047 A 
ATOM      3  C   LIG    1       -0.017   1.373   0.010  0.00  0.00    +0.030 A 
ATOM      4  C   LIG    1        1.179   2.084   0.002  0.00  0.00    +0.047 A 
ATOM      5  C   LIG    1        2.400   1.388  -0.013  0.00  0.00    +0.004 A 
ATOM      6  C   LIG    1        3.450   2.409  -0.017  0.00  0.00    -0.040 A 
ATOM      7  C   LIG    1        2.836   3.603  -0.005  0.00  0.00    +0.085 A 
ATOM      8  N   LIG    1        1.479   3.430   0.006  0.00  0.00    -0.360 N 
ATOM      9  H   LIG    1        0.669   4.175   0.017  0.00  0.00    +0.165 HD
ATOM     10  C   LIG    1        2.407  -0.009  -0.020  0.00  0.00    +0.055 A 
ENDROOT
BRANCH   1  12
ATOM     11  C   LIG    1       -0.062  -2.706  -0.011  0.00  0.00    +0.277 C 
ATOM     12  O   LIG    1        1.211  -2.057  -0.020  0.00  0.00    -0.495 OA
ENDBRANCH   1  12
BRANCH   6  13
ATOM     13  C   LIG    1        4.937   2.166  -0.031  0.00  0.00    -0.048 C 
BRANCH  13  14
ATOM     14  N   LIG    1        5.370   1.857  -1.400  0.00  0.00    +0.381 N 
ATOM     15  H   LIG    1        4.847   0.956  -1.755  0.00  0.00    -0.090 HD
ATOM     16  H   LIG    1        5.130   2.704  -2.060  0.00  0.00    -0.090 HD
ATOM     17  H   LIG    1        6.455   1.680  -1.410  0.00  0.00    -0.090 HD
ENDBRANCH  13  14
ENDBRANCH   6  13
TORSDOF 3
