REMARK  Name = ZINC13798500
REMARK                            x       y       z     vdW  Elec       q    Type
REMARK                         _______ _______ _______ _____ _____    ______ ____
ROOT
ATOM      1  C   LIG    1        4.455   1.838  -1.261  0.00  0.00    +0.004 A 
ATOM      2  C   LIG    1        4.890   0.610  -1.608  0.00  0.00    +0.089 A 
ATOM      3  N   LIG    1        5.561   0.682  -2.790  0.00  0.00    -0.355 N 
ATOM      4  C   LIG    1        5.560   1.992  -3.220  0.00  0.00    +0.131 A 
ATOM      5  C   LIG    1        6.086   2.652  -4.346  0.00  0.00    +0.277 A 
ATOM      6  O   LIG    1        6.699   2.035  -5.201  0.00  0.00    -0.266 OA
ATOM      7  N   LIG    1        5.884   3.983  -4.467  0.00  0.00    -0.294 N 
ATOM      8  H   LIG    1        6.236   4.456  -5.237  0.00  0.00    +0.172 HD
ATOM      9  C   LIG    1        5.197   4.667  -3.507  0.00  0.00    +0.194 A 
ATOM     10  N   LIG    1        4.703   4.068  -2.449  0.00  0.00    -0.214 NA
ATOM     11  H   LIG    1        5.971  -0.065  -3.254  0.00  0.00    +0.166 HD
ATOM     12  C   LIG    1        4.859   2.742  -2.268  0.00  0.00    +0.101 A 
ENDROOT
BRANCH   9  13
ATOM     13  N   LIG    1        5.015   6.021  -3.653  0.00  0.00    -0.329 N 
ATOM     14  H   LIG    1        5.374   6.477  -4.430  0.00  0.00    +0.145 HD
ATOM     15  H   LIG    1        4.528   6.520  -2.979  0.00  0.00    +0.145 HD
ENDBRANCH   9  13
BRANCH   1  16
ATOM     16  C   LIG    1        3.672   2.184  -0.021  0.00  0.00    +0.063 C 
BRANCH  16  19
ATOM     17  C   LIG    1       -0.017   1.378   0.010  0.00  0.00    +0.002 A 
ATOM     18  C   LIG    1        1.171   2.086   0.002  0.00  0.00    +0.004 A 
ATOM     19  C   LIG    1        2.378   1.412  -0.013  0.00  0.00    -0.038 A 
ATOM     20  C   LIG    1        2.398   0.029  -0.021  0.00  0.00    +0.024 A 
ATOM     21  C   LIG    1        1.210  -0.679  -0.013  0.00  0.00    +0.041 A 
ATOM     22 CL   LIG    1        1.234  -2.415  -0.024  0.00  0.00    -0.084 Cl
ATOM     23  C   LIG    1        0.002  -0.004   0.002  0.00  0.00    +0.020 A 
ENDBRANCH  16  19
BRANCH  16  24
ATOM     24  C   LIG    1        4.491   1.819   1.218  0.00  0.00    +0.133 C 
BRANCH  24  25
ATOM     25  C   LIG    1        5.727   2.680   1.275  0.00  0.00    +0.306 C 
ATOM     26  O   LIG    1        5.933   3.508   0.404  0.00  0.00    -0.251 OA
BRANCH  25  27
ATOM     27  O   LIG    1        6.521   2.548   2.191  0.00  0.00    -0.481 OA
ATOM     28  H   LIG    1        6.362   1.911   2.860  0.00  0.00    +0.295 HD
ENDBRANCH  25  27
ENDBRANCH  24  25
ENDBRANCH  16  24
ENDBRANCH   1  16
TORSDOF 6
