REMARK  Name = ZINC27433071
REMARK                            x       y       z     vdW  Elec       q    Type
REMARK                         _______ _______ _______ _____ _____    ______ ____
ROOT
ATOM      1  C   LIG    1       -0.588   1.695  -0.723  0.00  0.00    +0.037 C 
ENDROOT
BRANCH   1   2
ATOM      2  C   LIG    1       -0.584   0.215  -1.112  0.00  0.00    +0.103 C 
BRANCH   2   3
ATOM      3  N   LIG    1       -1.952  -0.215  -1.413  0.00  0.00    -0.342 N 
ATOM      4  H   LIG    1       -2.782   0.502  -1.338  0.00  0.00    +0.146 HD
BRANCH   3   7
ATOM      5  C   LIG    1       -1.383  -3.720  -2.337  0.00  0.00    +0.018 A 
ATOM      6  C   LIG    1       -1.140  -2.417  -1.961  0.00  0.00    +0.026 A 
ATOM      7  C   LIG    1       -2.200  -1.531  -1.794  0.00  0.00    +0.058 A 
ATOM      8  C   LIG    1       -3.507  -1.959  -2.001  0.00  0.00    +0.143 A 
ATOM      9  C   LIG    1       -3.755  -3.259  -2.383  0.00  0.00    +0.050 A 
ATOM     10  C   LIG    1       -2.694  -4.150  -2.551  0.00  0.00    +0.063 A 
BRANCH  10  11
ATOM     11  C   LIG    1       -2.957  -5.548  -2.955  0.00  0.00    +0.266 C 
ATOM     12  N   LIG    1       -4.182  -5.949  -3.155  0.00  0.00    -0.288 N 
ATOM     13  H   LIG    1       -5.019  -5.248  -3.022  0.00  0.00    +0.301 HD
ATOM     14  H   LIG    1       -4.378  -6.989  -3.455  0.00  0.00    +0.301 HD
BRANCH  11  15
ATOM     15  N   LIG    1       -1.909  -6.427  -3.121  0.00  0.00    -0.250 N 
ATOM     16  H   LIG    1       -0.876  -6.088  -2.953  0.00  0.00    +0.288 HD
ATOM     17  H   LIG    1       -2.105  -7.466  -3.422  0.00  0.00    +0.288 HD
ENDBRANCH  11  15
ENDBRANCH  10  11
BRANCH   8  18
ATOM     18  N   LIG    1       -4.633  -1.016  -1.816  0.00  0.00    +0.008 N 
ATOM     19  O   LIG    1       -5.668  -1.396  -1.300  0.00  0.00    -0.130 OA
BRANCH  18  20
ATOM     20  O   LIG    1       -4.522   0.142  -2.179  0.00  0.00    -0.396 OA
ATOM     21  H   LIG    1       -3.726   0.435  -2.575  0.00  0.00    +0.329 HD
ENDBRANCH  18  20
ENDBRANCH   8  18
ENDBRANCH   3   7
ENDBRANCH   2   3
ENDBRANCH   1   2
BRANCH   1  22
ATOM     22  C   LIG    1        0.840   2.143  -0.408  0.00  0.00    +0.103 C 
BRANCH  22  23
ATOM     23  N   LIG    1        0.836   3.560  -0.035  0.00  0.00    -0.342 N 
ATOM     24  H   LIG    1       -0.110   4.121  -0.018  0.00  0.00    +0.146 HD
BRANCH  23  25
ATOM     25  C   LIG    1        2.029   4.197   0.296  0.00  0.00    +0.058 A 
ATOM     26  C   LIG    1        3.239   3.525   0.149  0.00  0.00    +0.026 A 
ATOM     27  C   LIG    1        4.420   4.152   0.476  0.00  0.00    +0.018 A 
ATOM     28  C   LIG    1        4.404   5.463   0.956  0.00  0.00    +0.063 A 
ATOM     29  C   LIG    1        3.189   6.135   1.102  0.00  0.00    +0.050 A 
ATOM     30  C   LIG    1        2.011   5.505   0.768  0.00  0.00    +0.143 A 
BRANCH  28  31
ATOM     31  C   LIG    1        5.671   6.139   1.308  0.00  0.00    +0.266 C 
ATOM     32  N   LIG    1        5.655   7.363   1.755  0.00  0.00    -0.288 N 
ATOM     33  H   LIG    1        4.698   7.893   1.871  0.00  0.00    +0.301 HD
ATOM     34  H   LIG    1        6.597   7.866   2.017  0.00  0.00    +0.301 HD
BRANCH  31  35
ATOM     35  N   LIG    1        6.870   5.474   1.163  0.00  0.00    -0.250 N 
ATOM     36  H   LIG    1        6.884   4.441   0.785  0.00  0.00    +0.288 HD
ATOM     37  H   LIG    1        7.813   5.977   1.425  0.00  0.00    +0.288 HD
ENDBRANCH  31  35
ENDBRANCH  28  31
BRANCH  30  38
ATOM     38  N   LIG    1        0.723   6.219   0.918  0.00  0.00    +0.008 N 
ATOM     39  O   LIG    1        0.648   7.404   0.647  0.00  0.00    -0.130 OA
BRANCH  38  40
ATOM     40  O   LIG    1       -0.263   5.622   1.311  0.00  0.00    -0.396 OA
ATOM     41  H   LIG    1       -0.206   4.710   1.519  0.00  0.00    +0.329 HD
ENDBRANCH  38  40
ENDBRANCH  30  38
ENDBRANCH  23  25
ENDBRANCH  22  23
ENDBRANCH   1  22
TORSDOF 14
