REMARK  Name = ZINC19928405
REMARK                            x       y       z     vdW  Elec       q    Type
REMARK                         _______ _______ _______ _____ _____    ______ ____
ROOT
ATOM      1  C   LIG    1       -0.019   1.526   0.010  0.00  0.00    +0.024 C 
ATOM      2  C   LIG    1        0.002  -0.004   0.002  0.00  0.00    +0.055 C 
ATOM      3  C   LIG    1       -1.431  -0.537   0.023  0.00  0.00    +0.053 C 
ATOM      4  C   LIG    1       -1.422  -2.026   0.258  0.00  0.00    -0.042 A 
ATOM      5  C   LIG    1       -2.567  -2.749  -0.040  0.00  0.00    +0.004 A 
ATOM      6  C   LIG    1       -2.603  -4.114   0.165  0.00  0.00    +0.000 A 
ATOM      7  C   LIG    1       -1.492  -4.763   0.669  0.00  0.00    +0.000 A 
ATOM      8  C   LIG    1       -0.351  -4.045   0.964  0.00  0.00    +0.005 A 
ATOM      9  C   LIG    1       -0.312  -2.673   0.757  0.00  0.00    -0.030 A 
ATOM     10  C   LIG    1        0.959  -1.934   1.083  0.00  0.00    +0.116 C 
ATOM     11  N   LIG    1        0.705  -0.495   1.198  0.00  0.00    -0.309 NA
ATOM     12  H   LIG    1        1.563   0.014   1.348  0.00  0.00    +0.123 HD
ENDROOT
TORSDOF 0
