REMARK  Name = ZINC16052825
REMARK                            x       y       z     vdW  Elec       q    Type
REMARK                         _______ _______ _______ _____ _____    ______ ____
ROOT
ATOM      1  C   LIG    1        0.051  -2.683   2.491  0.00  0.00    +0.115 A 
ATOM      2  C   LIG    1        0.517  -2.166   3.687  0.00  0.00    +0.076 A 
ATOM      3  N   LIG    1        0.338  -3.153   4.627  0.00  0.00    -0.341 N 
ATOM      4  C   LIG    1       -0.217  -4.218   3.994  0.00  0.00    +0.114 A 
ATOM      5  H   LIG    1        0.566  -3.098   5.568  0.00  0.00    +0.167 HD
ATOM      6  N   LIG    1       -0.389  -3.932   2.735  0.00  0.00    -0.230 NA
ENDROOT
BRANCH   2   7
ATOM      7  C   LIG    1        1.090  -0.823   3.910  0.00  0.00    +0.004 A 
ATOM      8  C   LIG    1        2.027  -0.305   3.013  0.00  0.00    +0.014 A 
ATOM      9  C   LIG    1        2.561   0.949   3.223  0.00  0.00    +0.050 A 
ATOM     10  C   LIG    1        2.171   1.700   4.322  0.00  0.00    +0.166 A 
ATOM     11  C   LIG    1        1.236   1.188   5.221  0.00  0.00    +0.167 A 
ATOM     12  O   LIG    1        1.025   2.111   6.205  0.00  0.00    -0.453 OA
ATOM     13  C   LIG    1        2.140   3.019   6.124  0.00  0.00    +0.466 C 
ATOM     14  O   LIG    1        2.544   2.943   4.744  0.00  0.00    -0.453 OA
ATOM     15  C   LIG    1        0.692  -0.067   5.014  0.00  0.00    +0.059 A 
ENDBRANCH   2   7
BRANCH   1  21
ATOM     16  C   LIG    1       -0.018   1.503   0.010  0.00  0.00    +0.065 C 
ATOM     17  C   LIG    1        0.002  -0.004   0.002  0.00  0.00    +0.039 A 
ATOM     18  C   LIG    1        0.006  -0.679  -1.204  0.00  0.00    +0.023 A 
ATOM     19  C   LIG    1        0.025  -2.067  -1.209  0.00  0.00    +0.004 A 
ATOM     20  C   LIG    1        0.040  -2.732   0.005  0.00  0.00    +0.030 A 
ATOM     21  C   LIG    1        0.035  -1.988   1.185  0.00  0.00    +0.092 A 
ATOM     22  N   LIG    1        0.022  -0.660   1.145  0.00  0.00    -0.250 NA
ENDBRANCH   1  21
BRANCH   4  23
ATOM     23  C   LIG    1       -0.583  -5.525   4.648  0.00  0.00    +0.020 C 
ATOM     24  C   LIG    1        0.560  -5.977   5.560  0.00  0.00    +0.018 C 
ATOM     25  C   LIG    1       -0.825  -6.584   3.571  0.00  0.00    +0.018 C 
ATOM     26  C   LIG    1       -1.855  -5.342   5.478  0.00  0.00    +0.018 C 
ENDBRANCH   4  23
TORSDOF 3
