REMARK  Name = ZINC13781422
REMARK                            x       y       z     vdW  Elec       q    Type
REMARK                         _______ _______ _______ _____ _____    ______ ____
ROOT
ATOM      1  C   LIG    1       -0.173   2.148   2.576  0.00  0.00    +0.133 C 
ATOM      2  N   LIG    1       -0.856   1.952   1.295  0.00  0.00    -0.289 N 
ATOM      3  C   LIG    1       -2.127   2.371   1.137  0.00  0.00    +0.263 C 
ATOM      4  O   LIG    1       -2.732   2.109   0.114  0.00  0.00    -0.268 OA
ENDROOT
BRANCH   3   5
ATOM      5  C   LIG    1       -2.781   3.143   2.199  0.00  0.00    +0.102 A 
ATOM      6  C   LIG    1       -4.110   3.509   2.240  0.00  0.00    +0.032 A 
ATOM      7  C   LIG    1       -4.302   4.228   3.424  0.00  0.00    +0.020 A 
ATOM      8  C   LIG    1       -3.112   4.295   4.066  0.00  0.00    +0.083 A 
ATOM      9  N   LIG    1       -2.179   3.640   3.332  0.00  0.00    -0.357 N 
ATOM     10  H   LIG    1       -1.244   3.539   3.567  0.00  0.00    +0.165 HD
ENDBRANCH   3   5
BRANCH   2  11
ATOM     11  C   LIG    1       -0.157   1.299   0.185  0.00  0.00    +0.228 C 
BRANCH  11  12
ATOM     12  C   LIG    1       -0.390  -0.188   0.249  0.00  0.00    +0.322 C 
ATOM     13  O   LIG    1       -1.070  -0.656   1.132  0.00  0.00    -0.249 OA
BRANCH  12  14
ATOM     14  O   LIG    1        0.158  -0.994  -0.674  0.00  0.00    -0.480 OA
ATOM     15  H   LIG    1        0.686  -0.632  -1.358  0.00  0.00    +0.295 HD
ENDBRANCH  12  14
ENDBRANCH  11  12
ENDBRANCH   2  11
TORSDOF 4
