REMARK  Name = ZINC19850529
REMARK                            x       y       z     vdW  Elec       q    Type
REMARK                         _______ _______ _______ _____ _____    ______ ____
ROOT
ATOM      1  C   LIG    1        3.841  -0.780   0.014  0.00  0.00    +0.178 C 
ENDROOT
BRANCH   1   5
ATOM      2  C   LIG    1        0.040   1.136   0.376  0.00  0.00    +0.000 A 
ATOM      3  C   LIG    1        1.192   1.895   0.301  0.00  0.00    +0.000 A 
ATOM      4  C   LIG    1        2.422   1.276   0.184  0.00  0.00    +0.006 A 
ATOM      5  C   LIG    1        2.500  -0.104   0.142  0.00  0.00    -0.015 A 
ATOM      6  C   LIG    1        1.347  -0.864   0.218  0.00  0.00    +0.006 A 
ATOM      7  C   LIG    1        0.117  -0.244   0.334  0.00  0.00    +0.000 A 
ENDBRANCH   1   5
BRANCH   1   8
ATOM      8  C   LIG    1        4.292  -1.261   1.369  0.00  0.00    -0.015 A 
ATOM      9  C   LIG    1        3.872  -2.491   1.841  0.00  0.00    +0.006 A 
ATOM     10  C   LIG    1        4.287  -2.933   3.083  0.00  0.00    +0.000 A 
ATOM     11  C   LIG    1        5.122  -2.145   3.854  0.00  0.00    +0.000 A 
ATOM     12  C   LIG    1        5.542  -0.916   3.381  0.00  0.00    +0.000 A 
ATOM     13  C   LIG    1        5.131  -0.476   2.137  0.00  0.00    +0.006 A 
ENDBRANCH   1   8
BRANCH   1  14
ATOM     14  O   LIG    1        3.730  -1.893  -0.875  0.00  0.00    -0.366 OA
BRANCH  14  15
ATOM     15  C   LIG    1        3.979  -1.571  -2.244  0.00  0.00    +0.176 C 
BRANCH  15  16
ATOM     16  C   LIG    1        3.833  -2.831  -3.100  0.00  0.00    +0.112 C 
BRANCH  16  17
ATOM     17  N   LIG    1        2.441  -3.299  -3.049  0.00  0.00    -0.302 NA
ATOM     18  C   LIG    1        2.355  -4.745  -3.369  0.00  0.00    +0.082 C 
ATOM     19  C   LIG    1        1.097  -5.297  -2.748  0.00  0.00    -0.004 C 
ATOM     20  C   LIG    1       -0.101  -5.264  -3.710  0.00  0.00    -0.081 C 
ATOM     21  N   LIG    1       -0.174  -4.006  -4.487  0.00  0.00    +0.380 N 
ATOM     22  H   LIG    1       -1.104  -3.910  -4.868  0.00  0.00    -0.086 HD
ATOM     23  H   LIG    1        0.486  -4.053  -5.248  0.00  0.00    -0.086 HD
ATOM     24  C   LIG    1        0.123  -2.846  -3.679  0.00  0.00    -0.067 C 
ATOM     25  C   LIG    1        1.615  -2.502  -3.846  0.00  0.00    +0.065 C 
ENDBRANCH  16  17
ENDBRANCH  15  16
ENDBRANCH  14  15
ENDBRANCH   1  14
TORSDOF 6
