REMARK  Name = ZINC40379556
REMARK                            x       y       z     vdW  Elec       q    Type
REMARK                         _______ _______ _______ _____ _____    ______ ____
ROOT
ATOM      1  C   LIG    1       -0.019   1.526   0.010  0.00  0.00    +0.031 C 
ATOM      2  C   LIG    1        0.002  -0.004   0.002  0.00  0.00    +0.035 C 
ATOM      3  C   LIG    1       -1.440  -0.513   0.062  0.00  0.00    +0.031 C 
ATOM      4  C   LIG    1        0.630  -0.477  -1.306  0.00  0.00    +0.082 C 
ATOM      5  C   LIG    1        0.905  -1.969  -1.210  0.00  0.00    +0.065 A 
ATOM      6  C   LIG    1        1.179  -2.504   0.052  0.00  0.00    +0.098 A 
ATOM      7  C   LIG    1        1.218  -1.726   1.268  0.00  0.00    +0.253 C 
ATOM      8  O   LIG    1        1.679  -2.171   2.303  0.00  0.00    -0.270 OA
ATOM      9  S   LIG    1        1.426  -4.212  -0.303  0.00  0.00    -0.047 S 
ATOM     10  C   LIG    1        1.174  -4.129  -1.969  0.00  0.00    +0.166 A 
ATOM     11  N   LIG    1        0.920  -2.847  -2.183  0.00  0.00    -0.229 NA
ATOM     12  N   LIG    1        0.710  -0.468   1.188  0.00  0.00    -0.305 N 
ATOM     13  H   LIG    1        0.821   0.136   1.939  0.00  0.00    +0.150 HD
ENDROOT
BRANCH  10  14
ATOM     14  N   LIG    1        1.222  -5.154  -2.891  0.00  0.00    -0.273 N 
ATOM     15  C   LIG    1        1.516  -6.537  -2.478  0.00  0.00    +0.154 C 
ATOM     16  C   LIG    1        2.479  -7.135  -3.514  0.00  0.00    +0.248 C 
ATOM     17  O   LIG    1        1.864  -7.075  -4.803  0.00  0.00    -0.489 OA
ATOM     18  C   LIG    1        1.325  -5.890  -5.193  0.00  0.00    +0.142 A 
ATOM     19  C   LIG    1        1.100  -5.649  -6.540  0.00  0.00    +0.048 A 
ATOM     20  C   LIG    1        0.531  -4.451  -6.943  0.00  0.00    +0.019 A 
ATOM     21  C   LIG    1        0.201  -3.485  -6.010  0.00  0.00    +0.020 A 
ATOM     22 BR   LIG    1       -0.563  -1.849  -6.572  0.00  0.00    -0.050 Br
ATOM     23  C   LIG    1        0.428  -3.716  -4.664  0.00  0.00    +0.042 A 
ATOM     24  C   LIG    1        0.987  -4.916  -4.255  0.00  0.00    +0.079 A 
ENDBRANCH  10  14
TORSDOF 1
