REMARK  Name = ZINC19795769
REMARK                            x       y       z     vdW  Elec       q    Type
REMARK                         _______ _______ _______ _____ _____    ______ ____
ROOT
ATOM      1  C   LIG    1       -0.695  -2.865  -3.934  0.00  0.00    +0.190 C 
ATOM      2  N   LIG    1       -1.620  -3.427  -3.208  0.00  0.00    -0.077 NA
ENDROOT
BRANCH   1   3
ATOM      3  C   LIG    1       -0.561  -3.216  -5.364  0.00  0.00    +0.107 A 
ATOM      4  C   LIG    1       -1.333  -4.207  -5.909  0.00  0.00    +0.078 A 
ATOM      5  S   LIG    1       -0.757  -4.186  -7.601  0.00  0.00    -0.060 S 
ATOM      6  C   LIG    1        0.442  -2.873  -7.416  0.00  0.00    +0.156 A 
ATOM      7  N   LIG    1        0.307  -2.568  -6.139  0.00  0.00    -0.223 NA
BRANCH   6   8
ATOM      8  N   LIG    1        1.286  -2.319  -8.364  0.00  0.00    -0.338 N 
ATOM      9  H   LIG    1        1.891  -1.603  -8.114  0.00  0.00    +0.144 HD
ATOM     10  H   LIG    1        1.272  -2.646  -9.277  0.00  0.00    +0.144 HD
ENDBRANCH   6   8
ENDBRANCH   1   3
BRANCH   1  13
ATOM     11  N   LIG    1        1.107  -1.211  -4.098  0.00  0.00    -0.297 N 
ATOM     12  H   LIG    1        1.197  -1.438  -5.037  0.00  0.00    +0.150 HD
ATOM     13  C   LIG    1        0.223  -1.873  -3.326  0.00  0.00    +0.268 C 
ATOM     14  O   LIG    1        0.178  -1.657  -2.131  0.00  0.00    -0.268 OA
BRANCH  11  17
ATOM     15  C   LIG    1        4.459   0.155  -3.324  0.00  0.00    +0.032 C 
ATOM     16  C   LIG    1        3.249   0.101  -4.258  0.00  0.00    +0.129 C 
ATOM     17  C   LIG    1        1.933  -0.148  -3.519  0.00  0.00    +0.183 C 
ATOM     18  C   LIG    1        1.616   1.233  -4.027  0.00  0.00    +0.259 C 
ATOM     19  O   LIG    1        0.636   1.937  -3.900  0.00  0.00    -0.272 OA
ATOM     20  N   LIG    1        2.782   1.426  -4.668  0.00  0.00    -0.146 N 
BRANCH  20  21
ATOM     21  S   LIG    1        3.428   2.664  -5.559  0.00  0.00    +0.169 S 
ATOM     22  O   LIG    1        4.870   2.610  -5.375  0.00  0.00    -0.126 OA
ATOM     23  O   LIG    1        2.860   3.899  -5.042  0.00  0.00    -0.126 OA
BRANCH  21  24
ATOM     24  O   LIG    1        3.048   2.429  -6.944  0.00  0.00    -0.238 OA
ATOM     25  H   LIG    1        2.083   2.473  -7.026  0.00  0.00    +0.246 HD
ENDBRANCH  21  24
ENDBRANCH  20  21
ENDBRANCH  11  17
ENDBRANCH   1  13
BRANCH   2  26
ATOM     26  O   LIG    1       -1.820  -3.011  -1.870  0.00  0.00    -0.376 OA
BRANCH  26  27
ATOM     27  C   LIG    1       -2.866  -3.712  -1.194  0.00  0.00    +0.228 C 
ATOM     28  C   LIG    1       -2.537  -5.206  -1.157  0.00  0.00    +0.070 C 
ATOM     29  C   LIG    1       -4.186  -3.498  -1.936  0.00  0.00    +0.070 C 
BRANCH  27  30
ATOM     30  C   LIG    1       -2.991  -3.191   0.215  0.00  0.00    +0.351 C 
ATOM     31  O   LIG    1       -2.253  -2.301   0.604  0.00  0.00    -0.246 OA
BRANCH  30  32
ATOM     32  O   LIG    1       -3.830  -3.659   0.966  0.00  0.00    -0.478 OA
ATOM     33  H   LIG    1       -4.397  -4.342   0.667  0.00  0.00    +0.295 HD
ENDBRANCH  30  32
ENDBRANCH  27  30
ENDBRANCH  26  27
ENDBRANCH   2  26
TORSDOF 10
