REMARK  Name = ZINC49780622
REMARK                            x       y       z     vdW  Elec       q    Type
REMARK                         _______ _______ _______ _____ _____    ______ ____
ROOT
ATOM      1  C   LIG    1      -10.911  -5.170   3.417  0.00  0.00    +0.035 A 
ATOM      2  C   LIG    1      -10.275  -4.720   4.568  0.00  0.00    +0.024 A 
ATOM      3  C   LIG    1      -10.895  -4.845   5.793  0.00  0.00    +0.013 A 
ATOM      4  C   LIG    1      -12.161  -5.424   5.876  0.00  0.00    +0.019 A 
ATOM      5  C   LIG    1      -12.797  -5.875   4.719  0.00  0.00    +0.013 A 
ATOM      6  C   LIG    1      -12.175  -5.743   3.497  0.00  0.00    +0.024 A 
ENDROOT
BRANCH   4   7
ATOM      7  C   LIG    1      -12.830  -5.560   7.191  0.00  0.00    +0.164 A 
ATOM      8  N   LIG    1      -12.205  -5.119   8.272  0.00  0.00    -0.209 NA
ATOM      9  C   LIG    1      -12.771  -5.221   9.472  0.00  0.00    +0.147 A 
ATOM     10  C   LIG    1      -14.047  -5.809   9.569  0.00  0.00    +0.059 A 
ATOM     11  C   LIG    1      -14.673  -6.263   8.397  0.00  0.00    +0.135 A 
ATOM     12  C   LIG    1      -14.401  -5.782  10.986  0.00  0.00    +0.032 A 
ATOM     13  C   LIG    1      -13.373  -5.210  11.634  0.00  0.00    +0.089 A 
ATOM     14  N   LIG    1      -12.391  -4.870  10.739  0.00  0.00    -0.323 N 
ATOM     15  N   LIG    1      -14.037  -6.115   7.241  0.00  0.00    -0.212 NA
BRANCH  11  16
ATOM     16  N   LIG    1      -15.927  -6.847   8.445  0.00  0.00    -0.310 N 
ATOM     17  C   LIG    1      -17.141  -6.053   8.203  0.00  0.00    +0.134 C 
ATOM     18  C   LIG    1      -17.993  -6.779   7.155  0.00  0.00    +0.178 C 
ATOM     19  O   LIG    1      -18.191  -8.134   7.567  0.00  0.00    -0.377 OA
ATOM     20  C   LIG    1      -16.987  -8.898   7.666  0.00  0.00    +0.178 C 
ATOM     21  C   LIG    1      -16.084  -8.281   8.734  0.00  0.00    +0.134 C 
ENDBRANCH  11  16
BRANCH  14  22
ATOM     22  C   LIG    1      -11.122  -4.226  11.088  0.00  0.00    +0.236 C 
BRANCH  22  23
ATOM     23  C   LIG    1      -11.254  -2.712  10.912  0.00  0.00    +0.407 C 
ATOM     24  F   LIG    1      -11.574  -2.422   9.581  0.00  0.00    -0.169 F 
ATOM     25  F   LIG    1      -10.043  -2.096  11.245  0.00  0.00    -0.169 F 
ATOM     26  F   LIG    1      -12.267  -2.232  11.750  0.00  0.00    -0.169 F 
ENDBRANCH  22  23
ENDBRANCH  14  22
ENDBRANCH   4   7
BRANCH   1  30
ATOM     27  N   LIG    1       -8.322  -4.950   0.909  0.00  0.00    -0.269 N 
ATOM     28  H   LIG    1       -8.828  -4.623   0.149  0.00  0.00    +0.156 HD
ATOM     29  C   LIG    1       -8.942  -5.177   2.084  0.00  0.00    +0.308 C 
ATOM     30  N   LIG    1      -10.280  -5.042   2.177  0.00  0.00    -0.269 N 
ATOM     31  H   LIG    1      -10.805  -4.855   1.383  0.00  0.00    +0.156 HD
ATOM     32  O   LIG    1       -8.295  -5.504   3.059  0.00  0.00    -0.252 OA
BRANCH  27  36
ATOM     33  C   LIG    1       -4.233  -5.654   0.542  0.00  0.00    +0.037 A 
ATOM     34  C   LIG    1       -4.756  -5.171   1.744  0.00  0.00    +0.015 A 
ATOM     35  C   LIG    1       -6.107  -4.939   1.863  0.00  0.00    +0.024 A 
ATOM     36  C   LIG    1       -6.954  -5.186   0.786  0.00  0.00    +0.035 A 
ATOM     37  C   LIG    1       -6.437  -5.668  -0.413  0.00  0.00    +0.024 A 
ATOM     38  C   LIG    1       -5.085  -5.896  -0.539  0.00  0.00    +0.015 A 
BRANCH  33  40
ATOM     39  N   LIG    1       -2.082  -6.361   1.467  0.00  0.00    -0.302 N 
ATOM     40  C   LIG    1       -2.785  -5.904   0.412  0.00  0.00    +0.246 C 
ATOM     41  O   LIG    1       -2.225  -5.697  -0.648  0.00  0.00    -0.270 OA
ATOM     42  C   LIG    1       -2.776  -6.732   2.703  0.00  0.00    +0.132 C 
BRANCH  39  43
ATOM     43  C   LIG    1       -0.625  -6.486   1.379  0.00  0.00    +0.089 C 
BRANCH  43  44
ATOM     44  C   LIG    1       -0.264  -7.879   0.860  0.00  0.00    -0.060 C 
BRANCH  44  46
ATOM     45  C   LIG    1        1.548  -9.379   0.389  0.00  0.00    -0.097 C 
ATOM     46  N   LIG    1        1.197  -8.005   0.771  0.00  0.00    +0.377 N 
ATOM     47  H   LIG    1        1.608  -7.790   1.667  0.00  0.00    -0.083 HD
ATOM     48  C   LIG    1        1.709  -7.070  -0.239  0.00  0.00    -0.097 C 
ENDBRANCH  44  46
ENDBRANCH  43  44
ENDBRANCH  39  43
ENDBRANCH  33  40
ENDBRANCH  27  36
ENDBRANCH   1  30
TORSDOF 10
