REMARK  Name = ZINC54186689
REMARK                            x       y       z     vdW  Elec       q    Type
REMARK                         _______ _______ _______ _____ _____    ______ ____
ROOT
ATOM      1  N   LIG    1        1.226  -2.086  -0.021  0.00  0.00    -0.314 N 
ATOM      2  H   LIG    1        2.070  -2.562  -0.065  0.00  0.00    +0.152 HD
ENDROOT
BRANCH   1   7
ATOM      3  C   LIG    1        2.237   1.379  -0.737  0.00  0.00    +0.003 A 
ATOM      4  C   LIG    1        1.191   2.087  -0.180  0.00  0.00    +0.015 A 
ATOM      5  C   LIG    1        0.140   1.406   0.440  0.00  0.00    +0.061 A 
ATOM      6  C   LIG    1        0.152   0.011   0.493  0.00  0.00    +0.038 A 
ATOM      7  C   LIG    1        1.208  -0.689  -0.070  0.00  0.00    +0.032 A 
ATOM      8  C   LIG    1        2.249  -0.002  -0.685  0.00  0.00    +0.023 A 
BRANCH   5   9
ATOM      9  C   LIG    1       -0.980   2.160   1.037  0.00  0.00    +0.337 C 
ATOM     10  O   LIG    1       -0.988   3.382   0.990  0.00  0.00    -0.245 OA
BRANCH   9  11
ATOM     11  O   LIG    1       -1.899   1.562   1.579  0.00  0.00    -0.477 OA
ATOM     12  H   LIG    1       -1.892   0.626   1.615  0.00  0.00    +0.295 HD
ENDBRANCH   9  11
ENDBRANCH   5   9
ENDBRANCH   1   7
BRANCH   1  13
ATOM     13  C   LIG    1        0.028  -2.796   0.092  0.00  0.00    +0.031 A 
ATOM     14  C   LIG    1       -1.132  -2.301  -0.490  0.00  0.00    +0.024 A 
ATOM     15  C   LIG    1       -2.315  -3.006  -0.377  0.00  0.00    +0.014 A 
ATOM     16  C   LIG    1       -2.344  -4.203   0.316  0.00  0.00    +0.055 A 
ATOM     17  C   LIG    1       -1.191  -4.698   0.897  0.00  0.00    +0.014 A 
ATOM     18  C   LIG    1       -0.004  -4.001   0.783  0.00  0.00    +0.024 A 
BRANCH  16  19
ATOM     19  C   LIG    1       -3.636  -4.969   0.438  0.00  0.00    +0.417 C 
ATOM     20  F   LIG    1       -4.712  -4.075   0.425  0.00  0.00    -0.166 F 
ATOM     21  F   LIG    1       -3.641  -5.687   1.638  0.00  0.00    -0.166 F 
ATOM     22  F   LIG    1       -3.755  -5.857  -0.637  0.00  0.00    -0.166 F 
ENDBRANCH  16  19
ENDBRANCH   1  13
TORSDOF 5
