REMARK  Name = ZINC34801951
REMARK                            x       y       z     vdW  Elec       q    Type
REMARK                         _______ _______ _______ _____ _____    ______ ____
ROOT
ATOM      1  C   LIG    1        9.656  -0.463  -2.624  0.00  0.00    +0.086 A 
ATOM      2  C   LIG    1        9.700  -1.861  -2.634  0.00  0.00    +0.030 A 
ATOM      3  C   LIG    1       10.893  -2.510  -2.442  0.00  0.00    +0.010 A 
ATOM      4  C   LIG    1       12.062  -1.776  -2.235  0.00  0.00    -0.018 A 
ATOM      5  C   LIG    1       12.020  -0.381  -2.224  0.00  0.00    +0.010 A 
ATOM      6  C   LIG    1       10.830   0.271  -2.422  0.00  0.00    +0.030 A 
ENDROOT
BRANCH   4   7
ATOM      7  C   LIG    1       13.349  -2.479  -2.027  0.00  0.00    -0.018 A 
ATOM      8  C   LIG    1       13.392  -3.875  -2.042  0.00  0.00    +0.010 A 
ATOM      9  C   LIG    1       14.583  -4.527  -1.850  0.00  0.00    +0.030 A 
ATOM     10  C   LIG    1       15.755  -3.793  -1.638  0.00  0.00    +0.086 A 
ATOM     11  C   LIG    1       15.710  -2.395  -1.622  0.00  0.00    +0.030 A 
ATOM     12  C   LIG    1       14.519  -1.745  -1.820  0.00  0.00    +0.010 A 
BRANCH  10  13
ATOM     13  N   LIG    1       16.941  -4.441  -1.446  0.00  0.00    -0.149 NA
ATOM     14  N   LIG    1       18.022  -3.763  -1.250  0.00  0.00    -0.147 NA
BRANCH  14  15
ATOM     15  C   LIG    1       19.204  -4.409  -1.058  0.00  0.00    +0.109 A 
ATOM     16  C   LIG    1       20.372  -3.672  -0.841  0.00  0.00    +0.060 A 
ATOM     17  C   LIG    1       21.590  -4.355  -0.644  0.00  0.00    +0.007 A 
ATOM     18  C   LIG    1       21.608  -5.772  -0.670  0.00  0.00    +0.011 A 
ATOM     19  C   LIG    1       22.823  -6.447  -0.473  0.00  0.00    +0.010 A 
ATOM     20  C   LIG    1       23.965  -5.735  -0.260  0.00  0.00    +0.001 A 
ATOM     21  C   LIG    1       23.947  -4.343  -0.234  0.00  0.00    +0.001 A 
ATOM     22  C   LIG    1       20.412  -6.482  -0.892  0.00  0.00    +0.127 A 
ATOM     23  C   LIG    1       22.786  -3.654  -0.421  0.00  0.00    +0.010 A 
ATOM     24  C   LIG    1       19.245  -5.816  -1.074  0.00  0.00    +0.061 A 
BRANCH  16  25
ATOM     25  N   LIG    1       20.333  -2.288  -0.819  0.00  0.00    -0.356 N 
ATOM     26  H   LIG    1       21.146  -1.782  -0.668  0.00  0.00    +0.142 HD
ATOM     27  H   LIG    1       19.492  -1.824  -0.956  0.00  0.00    +0.142 HD
ENDBRANCH  16  25
BRANCH  22  28
ATOM     28  S   LIG    1       20.431  -8.244  -0.925  0.00  0.00    +0.110 S 
ATOM     29  O   LIG    1       19.265  -8.665  -1.686  0.00  0.00    -0.142 OA
ATOM     30  O   LIG    1       20.370  -8.693   0.457  0.00  0.00    -0.142 OA
BRANCH  28  31
ATOM     31  O   LIG    1       21.673  -8.640  -1.571  0.00  0.00    -0.250 OA
ATOM     32  H   LIG    1       22.425  -8.343  -1.036  0.00  0.00    +0.245 HD
ENDBRANCH  28  31
ENDBRANCH  22  28
ENDBRANCH  14  15
ENDBRANCH  10  13
ENDBRANCH   4   7
BRANCH   1  34
ATOM     33  N   LIG    1        7.388  -0.492  -3.001  0.00  0.00    -0.147 NA
ATOM     34  N   LIG    1        8.470   0.185  -2.816  0.00  0.00    -0.149 NA
BRANCH  33  40
ATOM     35  C   LIG    1        1.442   1.479  -3.975  0.00  0.00    +0.001 A 
ATOM     36  C   LIG    1        2.587   2.191  -3.778  0.00  0.00    +0.010 A 
ATOM     37  C   LIG    1        3.802   1.516  -3.582  0.00  0.00    +0.011 A 
ATOM     38  C   LIG    1        5.001   2.227  -3.376  0.00  0.00    +0.127 A 
ATOM     39  C   LIG    1        6.167   1.561  -3.187  0.00  0.00    +0.061 A 
ATOM     40  C   LIG    1        6.205   0.153  -3.192  0.00  0.00    +0.109 A 
ATOM     41  C   LIG    1        5.035  -0.584  -3.393  0.00  0.00    +0.060 A 
ATOM     42  C   LIG    1        3.816   0.099  -3.591  0.00  0.00    +0.007 A 
ATOM     43  C   LIG    1        2.618  -0.602  -3.796  0.00  0.00    +0.010 A 
ATOM     44  C   LIG    1        1.457   0.086  -3.983  0.00  0.00    +0.001 A 
BRANCH  38  45
ATOM     45  S   LIG    1        4.985   3.989  -3.365  0.00  0.00    +0.110 S 
ATOM     46  O   LIG    1        6.335   4.425  -3.684  0.00  0.00    -0.142 OA
ATOM     47  O   LIG    1        4.584   4.399  -2.028  0.00  0.00    -0.142 OA
BRANCH  45  48
ATOM     48  O   LIG    1        4.025   4.409  -4.373  0.00  0.00    -0.250 OA
ATOM     49  H   LIG    1        3.140   4.100  -4.125  0.00  0.00    +0.245 HD
ENDBRANCH  45  48
ENDBRANCH  38  45
BRANCH  41  50
ATOM     50  N   LIG    1        5.071  -1.968  -3.399  0.00  0.00    -0.356 N 
ATOM     51  H   LIG    1        4.256  -2.474  -3.539  0.00  0.00    +0.142 HD
ATOM     52  H   LIG    1        5.912  -2.432  -3.262  0.00  0.00    +0.142 HD
ENDBRANCH  41  50
ENDBRANCH  33  40
ENDBRANCH   1  34
TORSDOF 11
