REMARK  Name = ZINC29404698
REMARK                            x       y       z     vdW  Elec       q    Type
REMARK                         _______ _______ _______ _____ _____    ______ ____
ROOT
ATOM      1  C   LIG    1       -1.373  -4.103   1.218  0.00  0.00    +0.028 A 
ATOM      2  C   LIG    1       -1.392  -2.744   1.224  0.00  0.00    +0.007 A 
ATOM      3  C   LIG    1       -1.413  -2.041   0.005  0.00  0.00    -0.031 A 
ATOM      4  C   LIG    1       -1.421  -2.701  -1.169  0.00  0.00    +0.096 A 
ATOM      5  N   LIG    1       -1.397  -4.071  -1.197  0.00  0.00    -0.306 N 
ATOM      6  C   LIG    1       -1.393  -4.974  -2.202  0.00  0.00    +0.204 A 
ATOM      7  N   LIG    1       -1.372  -6.183  -1.699  0.00  0.00    -0.243 NA
ATOM      8  C   LIG    1       -1.360  -6.120  -0.367  0.00  0.00    +0.138 A 
ATOM      9  C   LIG    1       -1.376  -4.785  -0.015  0.00  0.00    +0.065 A 
ENDROOT
BRANCH   3  10
ATOM     10  C   LIG    1       -1.433  -0.534   0.013  0.00  0.00    +0.036 C 
BRANCH  10  11
ATOM     11  C   LIG    1        0.002  -0.004   0.002  0.00  0.00    +0.005 C 
BRANCH  11  12
ATOM     12  C   LIG    1       -0.019   1.526   0.010  0.00  0.00    +0.011 C 
BRANCH  12  13
ATOM     13  C   LIG    1        1.417   2.055  -0.000  0.00  0.00    +0.120 C 
BRANCH  13  14
ATOM     14  C   LIG    1        1.396   3.562   0.008  0.00  0.00    +0.305 C 
ATOM     15  O   LIG    1        0.342   4.152   0.021  0.00  0.00    -0.251 OA
BRANCH  14  16
ATOM     16  O   LIG    1        2.550   4.249   0.001  0.00  0.00    -0.481 OA
ATOM     17  H   LIG    1        3.367   3.792  -0.010  0.00  0.00    +0.295 HD
ENDBRANCH  14  16
ENDBRANCH  13  14
ENDBRANCH  12  13
ENDBRANCH  11  12
ENDBRANCH  10  11
ENDBRANCH   3  10
TORSDOF 6
