REMARK  Name = ZINC28526330
REMARK                            x       y       z     vdW  Elec       q    Type
REMARK                         _______ _______ _______ _____ _____    ______ ____
ROOT
ATOM      1  C   LIG    1       -0.795   1.527  -1.120  0.00  0.00    +0.136 C 
ENDROOT
BRANCH   1   2
ATOM      2  N   LIG    1       -0.012   1.005   0.008  0.00  0.00    +0.397 N 
ATOM      3  H   LIG    1        0.046  -0.091  -0.062  0.00  0.00    -0.087 HD
ATOM      4  H   LIG    1        1.003   1.428  -0.024  0.00  0.00    -0.087 HD
ATOM      5  H   LIG    1       -0.497   1.287   0.954  0.00  0.00    -0.087 HD
ENDBRANCH   1   2
BRANCH   1   6
ATOM      6  P   LIG    1       -0.891   3.344  -1.004  0.00  0.00    +0.328 P 
ATOM      7  O   LIG    1       -1.544   3.723   0.269  0.00  0.00    -0.260 OA
BRANCH   6   8
ATOM      8  O   LIG    1       -1.750   3.916  -2.239  0.00  0.00    -0.325 OA
ATOM      9  H   LIG    1       -1.917   4.999  -2.339  0.00  0.00    +0.220 HD
ENDBRANCH   6   8
BRANCH   6  10
ATOM     10  O   LIG    1        0.594   3.963  -1.050  0.00  0.00    -0.325 OA
ATOM     11  H   LIG    1        1.112   3.619  -0.306  0.00  0.00    +0.220 HD
ENDBRANCH   6  10
ENDBRANCH   1   6
BRANCH   1  12
ATOM     12  P   LIG    1       -2.477   0.825  -1.067  0.00  0.00    +0.328 P 
ATOM     13  O   LIG    1       -3.173   1.303   0.148  0.00  0.00    -0.260 OA
BRANCH  12  14
ATOM     14  O   LIG    1       -2.388  -0.782  -1.037  0.00  0.00    -0.325 OA
ATOM     15  H   LIG    1       -1.895  -1.064  -0.251  0.00  0.00    +0.220 HD
ENDBRANCH  12  14
BRANCH  12  16
ATOM     16  O   LIG    1       -3.295   1.293  -2.373  0.00  0.00    -0.325 OA
ATOM     17  H   LIG    1       -4.335   0.966  -2.517  0.00  0.00    +0.220 HD
ENDBRANCH  12  16
ENDBRANCH   1  12
BRANCH   1  18
ATOM     18  C   LIG    1       -0.120   1.135  -2.436  0.00  0.00    +0.011 C 
BRANCH  18  19
ATOM     19  C   LIG    1       -0.040  -0.390  -2.533  0.00  0.00    -0.000 C 
BRANCH  19  21
ATOM     20  C   LIG    1        0.716  -2.307  -3.946  0.00  0.00    +0.004 C 
ATOM     21  C   LIG    1        0.635  -0.782  -3.849  0.00  0.00    -0.003 C 
ENDBRANCH  19  21
ENDBRANCH  18  19
ENDBRANCH   1  18
TORSDOF 10
