REMARK  Name = ZINC19901364
REMARK                            x       y       z     vdW  Elec       q    Type
REMARK                         _______ _______ _______ _____ _____    ______ ____
ROOT
ATOM      1  N   LIG    1       -6.019  -0.990  -0.069  0.00  0.00    -0.297 NA
ATOM      2  C   LIG    1       -6.033  -1.829  -1.276  0.00  0.00    +0.100 C 
ATOM      3  C   LIG    1       -7.200  -2.817  -1.193  0.00  0.00    +0.100 C 
ATOM      4  N   LIG    1       -8.460  -2.073  -1.057  0.00  0.00    -0.298 NA
ATOM      5  C   LIG    1       -8.445  -1.234   0.149  0.00  0.00    +0.100 C 
ATOM      6  C   LIG    1       -7.279  -0.246   0.067  0.00  0.00    +0.100 C 
ENDROOT
BRANCH   1   7
ATOM      7  C   LIG    1       -4.867  -0.079  -0.076  0.00  0.00    +0.119 C 
BRANCH   7   8
ATOM      8  C   LIG    1       -3.574  -0.889   0.033  0.00  0.00    +0.166 C 
BRANCH   8   9
ATOM      9  O   LIG    1       -3.582  -1.638   1.250  0.00  0.00    -0.387 OA
ATOM     10  H   LIG    1       -4.375  -2.377   1.436  0.00  0.00    +0.210 HD
ENDBRANCH   8   9
BRANCH   8  11
ATOM     11  C   LIG    1       -2.374   0.060   0.026  0.00  0.00    +0.261 C 
BRANCH  11  12
ATOM     12  O   LIG    1       -1.165  -0.701   0.010  0.00  0.00    -0.489 OA
BRANCH  12  18
ATOM     13  C   LIG    1        1.151   3.596   0.010  0.00  0.00    +0.044 C 
ATOM     14  C   LIG    1        1.171   2.089   0.002  0.00  0.00    -0.047 A 
ATOM     15  C   LIG    1        2.377   1.414  -0.013  0.00  0.00    +0.004 A 
ATOM     16  C   LIG    1        2.399   0.032  -0.021  0.00  0.00    +0.008 A 
ATOM     17  C   LIG    1        1.214  -0.679  -0.013  0.00  0.00    -0.003 A 
ATOM     18  C   LIG    1        0.002  -0.004   0.002  0.00  0.00    +0.124 A 
ATOM     19  C   LIG    1       -0.017   1.383   0.010  0.00  0.00    +0.049 A 
BRANCH  17  20
ATOM     20  C   LIG    1        1.238  -2.186  -0.021  0.00  0.00    +0.016 C 
ATOM     21  C   LIG    1        1.979  -2.690   1.219  0.00  0.00    +0.012 C 
ATOM     22  C   LIG    1        1.955  -2.678  -1.280  0.00  0.00    +0.012 C 
ENDBRANCH  17  20
ENDBRANCH  12  18
ENDBRANCH  11  12
ENDBRANCH   8  11
ENDBRANCH   7   8
ENDBRANCH   1   7
BRANCH   4  23
ATOM     23  C   LIG    1       -9.611  -2.984  -1.051  0.00  0.00    +0.106 C 
BRANCH  23  24
ATOM     24  C   LIG    1       -9.736  -3.658  -2.419  0.00  0.00    +0.144 C 
BRANCH  24  25
ATOM     25  N   LIG    1      -10.885  -4.567  -2.412  0.00  0.00    -0.274 N 
ATOM     26  C   LIG    1      -10.695  -5.849  -2.046  0.00  0.00    +0.262 A 
ATOM     27  C   LIG    1      -11.825  -6.790  -2.022  0.00  0.00    +0.048 A 
ATOM     28  C   LIG    1      -11.675  -8.117  -1.648  0.00  0.00    +0.014 A 
ATOM     29  C   LIG    1      -12.772  -8.970  -1.646  0.00  0.00    +0.001 A 
ATOM     30  C   LIG    1      -14.016  -8.537  -2.008  0.00  0.00    +0.008 A 
ATOM     31  C   LIG    1      -14.210  -7.200  -2.394  0.00  0.00    -0.016 A 
ATOM     32  C   LIG    1      -15.470  -6.706  -2.775  0.00  0.00    +0.008 A 
ATOM     33  C   LIG    1      -15.609  -5.398  -3.143  0.00  0.00    +0.001 A 
ATOM     34  C   LIG    1      -14.527  -4.526  -3.154  0.00  0.00    +0.014 A 
ATOM     35  C   LIG    1      -13.267  -4.974  -2.784  0.00  0.00    +0.048 A 
ATOM     36  C   LIG    1      -13.104  -6.324  -2.400  0.00  0.00    +0.007 A 
ATOM     37  O   LIG    1       -9.584  -6.229  -1.729  0.00  0.00    -0.267 OA
ATOM     38  C   LIG    1      -12.091  -4.092  -2.778  0.00  0.00    +0.262 A 
ATOM     39  O   LIG    1      -12.207  -2.926  -3.105  0.00  0.00    -0.267 OA
ENDBRANCH  24  25
ENDBRANCH  23  24
ENDBRANCH   4  23
TORSDOF 10
