REMARK  Name = ZINC27518642
REMARK                            x       y       z     vdW  Elec       q    Type
REMARK                         _______ _______ _______ _____ _____    ______ ____
ROOT
ATOM      1  C   LIG    1        0.005  -0.741  -1.180  0.00  0.00    -0.021 C 
ATOM      2  C   LIG    1        0.045  -0.127  -2.376  0.00  0.00    -0.021 C 
ATOM      3  C   LIG    1        0.006  -1.175  -3.493  0.00  0.00    +0.032 C 
ATOM      4  C   LIG    1       -0.744  -2.306  -2.766  0.00  0.00    +0.007 C 
ATOM      5  C   LIG    1       -0.724  -3.670  -3.368  0.00  0.00    +0.001 C 
ATOM      6  C   LIG    1        0.267  -3.845  -4.521  0.00  0.00    +0.031 C 
ATOM      7  C   LIG    1        0.081  -5.244  -5.051  0.00  0.00    -0.027 C 
ATOM      8  C   LIG    1       -0.409  -6.215  -4.346  0.00  0.00    -0.065 C 
ATOM      9  C   LIG    1       -0.802  -6.103  -2.892  0.00  0.00    -0.008 C 
ATOM     10  C   LIG    1       -0.041  -7.173  -2.102  0.00  0.00    +0.016 C 
ATOM     11  C   LIG    1       -2.295  -6.371  -2.767  0.00  0.00    +0.014 C 
ATOM     12  C   LIG    1       -2.850  -6.908  -4.086  0.00  0.00    +0.032 C 
ATOM     13  C   LIG    1       -2.016  -8.058  -4.638  0.00  0.00    +0.119 C 
ATOM     14  C   LIG    1       -0.604  -7.577  -4.992  0.00  0.00    +0.062 C 
ATOM     15  C   LIG    1       -0.403  -4.745  -2.322  0.00  0.00    +0.003 C 
ATOM     16  C   LIG    1       -1.092  -4.444  -1.004  0.00  0.00    +0.005 C 
ATOM     17  C   LIG    1       -0.659  -3.100  -0.396  0.00  0.00    +0.012 C 
ATOM     18  C   LIG    1        0.019  -2.234  -1.422  0.00  0.00    -0.002 C 
ATOM     19  C   LIG    1        1.496  -2.611  -1.554  0.00  0.00    +0.016 C 
ENDROOT
BRANCH   1  21
ATOM     20  C   LIG    1       -0.022   1.411   0.231  0.00  0.00    +0.069 C 
ATOM     21  C   LIG    1       -0.009  -0.093   0.133  0.00  0.00    +0.080 C 
ATOM     22  N   LIG    1       -0.010  -0.812   1.210  0.00  0.00    -0.092 NA
BRANCH  22  23
ATOM     23  O   LIG    1       -0.023  -0.186   2.480  0.00  0.00    -0.409 OA
ATOM     24  H   LIG    1       -0.023  -0.804   3.223  0.00  0.00    +0.328 HD
ENDBRANCH  22  23
ENDBRANCH   1  21
BRANCH  13  25
ATOM     25  O   LIG    1       -1.945  -9.114  -3.678  0.00  0.00    -0.391 OA
ATOM     26  H   LIG    1       -1.427  -9.877  -3.970  0.00  0.00    +0.210 HD
ENDBRANCH  13  25
TORSDOF 3
