REMARK  Name = ZINC49033430
REMARK                            x       y       z     vdW  Elec       q    Type
REMARK                         _______ _______ _______ _____ _____    ______ ____
ROOT
ATOM      1  N   LIG    1        0.133  -2.739  -0.014  0.00  0.00    -0.175 NA
ATOM      2  C   LIG    1        0.154  -4.064  -0.021  0.00  0.00    +0.172 C 
ATOM      3  C   LIG    1       -0.990  -4.999  -0.021  0.00  0.00    +0.126 C 
ATOM      4  N   LIG    1       -0.457  -6.207  -0.031  0.00  0.00    -0.143 NA
ATOM      5  N   LIG    1        0.822  -6.160  -0.037  0.00  0.00    -0.109 NA
ATOM      6  C   LIG    1        1.288  -4.929  -0.038  0.00  0.00    +0.262 C 
ENDROOT
BRANCH   3   7
ATOM      7  C   LIG    1       -2.427  -4.654  -0.012  0.00  0.00    +0.007 A 
ATOM      8  C   LIG    1       -2.847  -3.318  -0.007  0.00  0.00    +0.030 A 
ATOM      9  C   LIG    1       -4.198  -3.042   0.002  0.00  0.00    +0.111 A 
ATOM     10  N   LIG    1       -5.089  -4.016   0.006  0.00  0.00    -0.263 NA
ATOM     11  C   LIG    1       -4.736  -5.288   0.002  0.00  0.00    +0.111 A 
ATOM     12  C   LIG    1       -3.407  -5.655  -0.013  0.00  0.00    +0.030 A 
ENDBRANCH   3   7
BRANCH   1  13
ATOM     13  N   LIG    1        1.239  -2.075  -0.021  0.00  0.00    -0.236 N 
ATOM     14  H   LIG    1        2.087  -2.547  -0.033  0.00  0.00    +0.174 HD
BRANCH  13  20
ATOM     15  C   LIG    1       -0.017   1.376   0.010  0.00  0.00    +0.002 A 
ATOM     16  C   LIG    1        1.171   2.087   0.002  0.00  0.00    +0.002 A 
ATOM     17  C   LIG    1        2.381   1.418  -0.013  0.00  0.00    +0.022 A 
ATOM     18  C   LIG    1        2.408   0.036  -0.021  0.00  0.00    +0.063 A 
ATOM     19 CL   LIG    1        3.928  -0.803  -0.041  0.00  0.00    -0.082 Cl
ATOM     20  C   LIG    1        1.216  -0.681  -0.013  0.00  0.00    +0.067 A 
ATOM     21  C   LIG    1        0.002  -0.004   0.002  0.00  0.00    +0.026 A 
ENDBRANCH  13  20
ENDBRANCH   1  13
BRANCH   6  22
ATOM     22  O   LIG    1        2.592  -4.556  -0.051  0.00  0.00    -0.490 OA
ATOM     23  H   LIG    1        2.820  -3.647  -0.051  0.00  0.00    +0.294 HD
ENDBRANCH   6  22
TORSDOF 4
