REMARK  Name = ZINC26816150
REMARK                            x       y       z     vdW  Elec       q    Type
REMARK                         _______ _______ _______ _____ _____    ______ ____
ROOT
ATOM      1  C   LIG    1        0.275  -2.008   1.613  0.00  0.00    +0.285 C 
ATOM      2  C   LIG    1        1.189  -2.433   2.552  0.00  0.00    +0.060 C 
ATOM      3  C   LIG    1        1.639  -1.530   3.687  0.00  0.00    +0.063 C 
ATOM      4  C   LIG    1        2.252  -0.267   3.078  0.00  0.00    +0.018 C 
ATOM      5  C   LIG    1        2.650  -2.128   4.648  0.00  0.00    +0.065 C 
ATOM      6  C   LIG    1        3.063  -3.408   4.414  0.00  0.00    +0.049 C 
ATOM      7  C   LIG    1        4.066  -4.029   5.351  0.00  0.00    +0.066 C 
ATOM      8  N   LIG    1        2.614  -4.124   3.394  0.00  0.00    -0.256 NA
ATOM      9  C   LIG    1        1.738  -3.716   2.505  0.00  0.00    +0.049 C 
ATOM     10  C   LIG    1        1.320  -4.653   1.402  0.00  0.00    +0.066 C 
ENDROOT
BRANCH   1  11
ATOM     11  O   LIG    1        0.017  -2.768   0.531  0.00  0.00    -0.480 OA
ATOM     12  H   LIG    1       -0.605  -2.478  -0.108  0.00  0.00    +0.295 HD
ENDBRANCH   1  11
BRANCH   5  13
ATOM     13  C   LIG    1        3.143  -1.390   5.738  0.00  0.00    +0.337 C 
ATOM     14  O   LIG    1        3.865  -1.927   6.559  0.00  0.00    -0.245 OA
BRANCH  13  15
ATOM     15  O   LIG    1        2.816  -0.087   5.876  0.00  0.00    -0.460 OA
BRANCH  15  16
ATOM     16  C   LIG    1        3.353   0.601   7.007  0.00  0.00    +0.243 C 
BRANCH  16  17
ATOM     17  C   LIG    1        2.876   2.055   6.994  0.00  0.00    +0.115 C 
BRANCH  17  18
ATOM     18  S   LIG    1        3.558   2.928   8.430  0.00  0.00    -0.122 S 
BRANCH  18  19
ATOM     19  C   LIG    1        2.926   4.565   8.273  0.00  0.00    +0.008 A 
ATOM     20  C   LIG    1        2.098   4.893   7.206  0.00  0.00    +0.015 A 
ATOM     21  C   LIG    1        1.605   6.177   7.086  0.00  0.00    +0.001 A 
ATOM     22  C   LIG    1        1.934   7.136   8.027  0.00  0.00    +0.000 A 
ATOM     23  C   LIG    1        2.757   6.814   9.090  0.00  0.00    +0.001 A 
ATOM     24  C   LIG    1        3.249   5.530   9.219  0.00  0.00    +0.015 A 
ENDBRANCH  18  19
ENDBRANCH  17  18
ENDBRANCH  16  17
ENDBRANCH  15  16
ENDBRANCH  13  15
ENDBRANCH   5  13
BRANCH   1  25
ATOM     25  O   LIG    1       -0.363  -0.832   1.778  0.00  0.00    -0.464 OA
BRANCH  25  27
ATOM     26  C   LIG    1       -1.916   0.900   1.123  0.00  0.00    +0.048 C 
ATOM     27  C   LIG    1       -1.298  -0.453   0.766  0.00  0.00    +0.229 C 
ENDBRANCH  25  27
ENDBRANCH   1  25
TORSDOF 9
