REMARK  Name = ZINC25723677
REMARK                            x       y       z     vdW  Elec       q    Type
REMARK                         _______ _______ _______ _____ _____    ______ ____
ROOT
ATOM      1  CA  LEU A  1        3.685   1.571   3.242  0.00  0.00    +0.159 C 
ENDROOT
BRANCH   1   4
ATOM      2  N   LEU A  1        1.295   1.129   2.783  0.00  0.00    -0.304 N 
ATOM      3  H   LEU A  1        1.366   1.821   1.931  0.00  0.00    +0.149 HD
ATOM      4  C   LEU A  1        2.364   0.929   3.579  0.00  0.00    +0.234 C 
ATOM      5  O   LEU A  1        2.263   0.233   4.567  0.00  0.00    -0.274 OA
BRANCH   2   6
ATOM      6  CA  LEU A  1        0.039   0.424   3.052  0.00  0.00    +0.136 C 
BRANCH   6   7
ATOM      7  C   LEU A  1       -0.759   1.193   4.073  0.00  0.00    +0.245 C 
ATOM      8  O   LEU A  1       -0.324   2.223   4.529  0.00  0.00    -0.299 OA
ENDBRANCH   6   7
BRANCH   6   9
ATOM      9  C   LEU A  1       -0.767   0.306   1.757  0.00  0.00    +0.030 C 
BRANCH   9  10
ATOM     10  C   LEU A  1       -0.011  -0.579   0.764  0.00  0.00    +0.002 C 
BRANCH  10  12
ATOM     11  C   LEU A  1       -0.062  -1.581  -1.524  0.00  0.00    +0.004 C 
ATOM     12  C   LEU A  1       -0.818  -0.696  -0.531  0.00  0.00    -0.003 C 
ENDBRANCH  10  12
ENDBRANCH   9  10
ENDBRANCH   6   9
ENDBRANCH   2   6
ENDBRANCH   1   4
BRANCH   1  13
ATOM     13  N   LEU A  1        4.766   0.843   3.910  0.00  0.00    -0.302 N 
ATOM     14  H   LEU A  1        4.572   0.316   4.856  0.00  0.00    +0.150 HD
ATOM     15  C   LEU A  1        6.000   0.819   3.367  0.00  0.00    +0.234 C 
ATOM     16  O   LEU A  1        6.237   1.474   2.374  0.00  0.00    -0.274 OA
BRANCH  15  17
ATOM     17  CA  LEU A  1        7.082  -0.022   3.992  0.00  0.00    +0.159 C 
BRANCH  17  18
ATOM     18  N   LEU A  1        8.139  -0.268   3.007  0.00  0.00    -0.304 N 
ATOM     19  H   LEU A  1        8.389  -1.298   2.714  0.00  0.00    +0.149 HD
ATOM     20  C   UNK A  0        8.806   0.768   2.461  0.00  0.00    +0.211 C 
ATOM     21  C   UNK A  0        9.893   0.515   1.449  0.00  0.00    +0.109 C 
ATOM     22  O   UNK A  0        8.531   1.905   2.785  0.00  0.00    -0.276 OA
ENDBRANCH  17  18
BRANCH  17  23
ATOM     23  CB  LEU A  1        7.670   0.716   5.197  0.00  0.00    +0.034 C 
BRANCH  23  24
ATOM     24  CG  LEU A  1        8.681  -0.187   5.905  0.00  0.00    -0.015 C 
ATOM     25  CD2 LEU A  1        7.957  -1.403   6.489  0.00  0.00    +0.007 C 
ATOM     26  CD1 LEU A  1        9.359   0.592   7.034  0.00  0.00    +0.007 C 
ENDBRANCH  23  24
ENDBRANCH  17  23
ENDBRANCH  15  17
ENDBRANCH   1  13
BRANCH   1  27
ATOM     27  CB  LEU A  1        3.681   3.026   3.716  0.00  0.00    +0.034 C 
BRANCH  27  28
ATOM     28  CG  LEU A  1        2.650   3.821   2.911  0.00  0.00    -0.015 C 
ATOM     29  CD2 LEU A  1        3.088   3.889   1.447  0.00  0.00    +0.007 C 
ATOM     30  CD1 LEU A  1        2.545   5.239   3.478  0.00  0.00    +0.007 C 
ENDBRANCH  27  28
ENDBRANCH   1  27
TORSDOF 13
