REMARK  Name = ZINC40933774
REMARK                            x       y       z     vdW  Elec       q    Type
REMARK                         _______ _______ _______ _____ _____    ______ ____
ROOT
ATOM      1  C   LIG    1       -4.171  -6.516  -0.009  0.00  0.00    +0.018 A 
ATOM      2  C   LIG    1       -2.992  -7.247  -0.200  0.00  0.00    +0.013 A 
ATOM      3  C   LIG    1       -3.030  -8.617  -0.200  0.00  0.00    +0.024 A 
ATOM      4  C   LIG    1       -4.238  -9.282  -0.012  0.00  0.00    +0.033 A 
ATOM      5  C   LIG    1       -5.413  -8.560   0.178  0.00  0.00    +0.024 A 
ATOM      6  C   LIG    1       -5.384  -7.189   0.186  0.00  0.00    +0.013 A 
ENDROOT
BRANCH   4   7
ATOM      7  N   LIG    1       -4.272 -10.675  -0.013  0.00  0.00    -0.286 N 
ATOM      8  H   LIG    1       -5.047 -11.141  -0.363  0.00  0.00    +0.155 HD
ATOM      9  C   LIG    1       -3.227 -11.375   0.472  0.00  0.00    +0.214 C 
ATOM     10  C   LIG    1       -3.211 -12.878   0.362  0.00  0.00    +0.109 C 
ATOM     11  O   LIG    1       -2.300 -10.795   0.996  0.00  0.00    -0.276 OA
ENDBRANCH   4   7
BRANCH   1  12
ATOM     12  C   LIG    1       -4.136  -5.048  -0.007  0.00  0.00    +0.173 C 
ATOM     13  O   LIG    1       -5.158  -4.417   0.163  0.00  0.00    -0.291 OA
BRANCH  12  14
ATOM     14  C   LIG    1       -2.830  -4.325  -0.216  0.00  0.00    +0.157 C 
BRANCH  14  15
ATOM     15  S   LIG    1       -3.114  -2.534  -0.161  0.00  0.00    -0.073 S 
BRANCH  15  16
ATOM     16  C   LIG    1       -1.515  -1.841  -0.418  0.00  0.00    +0.201 C 
ATOM     17  S   LIG    1       -0.163  -2.867  -0.645  0.00  0.00    -0.004 S 
BRANCH  16  18
ATOM     18  O   LIG    1       -1.356  -0.503  -0.437  0.00  0.00    -0.480 OA
BRANCH  18  20
ATOM     19  C   LIG    1       -0.049   1.520  -0.640  0.00  0.00    +0.048 C 
ATOM     20  C   LIG    1       -0.032  -0.010  -0.651  0.00  0.00    +0.227 C 
ENDBRANCH  18  20
ENDBRANCH  16  18
ENDBRANCH  15  16
ENDBRANCH  14  15
ENDBRANCH  12  14
ENDBRANCH   1  12
TORSDOF 7
