REMARK  Name = ZINC14960708
REMARK                            x       y       z     vdW  Elec       q    Type
REMARK                         _______ _______ _______ _____ _____    ______ ____
ROOT
ATOM      1  C   LIG    1       -0.074   1.327   0.093  0.00  0.00    +0.029 A 
ATOM      2  C   LIG    1        1.073   2.064   0.060  0.00  0.00    +0.012 A 
ATOM      3  C   LIG    1        2.311   1.409   0.018  0.00  0.00    +0.007 A 
ATOM      4  C   LIG    1        2.350  -0.008   0.010  0.00  0.00    +0.047 A 
ATOM      5  C   LIG    1        3.658  -0.661  -0.034  0.00  0.00    +0.240 A 
ATOM      6  N   LIG    1        4.750   0.092  -0.065  0.00  0.00    -0.220 NA
ATOM      7  C   LIG    1        4.702   1.416  -0.057  0.00  0.00    +0.135 A 
ATOM      8  C   LIG    1        1.156  -0.732   0.044  0.00  0.00    +0.042 A 
ATOM      9  C   LIG    1        3.533   2.110  -0.017  0.00  0.00    +0.067 A 
ATOM     10 CL   LIG    1        3.546   3.846  -0.010  0.00  0.00    -0.081 Cl
ATOM     11  C   LIG    1       -0.034  -0.064   0.085  0.00  0.00    +0.106 A 
ENDROOT
BRANCH  11  12
ATOM     12  S   LIG    1       -1.540  -0.976   0.129  0.00  0.00    +0.056 S 
ATOM     13  O   LIG    1       -2.514  -0.124   0.716  0.00  0.00    -0.153 OA
ATOM     14  O   LIG    1       -1.226  -2.255   0.664  0.00  0.00    -0.153 OA
BRANCH  12  15
ATOM     15  N   LIG    1       -2.010  -1.222  -1.440  0.00  0.00    -0.204 NA
ATOM     16  H   LIG    1       -2.825  -1.711  -1.631  0.00  0.00    +0.144 HD
ATOM     17  H   LIG    1       -1.469  -0.878  -2.167  0.00  0.00    +0.144 HD
ENDBRANCH  12  15
ENDBRANCH  11  12
BRANCH   5  18
ATOM     18  N   LIG    1        3.753  -2.017  -0.043  0.00  0.00    -0.052 NA
ATOM     19  C   LIG    1        3.685  -2.674  -1.182  0.00  0.00    +0.384 C 
BRANCH  19  20
ATOM     20  N   LIG    1        3.663  -4.043  -1.183  0.00  0.00    -0.289 N 
ATOM     21  H   LIG    1        3.612  -4.528  -2.022  0.00  0.00    +0.255 HD
ATOM     22  H   LIG    1        3.697  -4.529  -0.344  0.00  0.00    +0.255 HD
ENDBRANCH  19  20
BRANCH  19  23
ATOM     23  N   LIG    1        3.637  -1.988  -2.367  0.00  0.00    -0.289 N 
ATOM     24  H   LIG    1        3.509  -2.468  -3.200  0.00  0.00    +0.255 HD
ATOM     25  H   LIG    1        3.730  -1.023  -2.372  0.00  0.00    +0.255 HD
ENDBRANCH  19  23
ENDBRANCH   5  18
TORSDOF 5
