REMARK  Name = ZINC22309089
REMARK                            x       y       z     vdW  Elec       q    Type
REMARK                         _______ _______ _______ _____ _____    ______ ____
ROOT
ATOM      1  C   LIG    1       -0.090   1.450   0.364  0.00  0.00    +0.083 C 
ATOM      2  C   LIG    1       -0.027  -0.030  -0.019  0.00  0.00    +0.305 C 
ENDROOT
BRANCH   2   3
ATOM      3  P   LIG    1       -1.702  -0.746   0.045  0.00  0.00    +0.383 P 
ATOM      4  O   LIG    1       -1.622  -2.269  -0.205  0.00  0.00    -0.254 OA
BRANCH   3   5
ATOM      5  O   LIG    1       -2.621  -0.064  -1.088  0.00  0.00    -0.321 OA
ATOM      6  H   LIG    1       -3.529  -0.398  -1.112  0.00  0.00    +0.220 HD
ENDBRANCH   3   5
BRANCH   3   7
ATOM      7  O   LIG    1       -2.321  -0.484   1.436  0.00  0.00    -0.321 OA
ATOM      8  H   LIG    1       -1.768  -0.895   2.119  0.00  0.00    +0.220 HD
ENDBRANCH   3   7
ENDBRANCH   2   3
BRANCH   2   9
ATOM      9  P   LIG    1        0.639  -0.193  -1.708  0.00  0.00    +0.383 P 
ATOM     10  O   LIG    1       -0.253   0.626  -2.702  0.00  0.00    -0.254 OA
BRANCH   9  11
ATOM     11  O   LIG    1        0.637  -1.702  -2.128  0.00  0.00    -0.321 OA
ATOM     12  H   LIG    1       -0.271  -2.043  -2.104  0.00  0.00    +0.220 HD
ENDBRANCH   9  11
BRANCH   9  13
ATOM     13  O   LIG    1        2.105   0.359  -1.747  0.00  0.00    -0.321 OA
ATOM     14  H   LIG    1        2.106   1.293  -1.488  0.00  0.00    +0.220 HD
ENDBRANCH   9  13
ENDBRANCH   2   9
BRANCH   2  15
ATOM     15  O   LIG    1        0.823  -0.724   0.896  0.00  0.00    -0.462 OA
BRANCH  15  16
ATOM     16  C   LIG    1        2.098  -0.268   1.022  0.00  0.00    +0.123 A 
ATOM     17  C   LIG    1        2.484   0.898   0.378  0.00  0.00    +0.049 A 
ATOM     18  C   LIG    1        3.779   1.362   0.506  0.00  0.00    +0.049 A 
ATOM     19  C   LIG    1        4.693   0.661   1.278  0.00  0.00    +0.117 A 
ATOM     20  C   LIG    1        4.307  -0.505   1.923  0.00  0.00    +0.049 A 
ATOM     21  C   LIG    1        3.010  -0.966   1.799  0.00  0.00    +0.049 A 
BRANCH  19  22
ATOM     22  O   LIG    1        5.968   1.116   1.403  0.00  0.00    -0.507 OA
ATOM     23  H   LIG    1        6.099   1.719   2.148  0.00  0.00    +0.292 HD
ENDBRANCH  19  22
ENDBRANCH  15  16
ENDBRANCH   2  15
TORSDOF 9
