REMARK  Name = ZINC14658010
REMARK                            x       y       z     vdW  Elec       q    Type
REMARK                         _______ _______ _______ _____ _____    ______ ____
ROOT
ATOM      1  C   LIG    1        2.064   1.114   1.238  0.00  0.00    -0.048 C 
ATOM      2  N   LIG    1        3.401   1.740   1.239  0.00  0.00    +0.382 N 
ATOM      3  H   LIG    1        3.928   1.409   2.055  0.00  0.00    -0.086 HD
ATOM      4  H   LIG    1        3.898   1.477   0.380  0.00  0.00    -0.086 HD
ATOM      5  C   LIG    1        3.281   3.209   1.301  0.00  0.00    -0.048 C 
ATOM      6  C   LIG    1        2.539   3.719   0.063  0.00  0.00    +0.128 C 
ATOM      7  C   LIG    1        1.146   3.086   0.013  0.00  0.00    +0.168 C 
ATOM      8  C   LIG    1        1.286   1.562  -0.002  0.00  0.00    +0.128 C 
ENDROOT
BRANCH   6   9
ATOM      9  O   LIG    1        2.416   5.141   0.133  0.00  0.00    -0.391 OA
ATOM     10  H   LIG    1        3.262   5.608   0.171  0.00  0.00    +0.210 HD
ENDBRANCH   6   9
BRANCH   7  11
ATOM     11  O   LIG    1        0.398   3.486   1.163  0.00  0.00    -0.387 OA
ATOM     12  H   LIG    1        0.270   4.442   1.236  0.00  0.00    +0.210 HD
ENDBRANCH   7  11
BRANCH   8  13
ATOM     13  O   LIG    1       -0.011   0.963   0.007  0.00  0.00    -0.391 OA
ATOM     14  H   LIG    1        0.002  -0.004   0.002  0.00  0.00    +0.210 HD
ENDBRANCH   8  13
TORSDOF 3
