REMARK  Name = ZINC19168079
REMARK                            x       y       z     vdW  Elec       q    Type
REMARK                         _______ _______ _______ _____ _____    ______ ____
ROOT
ATOM      1  C   LIG    1        1.853   4.119  -1.243  0.00  0.00    +0.010 C 
ATOM      2  C   LIG    1        1.151   3.592   0.010  0.00  0.00    +0.001 C 
ENDROOT
BRANCH   2   3
ATOM      3  C   LIG    1        1.171   2.086   0.002  0.00  0.00    -0.046 A 
ATOM      4  C   LIG    1       -0.017   1.378   0.010  0.00  0.00    +0.004 A 
ATOM      5  C   LIG    1        0.002  -0.004   0.002  0.00  0.00    +0.000 A 
ATOM      6  C   LIG    1        1.208  -0.679  -0.014  0.00  0.00    +0.000 A 
ATOM      7  C   LIG    1        2.396   0.029  -0.021  0.00  0.00    +0.000 A 
ATOM      8  C   LIG    1        2.377   1.411  -0.014  0.00  0.00    +0.004 A 
ENDBRANCH   2   3
BRANCH   2   9
ATOM      9  C   LIG    1        1.876   4.106   1.255  0.00  0.00    -0.052 C 
BRANCH   9  10
ATOM     10  N   LIG    1        1.754   5.568   1.325  0.00  0.00    +0.386 N 
ATOM     11  H   LIG    1        0.690   5.844   1.381  0.00  0.00    -0.061 HD
ATOM     12  H   LIG    1        2.203   6.017   0.428  0.00  0.00    -0.061 HD
BRANCH  10  13
ATOM     13  N   LIG    1        2.433   6.092   2.499  0.00  0.00    -0.381 NA
ATOM     14  H   LIG    1        2.086   5.659   3.342  0.00  0.00    +0.098 HD
ATOM     15  H   LIG    1        2.349   7.096   2.547  0.00  0.00    +0.098 HD
ENDBRANCH  10  13
ENDBRANCH   9  10
ENDBRANCH   2   9
TORSDOF 4
