REMARK  Name = ZINC14954393
REMARK                            x       y       z     vdW  Elec       q    Type
REMARK                         _______ _______ _______ _____ _____    ______ ____
ROOT
ATOM      1  C   LIG    1       -2.524  -0.252   0.027  0.00  0.00    +0.061 C 
ATOM      2  C   LIG    1       -2.490   1.250  -0.100  0.00  0.00    +0.016 C 
ATOM      3  C   LIG    1       -1.308   1.888  -0.108  0.00  0.00    +0.039 C 
ATOM      4  C   LIG    1       -1.254   3.389  -0.227  0.00  0.00    +0.064 C 
ATOM      5  C   LIG    1       -2.403   3.866  -1.125  0.00  0.00    +0.109 C 
ATOM      6  C   LIG    1       -3.683   3.203  -0.688  0.00  0.00    +0.218 C 
ATOM      7  O   LIG    1       -4.733   3.803  -0.772  0.00  0.00    -0.275 OA
ATOM      8  N   LIG    1       -3.667   1.947  -0.204  0.00  0.00    -0.289 N 
ATOM      9  H   LIG    1       -4.497   1.529   0.073  0.00  0.00    +0.154 HD
ENDROOT
BRANCH   4  10
ATOM     10  C   LIG    1       -1.389   4.007   1.140  0.00  0.00    -0.039 A 
ATOM     11  C   LIG    1       -2.525   3.777   1.894  0.00  0.00    +0.005 A 
ATOM     12  C   LIG    1       -2.647   4.340   3.150  0.00  0.00    +0.012 A 
ATOM     13  C   LIG    1       -1.637   5.141   3.650  0.00  0.00    +0.055 A 
ATOM     14  C   LIG    1       -0.503   5.375   2.894  0.00  0.00    +0.012 A 
ATOM     15  C   LIG    1       -0.380   4.809   1.639  0.00  0.00    +0.005 A 
BRANCH  13  16
ATOM     16  C   LIG    1       -1.772   5.758   5.018  0.00  0.00    +0.417 C 
ATOM     17  F   LIG    1       -0.503   5.913   5.586  0.00  0.00    -0.166 F 
ATOM     18  F   LIG    1       -2.548   4.926   5.831  0.00  0.00    -0.166 F 
ATOM     19  F   LIG    1       -2.388   7.009   4.907  0.00  0.00    -0.166 F 
ENDBRANCH  13  16
ENDBRANCH   4  10
BRANCH   3  20
ATOM     20  C   LIG    1       -0.105   1.146   0.002  0.00  0.00    +0.246 C 
ATOM     21  N   LIG    1        1.084   1.765  -0.140  0.00  0.00    -0.279 N 
ATOM     22  H   LIG    1        1.116   2.716  -0.328  0.00  0.00    +0.155 HD
ATOM     23  O   LIG    1       -0.146  -0.051   0.219  0.00  0.00    -0.270 OA
BRANCH  21  24
ATOM     24  C   LIG    1        2.273   1.035  -0.016  0.00  0.00    +0.070 A 
ATOM     25  C   LIG    1        2.308  -0.290  -0.399  0.00  0.00    +0.037 A 
ATOM     26  C   LIG    1        3.500  -1.014  -0.278  0.00  0.00    +0.021 A 
ATOM     27  C   LIG    1        3.882  -2.390  -0.582  0.00  0.00    +0.142 A 
ATOM     28  N   LIG    1        5.136  -2.535  -0.263  0.00  0.00    -0.181 NA
ATOM     29  N   LIG    1        5.644  -1.335   0.246  0.00  0.00    -0.277 N 
ATOM     30  H   LIG    1        6.582  -1.190   0.561  0.00  0.00    +0.189 HD
ATOM     31  C   LIG    1        4.649  -0.390   0.243  0.00  0.00    +0.069 A 
ATOM     32  C   LIG    1        4.593   0.947   0.629  0.00  0.00    +0.068 A 
ATOM     33  C   LIG    1        3.417   1.650   0.500  0.00  0.00    +0.147 A 
ATOM     34  F   LIG    1        3.367   2.947   0.876  0.00  0.00    -0.203 F 
ENDBRANCH  21  24
ENDBRANCH   3  20
TORSDOF 4
