REMARK  Name = ZINC16319438
REMARK                            x       y       z     vdW  Elec       q    Type
REMARK                         _______ _______ _______ _____ _____    ______ ____
ROOT
ATOM      1  S   LIG    1       -0.056  -2.967  -0.180  0.00  0.00    +0.076 S 
ATOM      2  O   LIG    1        0.144  -4.329   0.173  0.00  0.00    -0.150 OA
ATOM      3  O   LIG    1        0.399  -2.425  -1.412  0.00  0.00    -0.150 OA
ENDROOT
BRANCH   1  10
ATOM      4  C   LIG    1        0.626  -0.619   1.042  0.00  0.00    +0.147 A 
ATOM      5  C   LIG    1        1.202   0.139   2.051  0.00  0.00    +0.050 A 
ATOM      6  C   LIG    1        1.836  -0.487   3.107  0.00  0.00    +0.042 A 
ATOM      7  C   LIG    1        1.896  -1.869   3.158  0.00  0.00    +0.125 A 
ATOM      8  F   LIG    1        2.516  -2.480   4.192  0.00  0.00    -0.205 F 
ATOM      9  C   LIG    1        1.322  -2.626   2.152  0.00  0.00    +0.070 A 
ATOM     10  C   LIG    1        0.682  -2.003   1.097  0.00  0.00    +0.153 A 
BRANCH   4  12
ATOM     11  C   LIG    1       -0.017   1.425   0.010  0.00  0.00    +0.277 C 
ATOM     12  O   LIG    1        0.002  -0.004   0.002  0.00  0.00    -0.493 OA
ENDBRANCH   4  12
ENDBRANCH   1  10
BRANCH   1  13
ATOM     13  N   LIG    1       -1.688  -2.696  -0.117  0.00  0.00    -0.215 N 
ATOM     14  H   LIG    1       -2.060  -2.084   0.559  0.00  0.00    +0.174 HD
BRANCH  13  15
ATOM     15  C   LIG    1       -2.538  -3.336  -1.023  0.00  0.00    +0.066 A 
ATOM     16  C   LIG    1       -3.912  -3.111  -0.983  0.00  0.00    +0.027 A 
ATOM     17  C   LIG    1       -4.713  -3.768  -1.901  0.00  0.00    +0.022 A 
ATOM     18  C   LIG    1       -4.128  -4.620  -2.821  0.00  0.00    +0.111 A 
ATOM     19  N   LIG    1       -2.824  -4.811  -2.833  0.00  0.00    -0.261 NA
ATOM     20  C   LIG    1       -2.024  -4.201  -1.980  0.00  0.00    +0.135 A 
ENDBRANCH  13  15
ENDBRANCH   1  13
TORSDOF 4
