REMARK  Name = ZINC34026476
REMARK                            x       y       z     vdW  Elec       q    Type
REMARK                         _______ _______ _______ _____ _____    ______ ____
ROOT
ATOM      1  N   LIG    1        2.337   2.552  -1.295  0.00  0.00    +0.391 N 
ATOM      2  H   LIG    1        2.757   3.094  -0.436  0.00  0.00    -0.080 HD
ATOM      3  C   LIG    1        0.874   2.322  -1.171  0.00  0.00    -0.068 C 
ATOM      4  C   LIG    1        0.752   1.057  -0.295  0.00  0.00    +0.015 C 
ATOM      5  C   LIG    1        2.091   0.312  -0.479  0.00  0.00    +0.094 C 
ATOM      6  C   LIG    1        2.908   1.190  -1.451  0.00  0.00    -0.023 C 
ENDROOT
BRANCH   4   7
ATOM      7  C   LIG    1        0.559   1.435   1.151  0.00  0.00    -0.042 A 
ATOM      8  C   LIG    1        1.446   2.302   1.762  0.00  0.00    +0.007 A 
ATOM      9  C   LIG    1        1.272   2.652   3.088  0.00  0.00    +0.050 A 
ATOM     10  C   LIG    1        0.208   2.134   3.808  0.00  0.00    +0.166 A 
ATOM     11  C   LIG    1       -0.685   1.260   3.193  0.00  0.00    +0.166 A 
ATOM     12  O   LIG    1       -1.635   0.894   4.103  0.00  0.00    -0.453 OA
ATOM     13  C   LIG    1       -1.550   1.868   5.160  0.00  0.00    +0.466 C 
ATOM     14  O   LIG    1       -0.182   2.315   5.104  0.00  0.00    -0.453 OA
ATOM     15  C   LIG    1       -0.508   0.918   1.862  0.00  0.00    +0.053 A 
ENDBRANCH   4   7
BRANCH   6  16
ATOM     16  C   LIG    1        4.365   1.184  -1.065  0.00  0.00    -0.060 A 
ATOM     17  C   LIG    1        5.022   2.378  -0.834  0.00  0.00    +0.005 A 
ATOM     18  C   LIG    1        6.356   2.375  -0.475  0.00  0.00    +0.046 A 
ATOM     19  C   LIG    1        7.040   1.173  -0.358  0.00  0.00    +0.120 A 
ATOM     20  C   LIG    1        6.379  -0.024  -0.597  0.00  0.00    +0.046 A 
ATOM     21  C   LIG    1        5.043  -0.015  -0.949  0.00  0.00    +0.005 A 
BRANCH  19  22
ATOM     22  O   LIG    1        8.354   1.168  -0.011  0.00  0.00    -0.495 OA
ATOM     23  C   LIG    1        8.969   2.437   0.219  0.00  0.00    +0.277 C 
ENDBRANCH  19  22
ENDBRANCH   6  16
BRANCH   5  24
ATOM     24  C   LIG    1        2.806   0.186   0.841  0.00  0.00    +0.307 C 
ATOM     25  O   LIG    1        3.493   1.094   1.244  0.00  0.00    -0.251 OA
BRANCH  24  26
ATOM     26  O   LIG    1        2.680  -0.934   1.569  0.00  0.00    -0.480 OA
ATOM     27  H   LIG    1        2.147  -1.639   1.256  0.00  0.00    +0.295 HD
ENDBRANCH  24  26
ENDBRANCH   5  24
BRANCH   1  28
ATOM     28  C   LIG    1        2.640   3.387  -2.465  0.00  0.00    +0.020 C 
BRANCH  28  30
ATOM     29  N   LIG    1        1.967   5.592  -3.361  0.00  0.00    -0.303 N 
ATOM     30  C   LIG    1        1.848   4.667  -2.389  0.00  0.00    +0.199 C 
ATOM     31  O   LIG    1        1.103   4.864  -1.452  0.00  0.00    -0.278 OA
BRANCH  29  32
ATOM     32  C   LIG    1        1.196   6.836  -3.287  0.00  0.00    +0.107 C 
BRANCH  32  33
ATOM     33  C   LIG    1        2.007   7.894  -2.535  0.00  0.00    +0.019 C 
BRANCH  33  35
ATOM     34  C   LIG    1        2.012  10.250  -1.705  0.00  0.00    +0.004 C 
ATOM     35  C   LIG    1        1.202   9.193  -2.457  0.00  0.00    -0.002 C 
ENDBRANCH  33  35
ENDBRANCH  32  33
ENDBRANCH  29  32
BRANCH  29  36
ATOM     36  C   LIG    1        2.866   5.354  -4.493  0.00  0.00    +0.107 C 
BRANCH  36  37
ATOM     37  C   LIG    1        2.100   4.647  -5.613  0.00  0.00    +0.019 C 
BRANCH  37  38
ATOM     38  C   LIG    1        3.040   4.398  -6.795  0.00  0.00    -0.002 C 
ATOM     39  C   LIG    1        2.274   3.691  -7.915  0.00  0.00    +0.004 C 
ENDBRANCH  37  38
ENDBRANCH  36  37
ENDBRANCH  29  36
ENDBRANCH  28  30
ENDBRANCH   1  28
TORSDOF 13
