REMARK  Name = ZINC40861880
REMARK                            x       y       z     vdW  Elec       q    Type
REMARK                         _______ _______ _______ _____ _____    ______ ____
ROOT
ATOM      1  C   LIG    1        4.741  -4.855   5.075  0.00  0.00    +0.192 A 
ATOM      2  N   LIG    1        6.016  -4.607   5.339  0.00  0.00    -0.207 NA
ATOM      3  C   LIG    1        6.497  -4.768   6.568  0.00  0.00    +0.129 A 
ATOM      4  C   LIG    1        5.639  -5.203   7.580  0.00  0.00    +0.084 A 
ATOM      5  C   LIG    1        4.316  -5.451   7.262  0.00  0.00    +0.135 A 
ATOM      6 CL   LIG    1        3.207  -5.994   8.482  0.00  0.00    -0.062 Cl
ATOM      7  N   LIG    1        3.902  -5.264   6.016  0.00  0.00    -0.210 NA
ENDROOT
BRANCH   3   8
ATOM      8  N   LIG    1        7.831  -4.508   6.841  0.00  0.00    -0.299 N 
ATOM      9  H   LIG    1        8.195  -4.710   7.717  0.00  0.00    +0.154 HD
BRANCH   8  10
ATOM     10  C   LIG    1        8.650  -3.955   5.854  0.00  0.00    +0.032 A 
ATOM     11  C   LIG    1        8.134  -3.015   4.969  0.00  0.00    +0.024 A 
ATOM     12  C   LIG    1        8.941  -2.468   3.995  0.00  0.00    +0.010 A 
ATOM     13  C   LIG    1       10.276  -2.857   3.897  0.00  0.00    -0.018 A 
ATOM     14  C   LIG    1       10.792  -3.799   4.786  0.00  0.00    +0.010 A 
ATOM     15  C   LIG    1        9.983  -4.340   5.762  0.00  0.00    +0.024 A 
BRANCH  13  16
ATOM     16  C   LIG    1       11.146  -2.270   2.849  0.00  0.00    -0.018 A 
ATOM     17  C   LIG    1       10.633  -1.324   1.964  0.00  0.00    +0.008 A 
ATOM     18  C   LIG    1       11.447  -0.781   0.990  0.00  0.00    +0.001 A 
ATOM     19  C   LIG    1       12.770  -1.175   0.893  0.00  0.00    +0.000 A 
ATOM     20  C   LIG    1       13.284  -2.113   1.770  0.00  0.00    +0.001 A 
ATOM     21  C   LIG    1       12.481  -2.658   2.751  0.00  0.00    +0.008 A 
ENDBRANCH  13  16
ENDBRANCH   8  10
ENDBRANCH   3   8
BRANCH   1  22
ATOM     22  S   LIG    1        4.144  -4.628   3.433  0.00  0.00    -0.071 S 
BRANCH  22  23
ATOM     23  C   LIG    1        2.388  -5.067   3.539  0.00  0.00    +0.162 C 
BRANCH  23  24
ATOM     24  C   LIG    1        2.256  -6.529   3.880  0.00  0.00    +0.318 C 
ATOM     25  O   LIG    1        2.559  -7.377   3.057  0.00  0.00    -0.250 OA
BRANCH  24  26
ATOM     26  O   LIG    1        1.845  -6.865   4.977  0.00  0.00    -0.480 OA
ATOM     27  H   LIG    1        1.611  -6.214   5.609  0.00  0.00    +0.295 HD
ENDBRANCH  24  26
ENDBRANCH  23  24
BRANCH  23  28
ATOM     28  C   LIG    1        1.711  -4.794   2.194  0.00  0.00    +0.026 C 
BRANCH  28  29
ATOM     29  C   LIG    1        1.736  -3.291   1.907  0.00  0.00    +0.002 C 
BRANCH  29  30
ATOM     30  C   LIG    1        1.059  -3.017   0.563  0.00  0.00    +0.000 C 
BRANCH  30  31
ATOM     31  C   LIG    1        1.084  -1.515   0.276  0.00  0.00    -0.000 C 
BRANCH  31  33
ATOM     32  C   LIG    1        0.432   0.262  -1.356  0.00  0.00    +0.004 C 
ATOM     33  C   LIG    1        0.407  -1.241  -1.069  0.00  0.00    -0.003 C 
ENDBRANCH  31  33
ENDBRANCH  30  31
ENDBRANCH  29  30
ENDBRANCH  28  29
ENDBRANCH  23  28
ENDBRANCH  22  23
ENDBRANCH   1  22
TORSDOF 12
