REMARK  Name = ZINC19537554
REMARK                            x       y       z     vdW  Elec       q    Type
REMARK                         _______ _______ _______ _____ _____    ______ ____
ROOT
ATOM      1  N   LIG    1        0.704   7.756  -1.024  0.00  0.00    +0.384 N 
ATOM      2  H   LIG    1        1.179   7.410  -1.953  0.00  0.00    -0.081 HD
ATOM      3  C   LIG    1        1.462   7.202   0.107  0.00  0.00    -0.059 C 
ATOM      4  C   LIG    1        1.460   5.674   0.018  0.00  0.00    +0.088 C 
ATOM      5  N   LIG    1        0.073   5.187   0.028  0.00  0.00    -0.319 N 
ATOM      6  C   LIG    1       -0.685   5.742  -1.102  0.00  0.00    +0.088 C 
ATOM      7  C   LIG    1       -0.683   7.270  -1.014  0.00  0.00    -0.059 C 
ENDROOT
BRANCH   5   8
ATOM      8  C   LIG    1        0.033   3.798   0.021  0.00  0.00    +0.121 A 
ATOM      9  C   LIG    1       -1.195   3.144   0.029  0.00  0.00    +0.043 A 
ATOM     10  C   LIG    1       -1.221   1.761   0.017  0.00  0.00    +0.005 A 
ATOM     11  C   LIG    1       -0.013   1.076   0.008  0.00  0.00    +0.020 A 
ATOM     12  C   LIG    1        1.169   1.789   0.001  0.00  0.00    +0.113 A 
ATOM     13  N   LIG    1        1.163   3.109   0.007  0.00  0.00    -0.240 NA
ENDBRANCH   5   8
BRANCH   1  14
ATOM     14  C   LIG    1        0.746   9.225  -1.016  0.00  0.00    -0.040 C 
BRANCH  14  17
ATOM     15  C   LIG    1        2.341   9.815  -3.613  0.00  0.00    +0.063 C 
ATOM     16  C   LIG    1        0.858  10.008  -3.436  0.00  0.00    +0.015 A 
ATOM     17  C   LIG    1        0.176   9.751  -2.308  0.00  0.00    -0.036 A 
ATOM     18  C   LIG    1       -1.226  10.083  -2.570  0.00  0.00    +0.001 A 
ATOM     19  C   LIG    1       -2.394  10.037  -1.806  0.00  0.00    +0.010 A 
ATOM     20  C   LIG    1       -3.581  10.428  -2.357  0.00  0.00    +0.001 A 
ATOM     21  C   LIG    1       -3.637  10.871  -3.671  0.00  0.00    +0.002 A 
ATOM     22  C   LIG    1       -2.497  10.925  -4.443  0.00  0.00    +0.026 A 
ATOM     23  C   LIG    1       -1.277  10.531  -3.902  0.00  0.00    +0.047 A 
ATOM     24  N   LIG    1        0.005  10.470  -4.401  0.00  0.00    -0.358 N 
ATOM     25  H   LIG    1        0.391  10.728  -5.398  0.00  0.00    +0.166 HD
ENDBRANCH  14  17
ENDBRANCH   1  14
TORSDOF 3
