REMARK  Name = ZINC21991225
REMARK                            x       y       z     vdW  Elec       q    Type
REMARK                         _______ _______ _______ _____ _____    ______ ____
ROOT
ATOM      1  C   LIG    1       -2.727   1.334  -0.079  0.00  0.00    +0.005 C 
ATOM      2  C   LIG    1       -3.690   2.415   0.415  0.00  0.00    +0.021 C 
ATOM      3  C   LIG    1       -4.237   1.088  -0.113  0.00  0.00    +0.055 C 
ENDROOT
BRANCH   3   4
ATOM      4  C   LIG    1       -4.915   1.100  -1.459  0.00  0.00    +0.309 C 
ATOM      5  O   LIG    1       -4.253   1.178  -2.467  0.00  0.00    -0.250 OA
BRANCH   4   6
ATOM      6  O   LIG    1       -6.252   1.024  -1.538  0.00  0.00    -0.480 OA
ATOM      7  H   LIG    1       -6.765   0.964  -0.756  0.00  0.00    +0.295 HD
ENDBRANCH   4   6
ENDBRANCH   3   4
BRANCH   1   8
ATOM      8  C   LIG    1       -1.912   0.579   0.973  0.00  0.00    +0.007 C 
BRANCH   8  10
ATOM      9  C   LIG    1        0.021   0.286  -0.583  0.00  0.00    +0.007 C 
ATOM     10  C   LIG    1       -0.423   0.862   0.763  0.00  0.00    -0.017 C 
ATOM     11  C   LIG    1        0.384   0.210   1.888  0.00  0.00    +0.007 C 
ENDBRANCH   8  10
ENDBRANCH   1   8
BRANCH   3  12
ATOM     12  C   LIG    1       -4.816   0.106   0.908  0.00  0.00    -0.068 C 
BRANCH  12  13
ATOM     13  N   LIG    1       -4.649   0.653   2.262  0.00  0.00    +0.379 N 
ATOM     14  H   LIG    1       -3.579   0.806   2.466  0.00  0.00    -0.090 HD
ATOM     15  H   LIG    1       -5.178   1.614   2.337  0.00  0.00    -0.090 HD
ATOM     16  H   LIG    1       -5.065  -0.053   2.996  0.00  0.00    -0.090 HD
ENDBRANCH  12  13
ENDBRANCH   3  12
TORSDOF 6
