REMARK  Name = ZINC14951777
REMARK                            x       y       z     vdW  Elec       q    Type
REMARK                         _______ _______ _______ _____ _____    ______ ____
ROOT
ATOM      1  C   LIG    1       -1.236   3.136   0.029  0.00  0.00    +0.045 A 
ATOM      2  C   LIG    1       -0.046   3.833   0.029  0.00  0.00    +0.007 A 
ATOM      3  C   LIG    1        1.170   3.159   0.023  0.00  0.00    -0.045 A 
ATOM      4  C   LIG    1        1.180   1.781   0.000  0.00  0.00    -0.034 A 
ATOM      5  C   LIG    1        2.470   1.005  -0.053  0.00  0.00    -0.004 C 
ATOM      6  C   LIG    1        2.341  -0.319   0.692  0.00  0.00    +0.012 C 
ATOM      7  C   LIG    1        3.662  -1.087   0.592  0.00  0.00    +0.001 C 
ATOM      8  C   LIG    1        4.791  -0.252   1.197  0.00  0.00    +0.000 C 
ATOM      9  C   LIG    1        4.912   1.077   0.447  0.00  0.00    +0.003 C 
ATOM     10  C   LIG    1        2.809   0.728  -1.492  0.00  0.00    -0.007 C 
ATOM     11  C   LIG    1        2.854   2.074  -2.226  0.00  0.00    -0.078 C 
ATOM     12  N   LIG    1        3.927   2.911  -1.637  0.00  0.00    +0.382 N 
ATOM     13  H   LIG    1        4.820   2.414  -1.732  0.00  0.00    -0.081 HD
ATOM     14  C   LIG    1        3.673   3.160  -0.202  0.00  0.00    -0.060 C 
ATOM     15  C   LIG    1        3.593   1.841   0.564  0.00  0.00    -0.014 C 
ATOM     16  C   LIG    1       -0.013   1.076   0.008  0.00  0.00    +0.049 A 
ATOM     17  C   LIG    1        2.426   3.986   0.065  0.00  0.00    +0.020 C 
ATOM     18  C   LIG    1       -1.224   1.748   0.017  0.00  0.00    +0.117 A 
ENDROOT
BRANCH  18  19
ATOM     19  O   LIG    1       -2.392   1.054   0.020  0.00  0.00    -0.507 OA
ATOM     20  H   LIG    1       -2.726   0.849   0.904  0.00  0.00    +0.292 HD
ENDBRANCH  18  19
BRANCH  12  21
ATOM     21  C   LIG    1        4.017   4.191  -2.355  0.00  0.00    -0.075 C 
BRANCH  21  22
ATOM     22  C   LIG    1        4.484   3.909  -3.785  0.00  0.00    -0.028 C 
ATOM     23  C   LIG    1        5.851   4.456  -4.202  0.00  0.00    +0.002 C 
ATOM     24  C   LIG    1        4.571   5.096  -4.747  0.00  0.00    +0.002 C 
ENDBRANCH  21  22
ENDBRANCH  12  21
TORSDOF 3
