REMARK  Name = ZINC43203068
REMARK                            x       y       z     vdW  Elec       q    Type
REMARK                         _______ _______ _______ _____ _____    ______ ____
ROOT
ATOM      1  C   LIG    1        1.115   7.347   1.229  0.00  0.00    +0.403 C 
ATOM      2  N   LIG    1       -0.067   7.948   1.072  0.00  0.00    +0.011 NA
ENDROOT
BRANCH   1   3
ATOM      3  N   LIG    1        1.777   7.471   2.373  0.00  0.00    -0.242 N 
ATOM      4  H   LIG    1        1.477   8.109   3.040  0.00  0.00    +0.265 HD
ATOM      5  C   LIG    1        2.867   6.711   2.609  0.00  0.00    +0.109 A 
ATOM      6  C   LIG    1        3.017   5.467   1.991  0.00  0.00    +0.043 A 
ATOM      7  C   LIG    1        4.137   4.698   2.239  0.00  0.00    +0.005 A 
ATOM      8  C   LIG    1        5.135   5.121   3.093  0.00  0.00    +0.026 A 
ATOM      9  C   LIG    1        5.046   6.348   3.739  0.00  0.00    +0.050 A 
ATOM     10  N   LIG    1        6.036   6.772   4.589  0.00  0.00    -0.361 N 
ATOM     11  H   LIG    1        6.817   6.196   4.755  0.00  0.00    +0.165 HD
ATOM     12  C   LIG    1        5.950   7.966   5.197  0.00  0.00    +0.083 A 
ATOM     13  C   LIG    1        4.869   8.793   5.006  0.00  0.00    +0.018 A 
ATOM     14  C   LIG    1        3.836   8.411   4.161  0.00  0.00    +0.015 A 
ATOM     15  C   LIG    1        3.921   7.174   3.513  0.00  0.00    +0.037 A 
ENDBRANCH   1   3
BRANCH   1  16
ATOM     16  N   LIG    1        1.649   6.597   0.202  0.00  0.00    -0.268 N 
ATOM     17  H   LIG    1        2.549   6.244   0.277  0.00  0.00    +0.259 HD
BRANCH  16  18
ATOM     18  C   LIG    1        0.856   6.334  -1.002  0.00  0.00    +0.172 C 
ATOM     19  C   LIG    1        1.004   7.504  -1.976  0.00  0.00    +0.053 C 
BRANCH  18  23
ATOM     20  C   LIG    1        2.242   2.749  -2.866  0.00  0.00    +0.000 A 
ATOM     21  C   LIG    1        0.887   3.016  -2.803  0.00  0.00    +0.000 A 
ATOM     22  C   LIG    1        0.439   4.176  -2.199  0.00  0.00    +0.007 A 
ATOM     23  C   LIG    1        1.345   5.069  -1.659  0.00  0.00    -0.011 A 
ATOM     24  C   LIG    1        2.700   4.801  -1.721  0.00  0.00    +0.007 A 
ATOM     25  C   LIG    1        3.148   3.639  -2.320  0.00  0.00    +0.000 A 
ENDBRANCH  18  23
ENDBRANCH  16  18
ENDBRANCH   1  16
BRANCH   2  26
ATOM     26  C   LIG    1       -0.526   8.798   2.022  0.00  0.00    +0.295 C 
ATOM     27  N   LIG    1       -0.911   9.510   2.819  0.00  0.00    -0.151 NA
ENDBRANCH   2  26
TORSDOF 5
