REMARK  Name = ZINC35931795
REMARK                            x       y       z     vdW  Elec       q    Type
REMARK                         _______ _______ _______ _____ _____    ______ ____
ROOT
ATOM      1  C   LIG    1        0.604  -0.490  -1.307  0.00  0.00    +0.018 C 
ENDROOT
BRANCH   1   2
ATOM      2  C   LIG    1        2.052  -0.080  -1.392  0.00  0.00    +0.202 C 
ATOM      3  N   LIG    1        2.450   0.792  -2.339  0.00  0.00    -0.303 N 
ATOM      4  C   LIG    1        1.607   1.336  -3.413  0.00  0.00    +0.108 C 
ATOM      5  C   LIG    1        2.494   2.268  -4.265  0.00  0.00    +0.020 C 
ATOM      6  C   LIG    1        3.927   1.758  -3.960  0.00  0.00    +0.020 C 
ATOM      7  C   LIG    1        3.803   1.365  -2.465  0.00  0.00    +0.108 C 
ATOM      8  O   LIG    1        2.858  -0.535  -0.608  0.00  0.00    -0.277 OA
ENDBRANCH   1   2
BRANCH   1  10
ATOM      9  C   LIG    1       -0.036   1.841  -0.673  0.00  0.00    +0.009 C 
ATOM     10  C   LIG    1       -0.109   0.369  -0.260  0.00  0.00    -0.042 C 
ATOM     11  C   LIG    1       -1.574  -0.061  -0.160  0.00  0.00    +0.009 C 
ATOM     12  C   LIG    1        0.571   0.186   1.098  0.00  0.00    +0.009 C 
ENDBRANCH   1  10
BRANCH   1  13
ATOM     13  N   LIG    1        0.518  -1.905  -0.920  0.00  0.00    +0.386 N 
ATOM     14  H   LIG    1       -0.452  -2.179  -0.863  0.00  0.00    -0.089 HD
ATOM     15  H   LIG    1        0.958  -2.035  -0.021  0.00  0.00    -0.089 HD
ATOM     16  H   LIG    1        0.988  -2.471  -1.610  0.00  0.00    -0.089 HD
ENDBRANCH   1  13
TORSDOF 3
