REMARK  Name = ZINC13985502
REMARK                            x       y       z     vdW  Elec       q    Type
REMARK                         _______ _______ _______ _____ _____    ______ ____
ROOT
ATOM      1  C   LIG    1       -1.136  -4.870   0.300  0.00  0.00    +0.093 C 
ATOM      2  C   LIG    1       -1.544  -5.026   1.790  0.00  0.00    +0.043 C 
ATOM      3  C   LIG    1       -0.691  -6.245   2.220  0.00  0.00    +0.108 C 
ATOM      4  N   LIG    1       -0.687  -7.136   1.046  0.00  0.00    -0.313 N 
ATOM      5  C   LIG    1       -0.941  -6.330  -0.162  0.00  0.00    +0.128 C 
ENDROOT
BRANCH   1   9
ATOM      6  N   LIG    1        1.237  -2.080  -0.021  0.00  0.00    -0.268 N 
ATOM      7  H   LIG    1        2.081  -2.551  -0.099  0.00  0.00    +0.156 HD
ATOM      8  C   LIG    1        0.086  -2.773   0.088  0.00  0.00    +0.304 C 
ATOM      9  N   LIG    1        0.115  -4.117   0.182  0.00  0.00    -0.295 N 
ATOM     10  H   LIG    1        0.964  -4.586   0.170  0.00  0.00    +0.151 HD
ATOM     11  O   LIG    1       -0.978  -2.186   0.102  0.00  0.00    -0.252 OA
BRANCH   6  17
ATOM     12  C   LIG    1        0.135   1.378  -0.616  0.00  0.00    +0.002 A 
ATOM     13  C   LIG    1        1.168   2.086  -0.029  0.00  0.00    +0.001 A 
ATOM     14  C   LIG    1        2.224   1.416   0.560  0.00  0.00    +0.017 A 
ATOM     15  C   LIG    1        2.250   0.034   0.564  0.00  0.00    +0.039 A 
ATOM     16 BR   LIG    1        3.694  -0.883   1.369  0.00  0.00    -0.048 Br
ATOM     17  C   LIG    1        1.214  -0.681  -0.024  0.00  0.00    +0.049 A 
ATOM     18  C   LIG    1        0.155  -0.003  -0.615  0.00  0.00    +0.024 A 
ENDBRANCH   6  17
ENDBRANCH   1   9
BRANCH   4  19
ATOM     19  C   LIG    1       -0.477  -8.510   1.073  0.00  0.00    +0.121 A 
ATOM     20  C   LIG    1       -0.357  -9.166   2.294  0.00  0.00    +0.044 A 
ATOM     21  C   LIG    1       -0.148 -10.533   2.306  0.00  0.00    +0.017 A 
ATOM     22  C   LIG    1       -0.067 -11.201   1.091  0.00  0.00    +0.073 A 
ATOM     23  C   LIG    1       -0.195 -10.488  -0.083  0.00  0.00    +0.125 A 
ATOM     24  N   LIG    1       -0.398  -9.184  -0.064  0.00  0.00    -0.240 NA
BRANCH  22  25
ATOM     25  C   LIG    1        0.160 -12.691   1.056  0.00  0.00    +0.419 C 
ATOM     26  F   LIG    1        0.905 -13.076   2.176  0.00  0.00    -0.166 F 
ATOM     27  F   LIG    1        0.860 -13.028  -0.108  0.00  0.00    -0.166 F 
ATOM     28  F   LIG    1       -1.073 -13.351   1.067  0.00  0.00    -0.166 F 
ENDBRANCH  22  25
ENDBRANCH   4  19
TORSDOF 4
