REMARK  Name = ZINC20549702
REMARK                            x       y       z     vdW  Elec       q    Type
REMARK                         _______ _______ _______ _____ _____    ______ ____
ROOT
ATOM      1  CA  HIS A  1        1.417   2.032  -0.001  0.00  0.00    +0.188 C 
ENDROOT
BRANCH   1   3
ATOM      2  C   UNK A  0        3.432   1.538   1.277  0.00  0.00    +0.248 C 
ATOM      3  N   HIS A  1        2.089   1.647   1.243  0.00  0.00    -0.298 N 
ATOM      4  H   HIS A  1        1.498   1.446   2.148  0.00  0.00    +0.150 HD
ATOM      5  O   UNK A  0        4.086   1.760   0.276  0.00  0.00    -0.270 OA
BRANCH   2  10
ATOM      6  C   UNK A  0        5.381   0.421   4.883  0.00  0.00    +0.003 A 
ATOM      7  C   UNK A  0        5.151   1.758   4.611  0.00  0.00    +0.021 A 
ATOM      8  C   UNK A  0        4.518   2.128   3.441  0.00  0.00    +0.054 A 
ATOM      9 CL   UNK A  0        4.230   3.807   3.102  0.00  0.00    -0.083 Cl
ATOM     10  C   UNK A  0        4.110   1.150   2.531  0.00  0.00    +0.073 A 
ATOM     11  C   UNK A  0        4.340  -0.199   2.815  0.00  0.00    +0.054 A 
ATOM     12 CL   UNK A  0        3.831  -1.424   1.696  0.00  0.00    -0.083 Cl
ATOM     13  C   UNK A  0        4.980  -0.554   3.987  0.00  0.00    +0.021 A 
ENDBRANCH   2  10
ENDBRANCH   1   3
BRANCH   1  14
ATOM     14  C   HIS A  1        1.397   3.535  -0.116  0.00  0.00    +0.326 C 
ATOM     15  O   HIS A  1        1.894   4.214   0.751  0.00  0.00    -0.249 OA
BRANCH  14  16
ATOM     16  OXT HIS A  1        0.828   4.118  -1.183  0.00  0.00    -0.479 OA
ATOM     17  HXT HIS A  1        0.443   3.592  -1.855  0.00  0.00    +0.295 HD
ENDBRANCH  14  16
ENDBRANCH   1  14
BRANCH   1  18
ATOM     18  CB  HIS A  1       -0.018   1.503   0.010  0.00  0.00    +0.088 C 
BRANCH  18  19
ATOM     19  CG  HIS A  1        0.002  -0.004   0.002  0.00  0.00    +0.035 A 
ATOM     20  CD2 HIS A  1       -0.599  -0.809   0.899  0.00  0.00    +0.105 A 
ATOM     21  NE2 HIS A  1       -0.332  -2.096   0.518  0.00  0.00    -0.352 N 
ATOM     22  HE2 HIS A  1       -0.731  -2.937   1.104  0.00  0.00    +0.166 HD
ATOM     23  CE1 HIS A  1        0.431  -2.033  -0.594  0.00  0.00    +0.171 A 
ATOM     24  ND1 HIS A  1        0.627  -0.779  -0.897  0.00  0.00    -0.350 N 
ATOM     25  HD1 HIS A  1        1.190  -0.319  -1.723  0.00  0.00    +0.166 HD
ENDBRANCH  18  19
ENDBRANCH   1  18
TORSDOF 6
