REMARK  Name = ZINC64475084
REMARK                            x       y       z     vdW  Elec       q    Type
REMARK                         _______ _______ _______ _____ _____    ______ ____
ROOT
ATOM      1  C   LIG    1        0.902  -2.037   1.028  0.00  0.00    +0.052 C 
ENDROOT
BRANCH   1   2
ATOM      2  C   LIG    1        1.625  -2.574   2.237  0.00  0.00    -0.005 A 
ATOM      3  C   LIG    1        2.998  -2.721   2.213  0.00  0.00    +0.007 A 
ATOM      4  C   LIG    1        3.662  -3.214   3.321  0.00  0.00    +0.000 A 
ATOM      5  C   LIG    1        2.952  -3.561   4.456  0.00  0.00    +0.004 A 
ATOM      6  C   LIG    1        1.579  -3.416   4.486  0.00  0.00    +0.046 A 
ATOM      7  C   LIG    1        0.912  -2.916   3.376  0.00  0.00    +0.123 A 
BRANCH   7   8
ATOM      8  O   LIG    1       -0.439  -2.767   3.405  0.00  0.00    -0.495 OA
ATOM      9  C   LIG    1       -1.107  -3.139   4.611  0.00  0.00    +0.277 C 
ENDBRANCH   7   8
ENDBRANCH   1   2
BRANCH   1  10
ATOM     10  C   LIG    1        0.706  -0.527   1.180  0.00  0.00    +0.070 C 
BRANCH  10  12
ATOM     11  C   LIG    1       -0.018   1.465   0.010  0.00  0.00    +0.084 C 
ATOM     12  N   LIG    1        0.002  -0.004   0.002  0.00  0.00    -0.358 NA
BRANCH  12  13
ATOM     13  N   LIG    1       -1.346  -0.543  -0.082  0.00  0.00    +0.389 N 
ATOM     14  H   LIG    1       -1.863  -0.285   0.745  0.00  0.00    -0.065 HD
ATOM     15  H   LIG    1       -1.302  -1.549  -0.151  0.00  0.00    -0.065 HD
ATOM     16  H   LIG    1       -1.807  -0.169  -0.897  0.00  0.00    -0.065 HD
ENDBRANCH  12  13
ENDBRANCH  10  12
ENDBRANCH   1  10
TORSDOF 5
