REMARK  Name = ZINC28956968
REMARK                            x       y       z     vdW  Elec       q    Type
REMARK                         _______ _______ _______ _____ _____    ______ ____
ROOT
ATOM      1  C   LIG    1        7.439  -0.363  -0.072  0.00  0.00    +0.068 C 
ATOM      2  C   LIG    1        5.977  -0.732  -0.060  0.00  0.00    +0.073 A 
ATOM      3  N   LIG    1        5.475  -1.977  -0.062  0.00  0.00    -0.178 NA
ATOM      4  N   LIG    1        4.076  -1.923  -0.048  0.00  0.00    -0.276 N 
ATOM      5  H   LIG    1        3.323  -2.725  -0.044  0.00  0.00    +0.189 HD
ATOM      6  C   LIG    1        3.699  -0.671  -0.038  0.00  0.00    +0.080 A 
ATOM      7  C   LIG    1        2.401   0.034  -0.022  0.00  0.00    +0.027 A 
ATOM      8  C   LIG    1        1.206  -0.679  -0.015  0.00  0.00    +0.032 A 
ATOM      9  C   LIG    1        0.002  -0.004   0.000  0.00  0.00    +0.042 A 
ATOM     10 CL   LIG    1       -1.490  -0.891   0.010  0.00  0.00    -0.084 Cl
ATOM     11  C   LIG    1       -0.017   1.382   0.007  0.00  0.00    +0.022 A 
ATOM     12  C   LIG    1        1.161   2.099   0.000  0.00  0.00    +0.030 A 
ATOM     13  C   LIG    1        2.385   1.436  -0.015  0.00  0.00    +0.077 A 
ATOM     14  N   LIG    1        3.561   2.171  -0.023  0.00  0.00    -0.212 NA
ATOM     15  C   LIG    1        4.781   1.606  -0.037  0.00  0.00    +0.224 A 
ATOM     16  C   LIG    1        4.921   0.146  -0.046  0.00  0.00    +0.084 A 
ENDROOT
BRANCH  15  17
ATOM     17  O   LIG    1        5.774   2.310  -0.043  0.00  0.00    -0.492 OA
ATOM     18  H   LIG    1        6.625   1.918  -0.053  0.00  0.00    +0.294 HD
ENDBRANCH  15  17
TORSDOF 1
