REMARK  Name = ZINC21986188
REMARK                            x       y       z     vdW  Elec       q    Type
REMARK                         _______ _______ _______ _____ _____    ______ ____
ROOT
ATOM      1  C   LIG    1        5.468  -2.782   4.976  0.00  0.00    +0.075 C 
ATOM      2  C   LIG    1        6.836  -3.472   4.942  0.00  0.00    +0.030 C 
ATOM      3  C   LIG    1        6.648  -4.904   4.431  0.00  0.00    +0.097 C 
ATOM      4  C   LIG    1        5.637  -5.609   5.296  0.00  0.00    +0.219 C 
ATOM      5  N   LIG    1        4.657  -4.933   5.913  0.00  0.00    -0.256 N 
ATOM      6  H   LIG    1        4.021  -5.425   6.455  0.00  0.00    +0.157 HD
ATOM      7  O   LIG    1        5.710  -6.811   5.438  0.00  0.00    -0.275 OA
ATOM      8  C   LIG    1        4.521  -3.602   5.811  0.00  0.00    +0.230 C 
ATOM      9  O   LIG    1        3.619  -3.049   6.402  0.00  0.00    -0.274 OA
ENDROOT
BRANCH   1  14
ATOM     10  N   LIG    1        3.975  -0.958   1.409  0.00  0.00    +0.382 N 
ATOM     11  H   LIG    1        4.084  -0.077   1.889  0.00  0.00    -0.081 HD
ATOM     12  C   LIG    1        3.038  -1.806   2.155  0.00  0.00    -0.078 C 
ATOM     13  C   LIG    1        3.543  -1.995   3.587  0.00  0.00    -0.014 C 
ATOM     14  C   LIG    1        4.921  -2.662   3.551  0.00  0.00    +0.005 C 
ATOM     15  C   LIG    1        5.871  -1.806   2.709  0.00  0.00    -0.014 C 
ATOM     16  C   LIG    1        5.279  -1.624   1.310  0.00  0.00    -0.078 C 
BRANCH  10  17
ATOM     17  C   LIG    1        3.446  -0.715   0.060  0.00  0.00    -0.043 C 
BRANCH  17  21
ATOM     18  C   LIG    1       -0.178   1.529   0.330  0.00  0.00    +0.000 A 
ATOM     19  C   LIG    1        1.035   2.185   0.225  0.00  0.00    +0.000 A 
ATOM     20  C   LIG    1        2.208   1.458   0.137  0.00  0.00    +0.002 A 
ATOM     21  C   LIG    1        2.168   0.077   0.156  0.00  0.00    -0.064 A 
ATOM     22  C   LIG    1        0.955  -0.579   0.262  0.00  0.00    +0.002 A 
ATOM     23  C   LIG    1       -0.218   0.148   0.347  0.00  0.00    +0.000 A 
ENDBRANCH  17  21
ENDBRANCH  10  17
ENDBRANCH   1  14
BRANCH   1  24
ATOM     24  C   LIG    1        5.610  -1.408   5.578  0.00  0.00    -0.032 A 
ATOM     25  C   LIG    1        5.238  -0.292   4.851  0.00  0.00    +0.004 A 
ATOM     26  C   LIG    1        5.368   0.968   5.403  0.00  0.00    +0.000 A 
ATOM     27  C   LIG    1        5.870   1.113   6.683  0.00  0.00    +0.000 A 
ATOM     28  C   LIG    1        6.241  -0.002   7.410  0.00  0.00    +0.000 A 
ATOM     29  C   LIG    1        6.107  -1.263   6.860  0.00  0.00    +0.004 A 
ENDBRANCH   1  24
TORSDOF 4
