REMARK  Name = ZINC13981593
REMARK                            x       y       z     vdW  Elec       q    Type
REMARK                         _______ _______ _______ _____ _____    ______ ____
ROOT
ATOM      1  C   LIG    1       -2.546   5.293   0.133  0.00  0.00    +0.220 A 
ATOM      2  N   LIG    1       -1.306   5.683   0.399  0.00  0.00    -0.222 NA
ATOM      3  C   LIG    1       -1.005   6.963   0.531  0.00  0.00    +0.126 A 
ATOM      4  C   LIG    1       -2.015   7.917   0.397  0.00  0.00    +0.048 A 
ATOM      5  C   LIG    1       -3.324   7.466   0.118  0.00  0.00    +0.120 A 
ATOM      6  N   LIG    1       -3.539   6.157  -0.004  0.00  0.00    -0.210 NA
ENDROOT
BRANCH   4   7
ATOM      7  C   LIG    1       -1.722   9.360   0.542  0.00  0.00    +0.078 A 
ATOM      8  C   LIG    1       -0.404   9.808   0.683  0.00  0.00    +0.048 A 
ATOM      9  C   LIG    1       -0.185  11.167   0.812  0.00  0.00    +0.114 A 
ATOM     10  N   LIG    1       -1.221  11.992   0.807  0.00  0.00    -0.244 NA
ATOM     11  C   LIG    1       -2.452  11.539   0.678  0.00  0.00    +0.221 A 
ATOM     12  N   LIG    1       -2.710  10.255   0.547  0.00  0.00    -0.235 NA
ENDBRANCH   4   7
BRANCH   5  13
ATOM     13  C   LIG    1       -4.431   8.426  -0.034  0.00  0.00    +0.154 A 
ATOM     14  C   LIG    1       -5.654   8.337   0.561  0.00  0.00    +0.051 A 
ATOM     15  C   LIG    1       -6.390   9.460   0.142  0.00  0.00    +0.042 A 
ATOM     16  C   LIG    1       -5.595  10.169  -0.686  0.00  0.00    +0.196 A 
ATOM     17  O   LIG    1       -4.414   9.542  -0.789  0.00  0.00    -0.461 OA
ENDBRANCH   5  13
BRANCH   1  18
ATOM     18  N   LIG    1       -2.809   3.942  -0.002  0.00  0.00    -0.282 N 
ATOM     19  H   LIG    1       -3.696   3.644  -0.259  0.00  0.00    +0.155 HD
BRANCH  18  22
ATOM     20  C   LIG    1        0.112   2.252   1.450  0.00  0.00    +0.021 A 
ATOM     21  C   LIG    1       -0.875   3.205   1.258  0.00  0.00    +0.026 A 
ATOM     22  C   LIG    1       -1.798   3.006   0.234  0.00  0.00    +0.052 A 
ATOM     23  C   LIG    1       -1.703   1.859  -0.544  0.00  0.00    +0.134 A 
ATOM     24  N   LIG    1       -0.751   0.975  -0.325  0.00  0.00    -0.261 NA
ATOM     25  C   LIG    1        0.141   1.137   0.633  0.00  0.00    +0.111 A 
ENDBRANCH  18  22
ENDBRANCH   1  18
TORSDOF 4
