REMARK  Name = ZINC00002200
REMARK                            x       y       z     vdW  Elec       q    Type
REMARK                         _______ _______ _______ _____ _____    ______ ____
ROOT
ATOM      1  C   LIG    1       -1.433  -0.534   0.013  0.00  0.00    +0.009 C 
ATOM      2  C   LIG    1       -2.149  -0.040   1.272  0.00  0.00    +0.005 C 
ATOM      3  C   LIG    1       -1.409  -0.547   2.511  0.00  0.00    +0.000 C 
ATOM      4  C   LIG    1        0.026  -0.018   2.500  0.00  0.00    +0.003 C 
ATOM      5  C   LIG    1        0.742  -0.511   1.242  0.00  0.00    +0.040 C 
ATOM      6  C   LIG    1        0.002  -0.004   0.002  0.00  0.00    +0.092 C 
ENDROOT
BRANCH   6   7
ATOM      7  C   LIG    1        0.707  -0.490  -1.238  0.00  0.00    -0.012 A 
ATOM      8  C   LIG    1        0.356  -1.703  -1.802  0.00  0.00    +0.007 A 
ATOM      9  C   LIG    1        0.998  -2.149  -2.942  0.00  0.00    +0.004 A 
ATOM     10  C   LIG    1        1.999  -1.389  -3.515  0.00  0.00    +0.045 A 
ATOM     11  C   LIG    1        2.357  -0.174  -2.948  0.00  0.00    +0.120 A 
ATOM     12  C   LIG    1        1.708   0.274  -1.807  0.00  0.00    +0.052 A 
BRANCH  11  13
ATOM     13  O   LIG    1        3.342   0.575  -3.510  0.00  0.00    -0.495 OA
ATOM     14  C   LIG    1        3.966   0.051  -4.684  0.00  0.00    +0.277 C 
ENDBRANCH  11  13
ENDBRANCH   6   7
BRANCH   6  15
ATOM     15  O   LIG    1       -0.017   1.425   0.010  0.00  0.00    -0.384 OA
ATOM     16  H   LIG    1        0.861   1.830   0.004  0.00  0.00    +0.211 HD
ENDBRANCH   6  15
BRANCH   1  17
ATOM     17  C   LIG    1       -2.173  -0.027  -1.227  0.00  0.00    -0.073 C 
BRANCH  17  19
ATOM     18  C   LIG    1       -4.336   0.006  -2.315  0.00  0.00    -0.097 C 
ATOM     19  N   LIG    1       -3.524  -0.626  -1.254  0.00  0.00    +0.376 N 
ATOM     20  H   LIG    1       -3.978  -0.466  -0.347  0.00  0.00    -0.083 HD
ATOM     21  C   LIG    1       -3.426  -2.082  -1.492  0.00  0.00    -0.097 C 
ENDBRANCH  17  19
ENDBRANCH   1  17
TORSDOF 5
