REMARK  Name = ZINC40953882
REMARK                            x       y       z     vdW  Elec       q    Type
REMARK                         _______ _______ _______ _____ _____    ______ ____
ROOT
ATOM      1  C   LIG    1        1.457  -1.594   4.799  0.00  0.00    +0.109 A 
ATOM      2  C   LIG    1        2.300  -2.614   4.385  0.00  0.00    +0.029 A 
ATOM      3  C   LIG    1        3.620  -2.625   4.782  0.00  0.00    +0.014 A 
ATOM      4  C   LIG    1        4.103  -1.608   5.600  0.00  0.00    +0.028 A 
ATOM      5  C   LIG    1        5.419  -1.311   6.197  0.00  0.00    +0.030 A 
ATOM      6  C   LIG    1        6.659  -1.940   6.162  0.00  0.00    +0.035 A 
ATOM      7  C   LIG    1        7.727  -1.390   6.851  0.00  0.00    +0.037 A 
ATOM      8  C   LIG    1        7.556  -0.213   7.574  0.00  0.00    +0.027 A 
ATOM      9  C   LIG    1        6.329   0.413   7.612  0.00  0.00    +0.049 A 
ATOM     10  C   LIG    1        5.247  -0.126   6.925  0.00  0.00    +0.136 A 
ATOM     11  O   LIG    1        3.962   0.274   6.796  0.00  0.00    -0.455 OA
ATOM     12  C   LIG    1        3.253  -0.576   6.020  0.00  0.00    +0.138 A 
ATOM     13  C   LIG    1        1.927  -0.579   5.605  0.00  0.00    +0.075 A 
ENDROOT
BRANCH   7  14
ATOM     14  N   LIG    1        8.979  -2.018   6.820  0.00  0.00    -0.251 N 
ATOM     15  H   LIG    1        9.561  -1.976   7.595  0.00  0.00    +0.158 HD
ATOM     16  C   LIG    1        9.374  -2.679   5.715  0.00  0.00    +0.404 C 
ATOM     17  O   LIG    1        8.689  -2.651   4.712  0.00  0.00    -0.226 OA
BRANCH  16  18
ATOM     18  O   LIG    1       10.529  -3.373   5.721  0.00  0.00    -0.453 OA
ATOM     19  C   LIG    1       10.886  -4.050   4.515  0.00  0.00    +0.282 C 
ENDBRANCH  16  18
ENDBRANCH   7  14
BRANCH   1  20
ATOM     20  S   LIG    1       -0.228  -1.592   4.284  0.00  0.00    +0.059 S 
ATOM     21  O   LIG    1       -0.562  -2.939   3.982  0.00  0.00    -0.153 OA
ATOM     22  O   LIG    1       -0.944  -0.826   5.243  0.00  0.00    -0.153 OA
BRANCH  20  23
ATOM     23  N   LIG    1       -0.303  -0.754   2.858  0.00  0.00    -0.176 NA
ATOM     24  H   LIG    1       -0.792   0.083   2.812  0.00  0.00    +0.149 HD
BRANCH  23  25
ATOM     25  C   LIG    1        0.370  -1.276   1.666  0.00  0.00    +0.187 C 
BRANCH  25  27
ATOM     26  C   LIG    1       -0.496   0.581   0.235  0.00  0.00    +0.009 C 
ATOM     27  C   LIG    1       -0.458  -0.937   0.424  0.00  0.00    +0.012 C 
ATOM     28  C   LIG    1        0.179  -1.588  -0.806  0.00  0.00    +0.009 C 
ENDBRANCH  25  27
BRANCH  25  29
ATOM     29  C   LIG    1        1.736  -0.650   1.545  0.00  0.00    +0.324 C 
ATOM     30  O   LIG    1        1.931   0.475   1.972  0.00  0.00    -0.249 OA
BRANCH  29  31
ATOM     31  O   LIG    1        2.646  -1.270   1.020  0.00  0.00    -0.479 OA
ATOM     32  H   LIG    1        2.495  -2.134   0.692  0.00  0.00    +0.295 HD
ENDBRANCH  29  31
ENDBRANCH  25  29
ENDBRANCH  23  25
ENDBRANCH  20  23
ENDBRANCH   1  20
TORSDOF 8
