REMARK  Name = ZINC59062597
REMARK                            x       y       z     vdW  Elec       q    Type
REMARK                         _______ _______ _______ _____ _____    ______ ____
ROOT
ATOM      1  C   LIG    1        0.879  -1.592   4.631  0.00  0.00    +0.110 C 
ATOM      2  C   LIG    1        0.286  -0.417   5.412  0.00  0.00    +0.028 C 
ATOM      3  C   LIG    1        0.087  -0.823   6.874  0.00  0.00    +0.021 C 
ATOM      4  C   LIG    1       -0.897  -1.995   6.944  0.00  0.00    +0.108 C 
ATOM      5  N   LIG    1       -0.406  -3.077   6.080  0.00  0.00    -0.298 N 
ATOM      6  C   LIG    1       -0.095  -2.774   4.676  0.00  0.00    +0.133 C 
ENDROOT
BRANCH   1  14
ATOM      7  N   LIG    1        0.711  -0.489   1.189  0.00  0.00    -0.292 N 
ATOM      8  C   LIG    1        2.078  -0.738   1.277  0.00  0.00    +0.070 A 
ATOM      9  C   LIG    1        3.126  -0.625   0.375  0.00  0.00    +0.028 A 
ATOM     10  C   LIG    1        4.408  -0.955   0.767  0.00  0.00    +0.002 A 
ATOM     11  C   LIG    1        4.653  -1.397   2.056  0.00  0.00    +0.002 A 
ATOM     12  C   LIG    1        3.616  -1.513   2.961  0.00  0.00    +0.028 A 
ATOM     13  C   LIG    1        2.325  -1.184   2.577  0.00  0.00    +0.070 A 
ATOM     14  N   LIG    1        1.099  -1.192   3.239  0.00  0.00    -0.287 N 
ATOM     15  C   LIG    1        0.152  -0.766   2.382  0.00  0.00    +0.330 A 
ATOM     16  O   LIG    1       -1.031  -0.651   2.646  0.00  0.00    -0.246 OA
BRANCH   7  18
ATOM     17  C   LIG    1       -0.019   1.526   0.010  0.00  0.00    +0.027 C 
ATOM     18  C   LIG    1        0.002  -0.004   0.002  0.00  0.00    +0.123 C 
ENDBRANCH   7  18
ENDBRANCH   1  14
BRANCH   5  19
ATOM     19  C   LIG    1       -0.239  -4.357   6.578  0.00  0.00    +0.218 A 
ATOM     20  N   LIG    1        0.210  -5.310   5.772  0.00  0.00    -0.223 NA
ATOM     21  C   LIG    1        0.384  -6.547   6.210  0.00  0.00    +0.116 A 
ATOM     22  C   LIG    1        0.091  -6.847   7.527  0.00  0.00    +0.051 A 
ATOM     23  C   LIG    1       -0.382  -5.822   8.355  0.00  0.00    +0.111 A 
ATOM     24  N   LIG    1       -0.528  -4.598   7.846  0.00  0.00    -0.211 NA
BRANCH  23  25
ATOM     25  C   LIG    1       -0.710  -6.091   9.769  0.00  0.00    +0.155 A 
ATOM     26  C   LIG    1       -1.178  -5.172  10.648  0.00  0.00    +0.060 A 
ATOM     27  C   LIG    1       -1.359  -5.880  11.917  0.00  0.00    +0.021 A 
ATOM     28  C   LIG    1       -1.803  -5.505  13.187  0.00  0.00    +0.011 A 
ATOM     29  C   LIG    1       -1.855  -6.434  14.188  0.00  0.00    +0.001 A 
ATOM     30  C   LIG    1       -1.470  -7.746  13.950  0.00  0.00    +0.004 A 
ATOM     31  C   LIG    1       -1.028  -8.135  12.704  0.00  0.00    +0.047 A 
ATOM     32  C   LIG    1       -0.967  -7.208  11.671  0.00  0.00    +0.136 A 
ATOM     33  O   LIG    1       -0.594  -7.288  10.378  0.00  0.00    -0.453 OA
ENDBRANCH  23  25
ENDBRANCH   5  19
TORSDOF 4
