REMARK  Name = ZINC49035868
REMARK                            x       y       z     vdW  Elec       q    Type
REMARK                         _______ _______ _______ _____ _____    ______ ____
ROOT
ATOM      1  C   LIG    1       -0.018   1.503   0.010  0.00  0.00    +0.068 C 
ATOM      2  C   LIG    1        0.002  -0.004   0.002  0.00  0.00    +0.069 A 
ATOM      3  C   LIG    1        0.008  -0.810  -1.110  0.00  0.00    +0.132 A 
ATOM      4  C   LIG    1       -0.001  -0.563  -2.549  0.00  0.00    +0.242 A 
ATOM      5  N   LIG    1        0.009  -1.576  -3.384  0.00  0.00    -0.208 NA
ATOM      6  C   LIG    1        0.029  -2.860  -2.938  0.00  0.00    +0.111 A 
ATOM      7  C   LIG    1        0.040  -3.920  -3.857  0.00  0.00    +0.037 A 
ATOM      8  C   LIG    1        0.060  -5.211  -3.371  0.00  0.00    +0.069 A 
ATOM      9  C   LIG    1        0.069  -5.423  -1.996  0.00  0.00    +0.216 A 
ATOM     10  N   LIG    1        0.058  -4.410  -1.149  0.00  0.00    -0.193 NA
ATOM     11  C   LIG    1        0.039  -3.152  -1.566  0.00  0.00    +0.169 A 
ATOM     12  N   LIG    1        0.028  -2.113  -0.646  0.00  0.00    -0.277 N 
ATOM     13  C   LIG    1        0.033  -2.054   0.697  0.00  0.00    +0.206 A 
ATOM     14  N   LIG    1        0.024  -0.799   1.074  0.00  0.00    -0.240 NA
ENDROOT
BRANCH   4  15
ATOM     15  O   LIG    1       -0.021   0.707  -3.020  0.00  0.00    -0.478 OA
ATOM     16  C   LIG    1       -0.030   0.871  -4.440  0.00  0.00    +0.279 C 
ENDBRANCH   4  15
BRANCH   9  17
ATOM     17  O   LIG    1        0.088  -6.692  -1.517  0.00  0.00    -0.480 OA
ATOM     18  C   LIG    1        0.096  -6.850  -0.096  0.00  0.00    +0.279 C 
ENDBRANCH   9  17
TORSDOF 2
