REMARK  Name = ZINC19874821
REMARK                            x       y       z     vdW  Elec       q    Type
REMARK                         _______ _______ _______ _____ _____    ______ ____
ROOT
ATOM      1  N   LIG    1        0.055  -2.674   2.325  0.00  0.00    -0.032 NA
ATOM      2  C   LIG    1        0.146  -2.004   3.455  0.00  0.00    +0.387 C 
ENDROOT
BRANCH   1   9
ATOM      3  C   LIG    1        2.548  -0.664  -1.218  0.00  0.00    +0.066 C 
ATOM      4  C   LIG    1        1.233  -1.033  -0.582  0.00  0.00    +0.045 A 
ATOM      5  C   LIG    1        0.037  -0.699  -1.199  0.00  0.00    +0.046 A 
ATOM      6  C   LIG    1       -1.153  -1.057  -0.583  0.00  0.00    +0.045 A 
ATOM      7  C   LIG    1       -2.474  -0.713  -1.220  0.00  0.00    +0.066 C 
ATOM      8  N   LIG    1       -1.115  -1.702   0.570  0.00  0.00    -0.201 NA
ATOM      9  C   LIG    1        0.049  -2.009   1.138  0.00  0.00    +0.330 A 
ATOM     10  N   LIG    1        1.206  -1.684   0.569  0.00  0.00    -0.201 NA
ENDBRANCH   1   9
BRANCH   2  11
ATOM     11  N   LIG    1        0.260  -2.676   4.642  0.00  0.00    -0.289 N 
ATOM     12  H   LIG    1        0.327  -2.182   5.474  0.00  0.00    +0.255 HD
ATOM     13  H   LIG    1        0.273  -3.646   4.651  0.00  0.00    +0.255 HD
ENDBRANCH   2  11
BRANCH   2  14
ATOM     14  N   LIG    1        0.127  -0.635   3.442  0.00  0.00    -0.275 N 
ATOM     15  H   LIG    1       -0.029  -0.160   2.611  0.00  0.00    +0.258 HD
BRANCH  14  16
ATOM     16  C   LIG    1        0.343   0.112   4.684  0.00  0.00    +0.202 C 
BRANCH  16  17
ATOM     17  C   LIG    1        0.272   1.613   4.395  0.00  0.00    +0.094 C 
BRANCH  17  18
ATOM     18  C   LIG    1        0.494   2.381   5.672  0.00  0.00    +0.062 A 
ATOM     19  C   LIG    1        1.423   3.337   5.870  0.00  0.00    +0.107 A 
ATOM     20  N   LIG    1        1.278   3.769   7.160  0.00  0.00    -0.351 N 
ATOM     21  H   LIG    1        1.804   4.455   7.600  0.00  0.00    +0.166 HD
ATOM     22  C   LIG    1        0.266   3.062   7.707  0.00  0.00    +0.196 A 
ATOM     23  N   LIG    1       -0.202   2.237   6.810  0.00  0.00    -0.241 NA
ENDBRANCH  17  18
ENDBRANCH  16  17
ENDBRANCH  14  16
ENDBRANCH   2  14
TORSDOF 6
