REMARK  Name = ZINC14977914
REMARK                            x       y       z     vdW  Elec       q    Type
REMARK                         _______ _______ _______ _____ _____    ______ ____
ROOT
ATOM      1  C   LIG    1        2.777   3.521  -0.005  0.00  0.00    +0.087 A 
ATOM      2  C   LIG    1        1.435   3.389   0.007  0.00  0.00    -0.020 A 
ATOM      3  C   LIG    1        1.136   2.010   0.002  0.00  0.00    +0.097 A 
ATOM      4  C   LIG    1        2.362   1.336  -0.013  0.00  0.00    +0.127 A 
ATOM      5  C   LIG    1        2.354  -0.074  -0.020  0.00  0.00    +0.240 A 
ATOM      6  N   LIG    1        1.162  -0.711  -0.012  0.00  0.00    -0.200 NA
ATOM      7  C   LIG    1        0.002  -0.004   0.002  0.00  0.00    +0.225 A 
ATOM      8  N   LIG    1       -0.016   1.297   0.009  0.00  0.00    -0.233 NA
ATOM      9  N   LIG    1        3.354   2.288  -0.018  0.00  0.00    -0.355 N 
ATOM     10  H   LIG    1        4.450   2.193  -0.029  0.00  0.00    +0.166 HD
ENDROOT
BRANCH   5  11
ATOM     11  O   LIG    1        3.398  -0.705  -0.033  0.00  0.00    -0.491 OA
ATOM     12  H   LIG    1        4.218  -0.252  -0.038  0.00  0.00    +0.294 HD
ENDBRANCH   5  11
BRANCH   2  13
ATOM     13  C   LIG    1        0.433   4.515   0.023  0.00  0.00    -0.039 C 
BRANCH  13  14
ATOM     14  N   LIG    1       -0.059   4.713   1.393  0.00  0.00    +0.383 N 
ATOM     15  H   LIG    1       -0.476   3.727   1.643  0.00  0.00    -0.081 HD
ATOM     16  C   LIG    1        0.962   5.368   2.231  0.00  0.00    -0.075 C 
ATOM     17  C   LIG    1       -0.162   6.220   2.837  0.00  0.00    -0.019 C 
ATOM     18  C   LIG    1       -0.856   5.950   1.494  0.00  0.00    -0.075 C 
BRANCH  17  19
ATOM     19  C   LIG    1        0.216   7.686   3.063  0.00  0.00    +0.155 C 
BRANCH  19  20
ATOM     20  O   LIG    1        0.745   7.843   4.381  0.00  0.00    -0.395 OA
ATOM     21  H   LIG    1        1.073   8.835   4.727  0.00  0.00    +0.209 HD
ENDBRANCH  19  20
ENDBRANCH  17  19
ENDBRANCH  13  14
ENDBRANCH   2  13
TORSDOF 5
