REMARK  Name = ZINC27302982
REMARK                            x       y       z     vdW  Elec       q    Type
REMARK                         _______ _______ _______ _____ _____    ______ ____
ROOT
ATOM      1  C   LIG    1        1.002   5.225   3.304  0.00  0.00    +0.001 A 
ATOM      2  C   LIG    1        0.039   4.894   4.241  0.00  0.00    +0.002 A 
ATOM      3  C   LIG    1       -1.204   4.448   3.827  0.00  0.00    +0.028 A 
ATOM      4  C   LIG    1       -1.483   4.335   2.485  0.00  0.00    +0.109 A 
ATOM      5  C   LIG    1       -0.522   4.670   1.526  0.00  0.00    +0.091 A 
ATOM      6  C   LIG    1       -0.810   4.571   0.095  0.00  0.00    +0.323 C 
ATOM      7  N   LIG    1       -1.399   3.658  -0.561  0.00  0.00    -0.039 NA
ATOM      8  C   LIG    1       -1.929   2.472  -0.188  0.00  0.00    +0.201 A 
ATOM      9  C   LIG    1       -1.663   1.330  -0.959  0.00  0.00    +0.057 A 
ATOM     10  C   LIG    1       -2.211   0.116  -0.610  0.00  0.00    +0.004 A 
ATOM     11  C   LIG    1       -3.028   0.011   0.502  0.00  0.00    +0.002 A 
ATOM     12  C   LIG    1       -3.289   1.129   1.276  0.00  0.00    +0.032 A 
ATOM     13  C   LIG    1       -2.742   2.348   0.939  0.00  0.00    +0.144 A 
ATOM     14  S   LIG    1       -3.064   3.764   1.943  0.00  0.00    +0.030 S 
ATOM     15  O   LIG    1       -3.592   4.766   1.085  0.00  0.00    -0.164 OA
ATOM     16  O   LIG    1       -3.752   3.303   3.097  0.00  0.00    -0.164 OA
ATOM     17  C   LIG    1        0.732   5.117   1.958  0.00  0.00    +0.018 A 
ENDROOT
BRANCH   6  18
ATOM     18  N   LIG    1       -0.373   5.637  -0.659  0.00  0.00    -0.218 N 
ATOM     19  C   LIG    1       -0.451   5.605  -2.128  0.00  0.00    +0.241 C 
ATOM     20  C   LIG    1       -1.150   6.889  -2.601  0.00  0.00    +0.128 C 
ATOM     21  N   LIG    1       -0.452   8.055  -2.042  0.00  0.00    -0.293 NA
ATOM     22  C   LIG    1       -0.528   8.068  -0.575  0.00  0.00    +0.128 C 
ATOM     23  C   LIG    1        0.190   6.835  -0.018  0.00  0.00    +0.241 C 
BRANCH  21  24
ATOM     24  C   LIG    1       -0.978   9.305  -2.608  0.00  0.00    +0.112 C 
BRANCH  24  25
ATOM     25  C   LIG    1       -2.506   9.293  -2.538  0.00  0.00    +0.175 C 
BRANCH  25  26
ATOM     26  O   LIG    1       -2.921   9.323  -1.171  0.00  0.00    -0.376 OA
BRANCH  26  27
ATOM     27  C   LIG    1       -4.339   9.315  -0.994  0.00  0.00    +0.187 C 
BRANCH  27  28
ATOM     28  C   LIG    1       -4.667   9.349   0.500  0.00  0.00    +0.184 C 
BRANCH  28  29
ATOM     29  O   LIG    1       -4.223  10.589   1.056  0.00  0.00    -0.393 OA
ATOM     30  H   LIG    1       -4.373  10.796   2.126  0.00  0.00    +0.209 HD
ENDBRANCH  28  29
ENDBRANCH  27  28
ENDBRANCH  26  27
ENDBRANCH  25  26
ENDBRANCH  24  25
ENDBRANCH  21  24
ENDBRANCH   6  18
TORSDOF 7
