REMARK  Name = ZINC19402706
REMARK                            x       y       z     vdW  Elec       q    Type
REMARK                         _______ _______ _______ _____ _____    ______ ____
ROOT
ATOM      1  C   LIG    1        4.994   1.327  -2.429  0.00  0.00    +0.039 C 
ATOM      2  C   LIG    1        5.298   0.596  -1.119  0.00  0.00    +0.010 C 
ATOM      3  C   LIG    1        5.131   1.562   0.055  0.00  0.00    +0.006 C 
ATOM      4  C   LIG    1        3.693   2.085   0.085  0.00  0.00    +0.006 C 
ATOM      5  C   LIG    1        3.389   2.816  -1.225  0.00  0.00    +0.006 C 
ATOM      6  C   LIG    1        3.557   1.849  -2.399  0.00  0.00    +0.010 C 
ENDROOT
BRANCH   1  12
ATOM      7  C   LIG    1        6.180   0.565  -4.520  0.00  0.00    +0.040 A 
ATOM      8  C   LIG    1        6.292  -0.351  -5.570  0.00  0.00    +0.124 A 
ATOM      9  N   LIG    1        5.427  -1.348  -5.644  0.00  0.00    -0.243 NA
ATOM     10  C   LIG    1        4.474  -1.487  -4.743  0.00  0.00    +0.221 A 
ATOM     11  N   LIG    1        4.337  -0.649  -3.734  0.00  0.00    -0.239 NA
ATOM     12  C   LIG    1        5.159   0.375  -3.585  0.00  0.00    +0.057 A 
BRANCH   7  17
ATOM     13  C   LIG    1        8.228   3.595  -5.364  0.00  0.00    +0.004 A 
ATOM     14  C   LIG    1        8.861   3.784  -4.143  0.00  0.00    +0.020 A 
ATOM     15  C   LIG    1        8.595   2.918  -3.099  0.00  0.00    +0.111 A 
ATOM     16  N   LIG    1        7.745   1.922  -3.247  0.00  0.00    -0.255 NA
ATOM     17  C   LIG    1        7.124   1.703  -4.398  0.00  0.00    +0.074 A 
ATOM     18  C   LIG    1        7.345   2.537  -5.492  0.00  0.00    +0.028 A 
ENDBRANCH   7  17
ENDBRANCH   1  12
BRANCH   4  19
ATOM     19  C   LIG    1        2.727   0.910   0.249  0.00  0.00    +0.107 C 
BRANCH  19  20
ATOM     20  N   LIG    1        1.361   1.418   0.397  0.00  0.00    -0.315 N 
ATOM     21  H   LIG    1        1.172   2.502   0.378  0.00  0.00    +0.149 HD
ATOM     22  C   LIG    1        0.336   0.558   0.557  0.00  0.00    +0.215 C 
ATOM     23  O   LIG    1        0.544  -0.637   0.578  0.00  0.00    -0.276 OA
BRANCH  22  24
ATOM     24  C   LIG    1       -1.070   1.080   0.703  0.00  0.00    +0.117 C 
BRANCH  24  25
ATOM     25  C   LIG    1       -2.037  -0.095   0.862  0.00  0.00    +0.132 C 
BRANCH  25  26
ATOM     26  N   LIG    1       -3.404   0.413   1.004  0.00  0.00    -0.336 N 
ATOM     27  C   LIG    1       -4.034   0.731   2.176  0.00  0.00    +0.106 A 
ATOM     28  C   LIG    1       -5.269   1.160   1.851  0.00  0.00    +0.130 A 
ATOM     29  N   LIG    1       -5.392   1.096   0.517  0.00  0.00    -0.244 NA
ATOM     30  C   LIG    1       -4.279   0.649   0.003  0.00  0.00    +0.199 A 
ENDBRANCH  25  26
ENDBRANCH  24  25
ENDBRANCH  22  24
ENDBRANCH  19  20
ENDBRANCH   4  19
TORSDOF 7
