REMARK  Name = ZINC36139575
REMARK                            x       y       z     vdW  Elec       q    Type
REMARK                         _______ _______ _______ _____ _____    ______ ____
ROOT
ATOM      1  C   LIG    1        2.108  -3.550  -0.045  0.00  0.00    +0.127 A 
ATOM      2  C   LIG    1        2.587  -4.048  -1.257  0.00  0.00    +0.072 A 
ATOM      3  C   LIG    1        3.555  -5.048  -1.225  0.00  0.00    +0.078 A 
ATOM      4  N   LIG    1        3.988  -5.494  -0.045  0.00  0.00    -0.215 NA
ATOM      5  C   LIG    1        3.509  -4.997   1.084  0.00  0.00    +0.215 A 
ATOM      6  N   LIG    1        2.592  -4.041   1.092  0.00  0.00    -0.200 NA
ENDROOT
BRANCH   1  12
ATOM      7  C   LIG    1       -0.036   1.440   0.364  0.00  0.00    -0.096 C 
ATOM      8  N   LIG    1       -0.007  -0.016   0.174  0.00  0.00    +0.380 N 
ATOM      9  H   LIG    1       -0.945  -0.352   0.018  0.00  0.00    -0.082 HD
ATOM     10  C   LIG    1        0.826  -0.339  -0.991  0.00  0.00    -0.060 C 
ATOM     11  C   LIG    1        0.765  -1.846  -1.259  0.00  0.00    +0.088 C 
ATOM     12  N   LIG    1        1.144  -2.555  -0.027  0.00  0.00    -0.319 N 
ATOM     13  C   LIG    1        0.471  -2.176   1.225  0.00  0.00    +0.088 C 
ATOM     14  C   LIG    1        0.546  -0.653   1.376  0.00  0.00    -0.060 C 
ENDBRANCH   1  12
BRANCH   3  15
ATOM     15  C   LIG    1        4.096  -5.611  -2.486  0.00  0.00    +0.001 A 
ATOM     16  C   LIG    1        3.642  -5.137  -3.715  0.00  0.00    +0.010 A 
ATOM     17  C   LIG    1        4.150  -5.664  -4.886  0.00  0.00    +0.001 A 
ATOM     18  C   LIG    1        5.107  -6.662  -4.840  0.00  0.00    +0.000 A 
ATOM     19  C   LIG    1        5.561  -7.136  -3.622  0.00  0.00    +0.001 A 
ATOM     20  C   LIG    1        5.065  -6.612  -2.446  0.00  0.00    +0.010 A 
ENDBRANCH   3  15
BRANCH   5  21
ATOM     21  N   LIG    1        3.983  -5.485   2.289  0.00  0.00    -0.327 N 
ATOM     22  H   LIG    1        3.641  -5.130   3.125  0.00  0.00    +0.145 HD
ATOM     23  H   LIG    1        4.657  -6.182   2.298  0.00  0.00    +0.145 HD
ENDBRANCH   5  21
TORSDOF 3
