REMARK  Name = ZINC45254284
REMARK                            x       y       z     vdW  Elec       q    Type
REMARK                         _______ _______ _______ _____ _____    ______ ____
ROOT
ATOM      1  C   LIG    1        0.029  -2.817  -2.485  0.00  0.00    +0.020 A 
ATOM      2  C   LIG    1        0.041  -4.171  -2.703  0.00  0.00    +0.017 A 
ATOM      3  C   LIG    1        0.041  -4.634  -3.995  0.00  0.00    +0.017 A 
ATOM      4  C   LIG    1        0.030  -3.728  -5.024  0.00  0.00    +0.020 A 
ATOM      5  S   LIG    1        0.010  -2.172  -4.149  0.00  0.00    -0.088 S 
ENDROOT
BRANCH   1   9
ATOM      6  C   LIG    1       -0.018   1.503   0.010  0.00  0.00    +0.047 C 
ATOM      7  C   LIG    1        0.002  -0.004   0.002  0.00  0.00    -0.008 A 
ATOM      8  C   LIG    1        0.006  -0.686  -1.196  0.00  0.00    +0.016 A 
ATOM      9  C   LIG    1        0.025  -2.082  -1.203  0.00  0.00    -0.011 A 
ATOM     10  C   LIG    1        0.041  -2.782   0.006  0.00  0.00    +0.012 A 
ATOM     11  C   LIG    1        0.037  -2.092   1.199  0.00  0.00    +0.046 A 
ATOM     12  C   LIG    1        0.023  -0.704   1.201  0.00  0.00    +0.120 A 
BRANCH  12  13
ATOM     13  O   LIG    1        0.025  -0.028   2.380  0.00  0.00    -0.507 OA
ATOM     14  H   LIG    1       -0.858   0.156   2.729  0.00  0.00    +0.292 HD
ENDBRANCH  12  13
ENDBRANCH   1   9
BRANCH   4  15
ATOM     15  C   LIG    1        0.028  -3.975  -6.481  0.00  0.00    -0.008 A 
ATOM     16  C   LIG    1        0.034  -5.283  -6.969  0.00  0.00    +0.009 A 
ATOM     17  C   LIG    1        0.032  -5.511  -8.330  0.00  0.00    +0.004 A 
ATOM     18  C   LIG    1        0.026  -4.446  -9.213  0.00  0.00    +0.045 A 
ATOM     19  C   LIG    1        0.020  -3.142  -8.737  0.00  0.00    +0.117 A 
ATOM     20  C   LIG    1        0.015  -2.902  -7.373  0.00  0.00    +0.054 A 
BRANCH  19  21
ATOM     21  O   LIG    1        0.014  -2.100  -9.609  0.00  0.00    -0.507 OA
ATOM     22  H   LIG    1       -0.871  -1.803  -9.861  0.00  0.00    +0.292 HD
ENDBRANCH  19  21
ENDBRANCH   4  15
TORSDOF 4
