REMARK  Name = ZINC53050410
REMARK                            x       y       z     vdW  Elec       q    Type
REMARK                         _______ _______ _______ _____ _____    ______ ____
ROOT
ATOM      1  N   LIG    1        3.871   0.256   2.249  0.00  0.00    -0.302 N 
ATOM      2  H   LIG    1        4.649   0.810   2.415  0.00  0.00    +0.150 HD
ATOM      3  C   LIG    1        2.864   0.222   3.145  0.00  0.00    +0.234 C 
ATOM      4  O   LIG    1        1.934  -0.539   2.983  0.00  0.00    -0.274 OA
ENDROOT
BRANCH   3   5
ATOM      5  C   LIG    1        2.895   1.129   4.348  0.00  0.00    +0.162 C 
ATOM      6  C   LIG    1        3.645   0.438   5.506  0.00  0.00    +0.033 C 
ATOM      7  C   LIG    1        2.823   0.861   6.753  0.00  0.00    +0.021 C 
ATOM      8  C   LIG    1        1.382   0.878   6.184  0.00  0.00    +0.108 C 
ATOM      9  N   LIG    1        1.525   1.396   4.808  0.00  0.00    -0.289 N 
ATOM     10  C   LIG    1        0.561   2.010   4.093  0.00  0.00    +0.233 C 
ATOM     11  O   LIG    1        0.766   2.314   2.937  0.00  0.00    -0.274 OA
BRANCH  10  12
ATOM     12  C   LIG    1       -0.769   2.318   4.729  0.00  0.00    +0.142 C 
BRANCH  12  13
ATOM     13  N   LIG    1       -1.448   3.371   3.961  0.00  0.00    -0.320 NA
ATOM     14  H   LIG    1       -1.605   3.079   3.008  0.00  0.00    +0.119 HD
ATOM     15  H   LIG    1       -0.927   4.234   3.993  0.00  0.00    +0.119 HD
ENDBRANCH  12  13
BRANCH  12  16
ATOM     16  C   LIG    1       -1.634   1.056   4.739  0.00  0.00    +0.063 C 
BRANCH  16  17
ATOM     17  C   LIG    1       -2.915   1.331   5.484  0.00  0.00    -0.045 A 
ATOM     18  C   LIG    1       -2.980   1.114   6.848  0.00  0.00    +0.007 A 
ATOM     19  C   LIG    1       -4.153   1.365   7.534  0.00  0.00    +0.045 A 
ATOM     20  C   LIG    1       -5.266   1.835   6.852  0.00  0.00    +0.117 A 
ATOM     21  C   LIG    1       -5.198   2.052   5.484  0.00  0.00    +0.045 A 
ATOM     22  C   LIG    1       -4.021   1.805   4.804  0.00  0.00    +0.007 A 
BRANCH  20  23
ATOM     23  O   LIG    1       -6.422   2.082   7.524  0.00  0.00    -0.507 OA
ATOM     24  H   LIG    1       -6.494   2.985   7.864  0.00  0.00    +0.292 HD
ENDBRANCH  20  23
ENDBRANCH  16  17
ENDBRANCH  12  16
ENDBRANCH  10  12
ENDBRANCH   3   5
BRANCH   1  25
ATOM     25  C   LIG    1        3.789  -0.544   1.024  0.00  0.00    +0.163 C 
BRANCH  25  26
ATOM     26  C   LIG    1        5.179  -0.866   0.541  0.00  0.00    +0.237 C 
ATOM     27  N   LIG    1        5.381  -1.917  -0.278  0.00  0.00    -0.288 N 
ATOM     28  C   LIG    1        4.327  -2.767  -0.862  0.00  0.00    +0.109 C 
ATOM     29  C   LIG    1        4.965  -3.369  -2.139  0.00  0.00    +0.021 C 
ATOM     30  C   LIG    1        6.427  -3.603  -1.676  0.00  0.00    +0.033 C 
ATOM     31  C   LIG    1        6.689  -2.402  -0.743  0.00  0.00    +0.162 C 
ATOM     32  O   LIG    1        6.117  -0.180   0.889  0.00  0.00    -0.274 OA
BRANCH  31  33
ATOM     33  C   LIG    1        7.521  -2.842   0.434  0.00  0.00    +0.231 C 
ATOM     34  N   LIG    1        8.764  -3.325   0.238  0.00  0.00    -0.328 N 
ATOM     35  H   LIG    1        9.299  -3.608   0.996  0.00  0.00    +0.145 HD
ATOM     36  H   LIG    1        9.123  -3.389  -0.661  0.00  0.00    +0.145 HD
ATOM     37  O   LIG    1        7.072  -2.762   1.558  0.00  0.00    -0.274 OA
ENDBRANCH  31  33
ENDBRANCH  25  26
BRANCH  25  38
ATOM     38  C   LIG    1        3.045   0.247  -0.053  0.00  0.00    +0.067 C 
BRANCH  38  42
ATOM     39  C   LIG    1        5.117   3.902  -0.824  0.00  0.00    +0.000 A 
ATOM     40  C   LIG    1        5.405   2.774  -1.569  0.00  0.00    +0.000 A 
ATOM     41  C   LIG    1        4.734   1.591  -1.320  0.00  0.00    +0.004 A 
ATOM     42  C   LIG    1        3.776   1.536  -0.325  0.00  0.00    -0.045 A 
ATOM     43  C   LIG    1        3.489   2.664   0.421  0.00  0.00    +0.004 A 
ATOM     44  C   LIG    1        4.159   3.848   0.171  0.00  0.00    +0.000 A 
ENDBRANCH  38  42
ENDBRANCH  25  38
ENDBRANCH   1  25
TORSDOF 11
