REMARK  Name = ZINC19811349
REMARK                            x       y       z     vdW  Elec       q    Type
REMARK                         _______ _______ _______ _____ _____    ______ ____
ROOT
ATOM      1  C   LIG    1       -1.271  -0.755   0.011  0.00  0.00    -0.030 C 
ATOM      2  C   LIG    1       -2.400  -0.081   0.025  0.00  0.00    -0.040 C 
ATOM      3  C   LIG    1       -3.748  -0.743   0.042  0.00  0.00    -0.055 C 
ATOM      4  N   LIG    1       -3.630  -2.148  -0.365  0.00  0.00    +0.382 N 
ATOM      5  H   LIG    1       -3.367  -2.200  -1.432  0.00  0.00    -0.085 HD
ATOM      6  H   LIG    1       -4.588  -2.660  -0.198  0.00  0.00    -0.085 HD
ATOM      7  C   LIG    1       -2.582  -2.820   0.422  0.00  0.00    -0.077 C 
ATOM      8  C   LIG    1       -1.222  -2.257  -0.004  0.00  0.00    +0.018 C 
ENDROOT
BRANCH   1  13
ATOM      9  C   LIG    1        1.183   2.079   0.002  0.00  0.00    +0.004 A 
ATOM     10  C   LIG    1        2.365   1.351  -0.013  0.00  0.00    +0.020 A 
ATOM     11  C   LIG    1        2.311  -0.030  -0.020  0.00  0.00    +0.111 A 
ATOM     12  N   LIG    1        1.155  -0.663  -0.013  0.00  0.00    -0.255 NA
ATOM     13  C   LIG    1        0.002  -0.004   0.002  0.00  0.00    +0.067 A 
ATOM     14  C   LIG    1       -0.017   1.391   0.010  0.00  0.00    +0.028 A 
ENDBRANCH   1  13
TORSDOF 1
