REMARK  Name = ZINC52962019
REMARK                            x       y       z     vdW  Elec       q    Type
REMARK                         _______ _______ _______ _____ _____    ______ ____
ROOT
ATOM      1  C   LIG    1       -0.586  -3.367   2.425  0.00  0.00    +0.030 A 
ATOM      2  C   LIG    1       -1.932  -3.639   2.219  0.00  0.00    +0.025 A 
ATOM      3  C   LIG    1       -2.515  -4.737   2.821  0.00  0.00    +0.025 A 
ATOM      4  C   LIG    1       -1.755  -5.568   3.634  0.00  0.00    +0.027 A 
ATOM      5  C   LIG    1       -0.409  -5.296   3.841  0.00  0.00    +0.025 A 
ATOM      6  C   LIG    1        0.175  -4.202   3.234  0.00  0.00    +0.025 A 
ENDROOT
BRANCH   1  12
ATOM      7  C   LIG    1        0.949   1.819   1.675  0.00  0.00    -0.096 C 
ATOM      8  N   LIG    1        0.815   0.385   1.385  0.00  0.00    +0.380 N 
ATOM      9  H   LIG    1        1.277   0.175   0.513  0.00  0.00    -0.082 HD
ATOM     10  C   LIG    1       -0.609   0.041   1.275  0.00  0.00    -0.060 C 
ATOM     11  C   LIG    1       -0.748  -1.427   0.860  0.00  0.00    +0.086 C 
ATOM     12  N   LIG    1        0.005  -2.255   1.815  0.00  0.00    -0.333 N 
ATOM     13  C   LIG    1        1.397  -1.881   2.110  0.00  0.00    +0.086 C 
ATOM     14  C   LIG    1        1.435  -0.392   2.466  0.00  0.00    -0.060 C 
ENDBRANCH   1  12
BRANCH   4  15
ATOM     15  N   LIG    1       -2.347  -6.680   4.245  0.00  0.00    -0.341 N 
ATOM     16  H   LIG    1       -3.233  -6.606   4.633  0.00  0.00    +0.146 HD
BRANCH  15  17
ATOM     17  C   LIG    1       -1.666  -7.887   4.295  0.00  0.00    +0.076 C 
ATOM     18  C   LIG    1       -0.471  -8.063   3.615  0.00  0.00    +0.037 C 
ATOM     19  C   LIG    1        0.187  -9.283   3.686  0.00  0.00    +0.083 C 
ATOM     20  N   LIG    1       -0.289 -10.288   4.383  0.00  0.00    -0.313 NA
ATOM     21  H   LIG    1        0.203 -11.124   4.405  0.00  0.00    +0.122 HD
ATOM     22  C   LIG    1       -1.437 -10.189   5.064  0.00  0.00    +0.058 C 
ATOM     23  C   LIG    1       -1.934 -11.275   5.805  0.00  0.00    +0.019 C 
ATOM     24  C   LIG    1       -3.096 -11.142   6.502  0.00  0.00    +0.002 C 
ATOM     25  C   LIG    1       -3.814  -9.949   6.480  0.00  0.00    +0.000 C 
ATOM     26  C   LIG    1       -3.365  -8.877   5.767  0.00  0.00    +0.007 C 
ATOM     27  C   LIG    1       -2.166  -8.977   5.048  0.00  0.00    +0.026 C 
ENDBRANCH  15  17
ENDBRANCH   4  15
TORSDOF 3
