REMARK  Name = ZINC72107484
REMARK                            x       y       z     vdW  Elec       q    Type
REMARK                         _______ _______ _______ _____ _____    ______ ____
ROOT
ATOM      1  C   LIG    1        0.031  -2.792   0.253  0.00  0.00    +0.164 A 
ATOM      2  C   LIG    1        0.073  -4.203   0.365  0.00  0.00    +0.164 A 
ATOM      3  N   LIG    1       -1.021  -4.882   0.640  0.00  0.00    -0.227 NA
ATOM      4  C   LIG    1       -2.182  -4.234   0.814  0.00  0.00    +0.094 A 
ATOM      5  C   LIG    1       -3.362  -4.936   1.107  0.00  0.00    +0.062 A 
ATOM      6  C   LIG    1       -4.529  -4.255   1.281  0.00  0.00    +0.124 A 
ATOM      7  C   LIG    1       -4.571  -2.868   1.171  0.00  0.00    +0.035 A 
ATOM      8  C   LIG    1       -3.445  -2.155   0.887  0.00  0.00    +0.032 A 
ATOM      9  C   LIG    1       -2.224  -2.824   0.702  0.00  0.00    +0.092 A 
ATOM     10  N   LIG    1       -1.102  -2.143   0.427  0.00  0.00    -0.227 NA
ENDROOT
BRANCH   1  11
ATOM     11  N   LIG    1        1.191  -2.089  -0.036  0.00  0.00    -0.297 N 
ATOM     12  H   LIG    1        2.011  -2.567  -0.235  0.00  0.00    +0.154 HD
BRANCH  11  17
ATOM     13  C   LIG    1        1.982   1.391  -0.939  0.00  0.00    +0.002 A 
ATOM     14  C   LIG    1        1.168   2.088  -0.070  0.00  0.00    +0.008 A 
ATOM     15  C   LIG    1        0.347   1.395   0.826  0.00  0.00    -0.023 A 
ATOM     16  C   LIG    1        0.356  -0.003   0.836  0.00  0.00    +0.031 A 
ATOM     17  C   LIG    1        1.178  -0.691  -0.042  0.00  0.00    +0.033 A 
ATOM     18  C   LIG    1        1.990   0.008  -0.928  0.00  0.00    +0.023 A 
BRANCH  15  19
ATOM     19  C   LIG    1       -0.522   2.135   1.754  0.00  0.00    +0.015 C 
ATOM     20  C   LIG    1       -0.528   3.486   1.743  0.00  0.00    +0.092 C 
BRANCH  20  21
ATOM     21  C   LIG    1       -1.365   4.198   2.636  0.00  0.00    +0.330 C 
ATOM     22  O   LIG    1       -2.083   3.589   3.420  0.00  0.00    -0.246 OA
BRANCH  21  23
ATOM     23  O   LIG    1       -1.370   5.423   2.626  0.00  0.00    -0.478 OA
ATOM     24  H   LIG    1       -0.821   5.889   2.026  0.00  0.00    +0.295 HD
ENDBRANCH  21  23
ENDBRANCH  20  21
ENDBRANCH  15  19
ENDBRANCH  11  17
ENDBRANCH   1  11
BRANCH   2  25
ATOM     25  N   LIG    1        1.274  -4.873   0.185  0.00  0.00    -0.297 N 
ATOM     26  H   LIG    1        2.095  -4.372   0.061  0.00  0.00    +0.154 HD
BRANCH  25  27
ATOM     27  C   LIG    1        1.301  -6.271   0.182  0.00  0.00    +0.033 A 
ATOM     28  C   LIG    1        0.221  -6.986  -0.325  0.00  0.00    +0.023 A 
ATOM     29  C   LIG    1        0.241  -8.368  -0.330  0.00  0.00    +0.002 A 
ATOM     30  C   LIG    1        1.333  -9.049   0.167  0.00  0.00    +0.008 A 
ATOM     31  C   LIG    1        2.425  -8.341   0.679  0.00  0.00    -0.023 A 
ATOM     32  C   LIG    1        2.405  -6.943   0.680  0.00  0.00    +0.031 A 
BRANCH  31  33
ATOM     33  C   LIG    1        3.591  -9.064   1.211  0.00  0.00    +0.015 C 
ATOM     34  C   LIG    1        3.608 -10.415   1.205  0.00  0.00    +0.092 C 
BRANCH  34  35
ATOM     35  C   LIG    1        4.730 -11.111   1.716  0.00  0.00    +0.330 C 
ATOM     36  O   LIG    1        5.685 -10.488   2.164  0.00  0.00    -0.246 OA
BRANCH  35  37
ATOM     37  O   LIG    1        4.746 -12.336   1.711  0.00  0.00    -0.478 OA
ATOM     38  H   LIG    1        4.016 -12.812   1.368  0.00  0.00    +0.295 HD
ENDBRANCH  35  37
ENDBRANCH  34  35
ENDBRANCH  31  33
ENDBRANCH  25  27
ENDBRANCH   2  25
BRANCH   6  39
ATOM     39  N   LIG    1       -5.770  -5.000   1.589  0.00  0.00    +0.006 N 
ATOM     40  O   LIG    1       -5.744  -6.205   1.686  0.00  0.00    -0.130 OA
BRANCH  39  41
ATOM     41  O   LIG    1       -6.811  -4.404   1.745  0.00  0.00    -0.396 OA
ATOM     42  H   LIG    1       -6.831  -3.470   1.669  0.00  0.00    +0.329 HD
ENDBRANCH  39  41
ENDBRANCH   6  39
TORSDOF 12
