REMARK  Name = ZINC00032241
REMARK                            x       y       z     vdW  Elec       q    Type
REMARK                         _______ _______ _______ _____ _____    ______ ____
ROOT
ATOM      1  C   LIG    1        4.939  -2.716  -0.062  0.00  0.00    +0.017 C 
ATOM      2  C   LIG    1        4.962  -4.103  -0.070  0.00  0.00    +0.091 C 
ATOM      3  C   LIG    1        6.151  -4.981  -0.081  0.00  0.00    +0.131 C 
ATOM      4  N   LIG    1        5.724  -6.216  -0.085  0.00  0.00    -0.073 NA
ATOM      5  O   LIG    1        4.315  -6.263  -0.077  0.00  0.00    -0.311 OA
ATOM      6  C   LIG    1        3.811  -5.015  -0.062  0.00  0.00    +0.368 C 
ATOM      7  O   LIG    1        2.634  -4.704  -0.048  0.00  0.00    -0.242 OA
ENDROOT
BRANCH   3   8
ATOM      8  C   LIG    1        7.559  -4.543  -0.086  0.00  0.00    +0.042 A 
ATOM      9  C   LIG    1        8.700  -5.304  -0.102  0.00  0.00    +0.018 A 
ATOM     10  C   LIG    1        9.919  -4.667  -0.105  0.00  0.00    +0.008 A 
ATOM     11  C   LIG    1        9.957  -3.308  -0.091  0.00  0.00    +0.046 A 
ATOM     12  S   LIG    1        8.222  -2.886  -0.083  0.00  0.00    -0.095 S 
ENDBRANCH   3   8
BRANCH   1  14
ATOM     13  C   LIG    1        3.690  -0.677  -0.038  0.00  0.00    +0.008 C 
ATOM     14  C   LIG    1        3.713  -2.035  -0.046  0.00  0.00    +0.001 C 
BRANCH  13  18
ATOM     15  C   LIG    1       -0.017   1.380   0.010  0.00  0.00    +0.000 A 
ATOM     16  C   LIG    1        1.168   2.097   0.002  0.00  0.00    +0.001 A 
ATOM     17  C   LIG    1        2.377   1.436  -0.013  0.00  0.00    +0.008 A 
ATOM     18  C   LIG    1        2.406   0.036  -0.021  0.00  0.00    -0.025 A 
ATOM     19  C   LIG    1        1.203  -0.681  -0.013  0.00  0.00    +0.008 A 
ATOM     20  C   LIG    1        0.002  -0.004   0.002  0.00  0.00    +0.001 A 
ENDBRANCH  13  18
ENDBRANCH   1  14
TORSDOF 3
