REMARK  Name = ZINC44125480
REMARK                            x       y       z     vdW  Elec       q    Type
REMARK                         _______ _______ _______ _____ _____    ______ ____
ROOT
ATOM      1  C   LIG    1       -0.019   1.526   0.010  0.00  0.00    +0.014 C 
ATOM      2  C   LIG    1        0.002  -0.004   0.002  0.00  0.00    +0.031 C 
ENDROOT
BRANCH   2   3
ATOM      3  C   LIG    1       -1.412  -0.526   0.013  0.00  0.00    -0.043 A 
ATOM      4  C   LIG    1       -2.259  -0.204   1.056  0.00  0.00    +0.004 A 
ATOM      5  C   LIG    1       -3.556  -0.683   1.066  0.00  0.00    +0.000 A 
ATOM      6  C   LIG    1       -4.006  -1.482   0.032  0.00  0.00    +0.000 A 
ATOM      7  C   LIG    1       -3.159  -1.803  -1.012  0.00  0.00    +0.000 A 
ATOM      8  C   LIG    1       -1.863  -1.321  -1.024  0.00  0.00    +0.004 A 
ENDBRANCH   2   3
BRANCH   2   9
ATOM      9  C   LIG    1        0.742  -0.511   1.242  0.00  0.00    +0.109 C 
BRANCH   9  10
ATOM     10  N   LIG    1        2.151  -0.103   1.171  0.00  0.00    -0.248 NA
ATOM     11  C   LIG    1        2.868  -0.469   2.401  0.00  0.00    +0.123 C 
BRANCH  10  12
ATOM     12  N   LIG    1        2.801  -0.671   0.001  0.00  0.00    -0.268 NA
ATOM     13  H   LIG    1        2.715  -1.676  -0.008  0.00  0.00    +0.137 HD
ATOM     14  H   LIG    1        3.769  -0.391  -0.047  0.00  0.00    +0.137 HD
ENDBRANCH  10  12
ENDBRANCH   9  10
ENDBRANCH   2   9
TORSDOF 4
