REMARK  Name = ZINC22446674
REMARK                            x       y       z     vdW  Elec       q    Type
REMARK                         _______ _______ _______ _____ _____    ______ ____
ROOT
ATOM      1  C   LIG    1        0.590  -2.291  -1.583  0.00  0.00    +0.010 A 
ATOM      2  C   LIG    1       -0.042  -2.842  -0.477  0.00  0.00    +0.016 A 
ATOM      3  C   LIG    1       -0.031  -4.211  -0.288  0.00  0.00    +0.018 A 
ATOM      4  C   LIG    1        0.611  -5.037  -1.200  0.00  0.00    +0.034 A 
ATOM      5  C   LIG    1        1.251  -4.492  -2.310  0.00  0.00    +0.049 A 
ATOM      6  N   LIG    1        1.917  -5.287  -3.240  0.00  0.00    -0.298 N 
ATOM      7  C   LIG    1        1.647  -6.632  -3.475  0.00  0.00    +0.048 A 
ATOM      8  C   LIG    1        1.981  -7.178  -4.710  0.00  0.00    +0.024 A 
ATOM      9  C   LIG    1        1.732  -8.511  -4.975  0.00  0.00    +0.002 A 
ATOM     10  C   LIG    1        1.148  -9.314  -4.013  0.00  0.00    +0.001 A 
ATOM     11  C   LIG    1        0.810  -8.782  -2.783  0.00  0.00    +0.017 A 
ATOM     12  C   LIG    1        1.055  -7.443  -2.511  0.00  0.00    +0.034 A 
ATOM     13  S   LIG    1        0.607  -6.780  -0.942  0.00  0.00    -0.086 S 
ATOM     14  C   LIG    1        1.230  -3.115  -2.500  0.00  0.00    +0.039 A 
ENDROOT
BRANCH   1  15
ATOM     15  S   LIG    1        0.576  -0.546  -1.828  0.00  0.00    -0.125 S 
BRANCH  15  17
ATOM     16  C   LIG    1       -0.445   1.613  -0.495  0.00  0.00    +0.015 C 
ATOM     17  C   LIG    1       -0.355   0.088  -0.406  0.00  0.00    +0.071 C 
ENDBRANCH  15  17
ENDBRANCH   1  15
BRANCH   6  18
ATOM     18  C   LIG    1        2.980  -4.660  -4.029  0.00  0.00    +0.109 C 
BRANCH  18  19
ATOM     19  C   LIG    1        2.386  -4.074  -5.311  0.00  0.00    +0.001 C 
BRANCH  19  20
ATOM     20  C   LIG    1        3.497  -3.420  -6.135  0.00  0.00    -0.077 C 
BRANCH  20  21
ATOM     21  N   LIG    1        2.927  -2.857  -7.366  0.00  0.00    +0.381 N 
ATOM     22  H   LIG    1        2.176  -2.226  -7.131  0.00  0.00    -0.082 HD
ATOM     23  C   LIG    1        2.407  -3.945  -8.206  0.00  0.00    -0.063 C 
ATOM     24  C   LIG    1        1.796  -3.357  -9.480  0.00  0.00    +0.065 C 
ATOM     25  N   LIG    1        2.824  -2.601 -10.209  0.00  0.00    -0.309 NA
ATOM     26  C   LIG    1        2.290  -2.068 -11.470  0.00  0.00    +0.104 C 
ATOM     27  C   LIG    1        3.372  -1.524  -9.372  0.00  0.00    +0.065 C 
ATOM     28  C   LIG    1        3.970  -2.127  -8.099  0.00  0.00    -0.063 C 
ENDBRANCH  20  21
ENDBRANCH  19  20
ENDBRANCH  18  19
ENDBRANCH   6  18
TORSDOF 6
