REMARK  Name = ZINC29463497
REMARK                            x       y       z     vdW  Elec       q    Type
REMARK                         _______ _______ _______ _____ _____    ______ ____
ROOT
ATOM      1  C   LIG    1        2.541   6.130   2.455  0.00  0.00    +0.045 C 
ATOM      2  C   LIG    1        1.952   5.421   1.263  0.00  0.00    -0.027 A 
ATOM      3  C   LIG    1        1.411   6.141   0.205  0.00  0.00    +0.024 A 
ATOM      4  C   LIG    1        0.879   5.462  -0.873  0.00  0.00    +0.113 A 
ATOM      5  N   LIG    1        0.878   4.142  -0.908  0.00  0.00    -0.239 NA
ATOM      6  C   LIG    1        1.383   3.421   0.079  0.00  0.00    +0.140 A 
ATOM      7  C   LIG    1        1.931   4.039   1.200  0.00  0.00    +0.084 A 
ATOM      8 CL   LIG    1        2.586   3.089   2.498  0.00  0.00    -0.080 Cl
ENDROOT
BRANCH   6   9
ATOM      9  N   LIG    1        1.361   2.032   0.000  0.00  0.00    -0.318 N 
ATOM     10  C   LIG    1       -0.019   1.529  -0.030  0.00  0.00    +0.087 C 
ATOM     11  C   LIG    1       -0.001  -0.002  -0.037  0.00  0.00    -0.063 C 
ATOM     12  N   LIG    1        0.755  -0.475  -1.205  0.00  0.00    +0.381 N 
ATOM     13  H   LIG    1        0.268  -0.119  -2.125  0.00  0.00    -0.086 HD
ATOM     14  H   LIG    1        0.779  -1.574  -1.206  0.00  0.00    -0.086 HD
ATOM     15  C   LIG    1        2.135   0.029  -1.176  0.00  0.00    -0.063 C 
ATOM     16  C   LIG    1        2.116   1.560  -1.169  0.00  0.00    +0.087 C 
ENDBRANCH   6   9
TORSDOF 1
