REMARK  Name = ZINC20150262
REMARK                            x       y       z     vdW  Elec       q    Type
REMARK                         _______ _______ _______ _____ _____    ______ ____
ROOT
ATOM      1  C   LIG    1       -0.018   1.503   0.010  0.00  0.00    +0.046 C 
ATOM      2  C   LIG    1        0.002  -0.004   0.002  0.00  0.00    -0.014 A 
ATOM      3  C   LIG    1        0.006  -0.720  -1.205  0.00  0.00    +0.095 A 
ATOM      4  C   LIG    1        0.026  -2.128  -1.141  0.00  0.00    +0.135 A 
ATOM      5  N   LIG    1        0.041  -2.768   0.004  0.00  0.00    -0.230 NA
ATOM      6  C   LIG    1        0.037  -2.131   1.199  0.00  0.00    +0.086 A 
ATOM      7  C   LIG    1        0.048  -2.729   2.479  0.00  0.00    +0.015 A 
ATOM      8  C   LIG    1        0.034  -4.240   2.698  0.00  0.00    +0.064 C 
ATOM      9  C   LIG    1        0.750  -4.549   4.012  0.00  0.00    +0.109 C 
ATOM     10  C   LIG    1        0.299  -3.637   5.118  0.00  0.00    +0.218 C 
ATOM     11  N   LIG    1        0.093  -2.323   4.881  0.00  0.00    -0.280 N 
ATOM     12  H   LIG    1       -0.051  -1.699   5.610  0.00  0.00    +0.155 HD
ATOM     13  O   LIG    1        0.138  -4.082   6.235  0.00  0.00    -0.275 OA
ATOM     14  C   LIG    1        0.071  -1.905   3.569  0.00  0.00    +0.078 A 
ATOM     15  S   LIG    1        0.035  -0.271   2.893  0.00  0.00    -0.071 S 
ATOM     16  C   LIG    1        0.023  -0.716   1.174  0.00  0.00    +0.044 A 
ENDROOT
BRANCH   8  17
ATOM     17  C   LIG    1        0.745  -4.923   1.558  0.00  0.00    -0.021 A 
ATOM     18  C   LIG    1        2.074  -4.641   1.304  0.00  0.00    +0.005 A 
ATOM     19  C   LIG    1        2.726  -5.267   0.259  0.00  0.00    +0.000 A 
ATOM     20  C   LIG    1        2.050  -6.176  -0.533  0.00  0.00    +0.001 A 
ATOM     21  C   LIG    1        0.721  -6.458  -0.281  0.00  0.00    +0.020 A 
ATOM     22  C   LIG    1        0.069  -5.836   0.769  0.00  0.00    +0.045 A 
ATOM     23 CL   LIG    1       -1.599  -6.196   1.092  0.00  0.00    -0.083 Cl
ENDBRANCH   8  17
BRANCH   4  24
ATOM     24  N   LIG    1        0.031  -2.856  -2.320  0.00  0.00    -0.342 N 
ATOM     25  H   LIG    1        0.045  -3.826  -2.292  0.00  0.00    +0.144 HD
ATOM     26  H   LIG    1        0.020  -2.396  -3.174  0.00  0.00    +0.144 HD
ENDBRANCH   4  24
BRANCH   3  27
ATOM     27  C   LIG    1       -0.010  -0.040  -2.465  0.00  0.00    +0.103 C 
ATOM     28  N   LIG    1       -0.023   0.499  -3.465  0.00  0.00    -0.191 NA
ENDBRANCH   3  27
TORSDOF 3
