REMARK  Name = ZINC27430688
REMARK                            x       y       z     vdW  Elec       q    Type
REMARK                         _______ _______ _______ _____ _____    ______ ____
ROOT
ATOM      1  C   LIG    1        0.251  -0.150   0.307  0.00  0.00    +0.138 C 
ATOM      2  N   LIG    1        0.085   1.304   0.242  0.00  0.00    -0.271 N 
ATOM      3  C   LIG    1        1.221   2.068   0.025  0.00  0.00    +0.045 A 
ATOM      4  C   LIG    1        2.388   1.685   0.689  0.00  0.00    +0.024 A 
ATOM      5  C   LIG    1        3.557   2.394   0.521  0.00  0.00    +0.002 A 
ATOM      6  C   LIG    1        3.584   3.500  -0.313  0.00  0.00    +0.001 A 
ATOM      7  C   LIG    1        2.444   3.893  -0.975  0.00  0.00    +0.012 A 
ATOM      8  C   LIG    1        1.246   3.181  -0.813  0.00  0.00    +0.022 A 
ATOM      9  C   LIG    1        0.064   3.659  -1.548  0.00  0.00    +0.077 C 
ATOM     10  N   LIG    1       -1.130   3.703  -1.072  0.00  0.00    -0.251 NA
ATOM     11  C   LIG    1       -1.436   3.260   0.288  0.00  0.00    +0.280 C 
ATOM     12  C   LIG    1       -1.146   1.788   0.392  0.00  0.00    +0.262 C 
ATOM     13  O   LIG    1       -2.058   1.022   0.624  0.00  0.00    -0.271 OA
ENDROOT
BRANCH   9  14
ATOM     14  C   LIG    1        0.264   4.125  -2.940  0.00  0.00    +0.001 A 
ATOM     15  C   LIG    1       -0.643   5.011  -3.519  0.00  0.00    +0.010 A 
ATOM     16  C   LIG    1       -0.449   5.444  -4.815  0.00  0.00    +0.001 A 
ATOM     17  C   LIG    1        0.638   4.993  -5.542  0.00  0.00    +0.000 A 
ATOM     18  C   LIG    1        1.539   4.110  -4.975  0.00  0.00    +0.001 A 
ATOM     19  C   LIG    1        1.358   3.674  -3.678  0.00  0.00    +0.010 A 
ENDBRANCH   9  14
BRANCH  11  20
ATOM     20  N   LIG    1       -0.606   3.999   1.243  0.00  0.00    -0.270 N 
ATOM     21  H   LIG    1        0.461   3.752   1.350  0.00  0.00    +0.153 HD
ATOM     22  C   LIG    1       -1.149   4.981   1.989  0.00  0.00    +0.306 C 
ATOM     23  N   LIG    1       -0.386   5.660   2.868  0.00  0.00    -0.269 N 
ATOM     24  H   LIG    1        0.695   5.465   2.922  0.00  0.00    +0.156 HD
ATOM     25  O   LIG    1       -2.328   5.254   1.870  0.00  0.00    -0.252 OA
BRANCH  23  26
ATOM     26  C   LIG    1       -0.969   6.614   3.710  0.00  0.00    +0.036 A 
ATOM     27  C   LIG    1       -0.498   6.775   5.008  0.00  0.00    +0.023 A 
ATOM     28  C   LIG    1       -1.070   7.716   5.844  0.00  0.00    +0.003 A 
ATOM     29  C   LIG    1       -2.112   8.502   5.396  0.00  0.00    +0.015 A 
ATOM     30  C   LIG    1       -2.592   8.348   4.093  0.00  0.00    +0.061 A 
ATOM     31  C   LIG    1       -2.011   7.402   3.248  0.00  0.00    +0.038 A 
BRANCH  30  32
ATOM     32  C   LIG    1       -3.708   9.188   3.611  0.00  0.00    +0.339 C 
ATOM     33  O   LIG    1       -4.123   9.053   2.477  0.00  0.00    -0.245 OA
BRANCH  32  34
ATOM     34  O   LIG    1       -4.264  10.103   4.427  0.00  0.00    -0.464 OA
ATOM     35  C   LIG    1       -5.356  10.893   3.886  0.00  0.00    +0.280 C 
ENDBRANCH  32  34
ENDBRANCH  30  32
ENDBRANCH  23  26
ENDBRANCH  11  20
TORSDOF 5
