REMARK  Name = ZINC19721266
REMARK                            x       y       z     vdW  Elec       q    Type
REMARK                         _______ _______ _______ _____ _____    ______ ____
ROOT
ATOM      1  C   LIG    1        0.841   9.222  -0.966  0.00  0.00    +0.105 C 
ATOM      2  N   LIG    1        0.798   7.754  -0.973  0.00  0.00    -0.302 NA
ATOM      3  C   LIG    1        1.454   7.202   0.221  0.00  0.00    +0.103 C 
ATOM      4  C   LIG    1        1.458   5.674   0.137  0.00  0.00    +0.122 C 
ATOM      5  N   LIG    1        0.075   5.189   0.028  0.00  0.00    -0.312 N 
ATOM      6  C   LIG    1       -0.581   5.740  -1.166  0.00  0.00    +0.122 C 
ATOM      7  C   LIG    1       -0.585   7.269  -1.082  0.00  0.00    +0.103 C 
ENDROOT
BRANCH   5   8
ATOM      8  C   LIG    1        0.034   3.799   0.021  0.00  0.00    +0.140 A 
ATOM      9  C   LIG    1       -0.607   3.122   1.056  0.00  0.00    +0.081 A 
ATOM     10 CL   LIG    1       -1.353   4.002   2.353  0.00  0.00    -0.080 Cl
ATOM     11  C   LIG    1       -0.645   1.739   1.033  0.00  0.00    +0.025 A 
ATOM     12  C   LIG    1       -0.029   1.076  -0.021  0.00  0.00    +0.021 A 
ATOM     13  C   LIG    1        0.588   1.811  -1.013  0.00  0.00    +0.113 A 
ATOM     14  N   LIG    1        0.605   3.130  -0.969  0.00  0.00    -0.239 NA
ENDBRANCH   5   8
TORSDOF 1
