REMARK  Name = ZINC16346984
REMARK                            x       y       z     vdW  Elec       q    Type
REMARK                         _______ _______ _______ _____ _____    ______ ____
ROOT
ATOM      1  C   LIG    1       -0.000   1.348   0.266  0.00  0.00    +0.045 A 
ATOM      2  C   LIG    1        1.200   2.047   0.258  0.00  0.00    +0.035 A 
ATOM      3  C   LIG    1        2.398   1.381  -0.021  0.00  0.00    +0.055 A 
ATOM      4  N   LIG    1        3.433   2.304   0.033  0.00  0.00    -0.324 N 
ATOM      5  H   LIG    1        4.367   2.093  -0.123  0.00  0.00    +0.169 HD
ATOM      6  C   LIG    1        2.970   3.529   0.332  0.00  0.00    +0.221 A 
ATOM      7  C   LIG    1        2.383   0.011  -0.288  0.00  0.00    -0.018 A 
ATOM      8  C   LIG    1        1.191  -0.675  -0.273  0.00  0.00    -0.012 A 
ATOM      9  C   LIG    1        1.107  -2.157  -0.537  0.00  0.00    +0.038 C 
ATOM     10  C   LIG    1        2.373  -2.652  -1.233  0.00  0.00    +0.005 C 
ATOM     11  C   LIG    1        3.586  -2.171  -0.428  0.00  0.00    +0.005 C 
ATOM     12  C   LIG    1        3.700  -0.656  -0.589  0.00  0.00    +0.037 C 
ATOM     13  C   LIG    1        1.563   3.464   0.492  0.00  0.00    +0.176 A 
ATOM     14  C   LIG    1        0.002  -0.004   0.002  0.00  0.00    +0.126 A 
ENDROOT
BRANCH   6  15
ATOM     15  O   LIG    1        3.720   4.639   0.458  0.00  0.00    -0.492 OA
ATOM     16  H   LIG    1        4.648   4.593   0.335  0.00  0.00    +0.294 HD
ENDBRANCH   6  15
BRANCH  13  17
ATOM     17  N   LIG    1        0.749   4.456   0.787  0.00  0.00    -0.025 NA
ATOM     18  O   LIG    1        1.191   5.578   0.954  0.00  0.00    -0.143 OA
ENDBRANCH  13  17
BRANCH  14  19
ATOM     19  N   LIG    1       -1.275  -0.753   0.010  0.00  0.00    +0.006 N 
ATOM     20  O   LIG    1       -2.280  -0.237  -0.421  0.00  0.00    -0.130 OA
BRANCH  19  21
ATOM     21  O   LIG    1       -1.312  -1.879   0.447  0.00  0.00    -0.396 OA
ATOM     22  H   LIG    1       -0.533  -2.279   0.780  0.00  0.00    +0.329 HD
ENDBRANCH  19  21
ENDBRANCH  14  19
TORSDOF 4
