REMARK  Name = ZINC00057198
REMARK                            x       y       z     vdW  Elec       q    Type
REMARK                         _______ _______ _______ _____ _____    ______ ____
ROOT
ATOM      1  C   LIG    1       -1.154  -0.803  -0.282  0.00  0.00    +0.019 A 
ATOM      2  C   LIG    1       -2.354  -0.082  -0.278  0.00  0.00    +0.012 A 
ATOM      3  C   LIG    1       -3.553  -0.751  -0.180  0.00  0.00    +0.017 A 
ATOM      4  C   LIG    1       -3.579  -2.140  -0.083  0.00  0.00    +0.034 A 
ATOM      5  C   LIG    1       -2.387  -2.869  -0.082  0.00  0.00    +0.049 A 
ATOM      6  N   LIG    1       -2.377  -4.258   0.026  0.00  0.00    -0.298 N 
ATOM      7  C   LIG    1       -3.431  -5.092  -0.337  0.00  0.00    +0.048 A 
ATOM      8  C   LIG    1       -3.155  -6.412  -0.677  0.00  0.00    +0.024 A 
ATOM      9  C   LIG    1       -4.178  -7.268  -1.038  0.00  0.00    +0.002 A 
ATOM     10  C   LIG    1       -5.485  -6.818  -1.063  0.00  0.00    +0.001 A 
ATOM     11  C   LIG    1       -5.770  -5.507  -0.730  0.00  0.00    +0.017 A 
ATOM     12  C   LIG    1       -4.747  -4.641  -0.370  0.00  0.00    +0.034 A 
ATOM     13  S   LIG    1       -5.128  -2.970   0.036  0.00  0.00    -0.086 S 
ATOM     14  C   LIG    1       -1.179  -2.201  -0.190  0.00  0.00    +0.036 A 
ENDROOT
BRANCH   1  16
ATOM     15  C   LIG    1        0.153   1.407  -0.488  0.00  0.00    +0.091 C 
ATOM     16  C   LIG    1        0.127  -0.097  -0.389  0.00  0.00    +0.160 C 
ATOM     17  O   LIG    1        1.166  -0.723  -0.398  0.00  0.00    -0.292 OA
ENDBRANCH   1  16
BRANCH   6  18
ATOM     18  C   LIG    1       -1.167  -4.888   0.562  0.00  0.00    +0.109 C 
BRANCH  18  19
ATOM     19  C   LIG    1       -0.207  -5.208  -0.585  0.00  0.00    +0.001 C 
BRANCH  19  20
ATOM     20  C   LIG    1        1.056  -5.866  -0.025  0.00  0.00    -0.078 C 
BRANCH  20  21
ATOM     21  N   LIG    1        1.977  -6.173  -1.127  0.00  0.00    +0.376 N 
ATOM     22  H   LIG    1        2.161  -5.334  -1.655  0.00  0.00    -0.083 HD
ATOM     23  C   LIG    1        1.371  -7.182  -2.006  0.00  0.00    -0.097 C 
ATOM     24  C   LIG    1        3.237  -6.694  -0.580  0.00  0.00    -0.097 C 
ENDBRANCH  20  21
ENDBRANCH  19  20
ENDBRANCH  18  19
ENDBRANCH   6  18
TORSDOF 5
