REMARK  Name = ZINC15834297
REMARK                            x       y       z     vdW  Elec       q    Type
REMARK                         _______ _______ _______ _____ _____    ______ ____
ROOT
ATOM      1  C   LIG    1       -0.059   5.423   0.054  0.00  0.00    +0.150 C 
ATOM      2  C   LIG    1       -0.365   5.922  -1.341  0.00  0.00    +0.073 A 
ATOM      3  C   LIG    1        0.453   6.102  -2.368  0.00  0.00    +0.082 A 
ATOM      4  C   LIG    1       -0.382   6.584  -3.497  0.00  0.00    +0.089 A 
ATOM      5  C   LIG    1        0.255   6.868  -4.788  0.00  0.00    +0.266 A 
ATOM      6  N   LIG    1        1.595   6.657  -4.835  0.00  0.00    -0.263 N 
ATOM      7  C   LIG    1        2.291   6.920  -6.098  0.00  0.00    +0.157 C 
ATOM      8  C   LIG    1        2.317   6.223  -3.797  0.00  0.00    +0.332 A 
ATOM      9  O   LIG    1        3.511   6.076  -3.972  0.00  0.00    -0.246 OA
ATOM     10  O   LIG    1       -0.376   7.264  -5.750  0.00  0.00    -0.267 OA
ATOM     11  C   LIG    1       -1.669   6.658  -3.027  0.00  0.00    +0.069 A 
ATOM     12  N   LIG    1        1.831   5.934  -2.570  0.00  0.00    -0.294 N 
ATOM     13  C   LIG    1        2.708   5.466  -1.494  0.00  0.00    +0.154 C 
ATOM     14  N   LIG    1       -1.653   6.273  -1.723  0.00  0.00    -0.306 N 
ATOM     15  C   LIG    1       -2.725   6.191  -0.822  0.00  0.00    +0.068 A 
ATOM     16  C   LIG    1       -4.037   6.276  -1.248  0.00  0.00    +0.028 A 
ATOM     17  C   LIG    1       -5.065   6.141  -0.332  0.00  0.00    +0.002 A 
ATOM     18  C   LIG    1       -4.782   5.924   1.004  0.00  0.00    +0.002 A 
ATOM     19  C   LIG    1       -3.471   5.849   1.438  0.00  0.00    +0.025 A 
ATOM     20  C   LIG    1       -2.433   5.990   0.530  0.00  0.00    +0.052 A 
ATOM     21  N   LIG    1       -1.102   5.936   0.957  0.00  0.00    -0.330 N 
ATOM     22  H   LIG    1       -0.866   6.236   1.849  0.00  0.00    +0.147 HD
ENDROOT
BRANCH   1  28
ATOM     23  C   LIG    1        2.420   1.076   0.054  0.00  0.00    +0.044 C 
ATOM     24  C   LIG    1        1.119   1.836   0.070  0.00  0.00    -0.050 A 
ATOM     25  C   LIG    1       -0.082   1.152   0.098  0.00  0.00    +0.003 A 
ATOM     26  C   LIG    1       -1.275   1.849   0.106  0.00  0.00    +0.001 A 
ATOM     27  C   LIG    1       -1.268   3.232   0.097  0.00  0.00    +0.006 A 
ATOM     28  C   LIG    1       -0.067   3.916   0.070  0.00  0.00    -0.021 A 
ATOM     29  C   LIG    1        1.126   3.219   0.056  0.00  0.00    +0.009 A 
ENDBRANCH   1  28
BRANCH  11  30
ATOM     30  C   LIG    1       -2.856   7.079  -3.798  0.00  0.00    +0.003 A 
ATOM     31  C   LIG    1       -3.232   8.425  -3.828  0.00  0.00    +0.010 A 
ATOM     32  C   LIG    1       -4.341   8.811  -4.550  0.00  0.00    +0.001 A 
ATOM     33  C   LIG    1       -5.081   7.870  -5.245  0.00  0.00    +0.000 A 
ATOM     34  C   LIG    1       -4.714   6.536  -5.219  0.00  0.00    +0.004 A 
ATOM     35  C   LIG    1       -3.604   6.136  -4.505  0.00  0.00    -0.041 A 
ATOM     36  C   LIG    1       -3.203   4.683  -4.483  0.00  0.00    +0.044 C 
ENDBRANCH  11  30
TORSDOF 2
