REMARK  Name = ZINC00002779
REMARK                            x       y       z     vdW  Elec       q    Type
REMARK                         _______ _______ _______ _____ _____    ______ ____
ROOT
ATOM      1  C   LIG    1        1.205  -0.674  -0.013  0.00  0.00    +0.047 A 
ATOM      2  C   LIG    1        1.225  -2.074  -0.021  0.00  0.00    +0.020 A 
ATOM      3  C   LIG    1        0.020  -2.788  -0.013  0.00  0.00    +0.060 A 
ATOM      4  C   LIG    1       -1.181  -2.108   0.002  0.00  0.00    +0.161 A 
ATOM      5  C   LIG    1       -1.192  -0.713   0.015  0.00  0.00    +0.189 A 
ATOM      6  C   LIG    1        0.002  -0.004   0.002  0.00  0.00    +0.167 A 
ENDROOT
BRANCH   2   7
ATOM      7  C   LIG    1        2.506  -2.792  -0.036  0.00  0.00    +0.259 C 
ATOM      8  O   LIG    1        2.522  -4.005  -0.043  0.00  0.00    -0.296 OA
ENDBRANCH   2   7
BRANCH   4   9
ATOM      9  O   LIG    1       -2.353  -2.798   0.010  0.00  0.00    -0.503 OA
ATOM     10  H   LIG    1       -2.683  -3.002   0.896  0.00  0.00    +0.292 HD
ENDBRANCH   4   9
BRANCH   5  11
ATOM     11  O   LIG    1       -2.375  -0.047   0.036  0.00  0.00    -0.502 OA
ATOM     12  H   LIG    1       -3.181  -0.524   0.045  0.00  0.00    +0.292 HD
ENDBRANCH   5  11
BRANCH   6  13
ATOM     13  N   LIG    1       -0.018   1.476   0.010  0.00  0.00    +0.010 N 
ATOM     14  O   LIG    1        1.028   2.099   0.004  0.00  0.00    -0.130 OA
BRANCH  13  15
ATOM     15  O   LIG    1       -1.081   2.071   0.018  0.00  0.00    -0.396 OA
ATOM     16  H   LIG    1       -1.886   1.591   0.024  0.00  0.00    +0.329 HD
ENDBRANCH  13  15
ENDBRANCH   6  13
TORSDOF 5
