REMARK  Name = ZINC34803437
REMARK                            x       y       z     vdW  Elec       q    Type
REMARK                         _______ _______ _______ _____ _____    ______ ____
ROOT
ATOM      1  C   LIG    1       -5.247  -9.408  -2.245  0.00  0.00    +0.004 C 
ENDROOT
BRANCH   1   2
ATOM      2  C   LIG    1       -5.131  -7.896  -2.045  0.00  0.00    +0.027 C 
BRANCH   2   4
ATOM      3  C   LIG    1       -5.641  -6.764   0.057  0.00  0.00    -0.031 C 
ATOM      4  C   LIG    1       -6.083  -7.458  -0.963  0.00  0.00    -0.031 C 
BRANCH   3   5
ATOM      5  C   LIG    1       -4.221  -6.260   0.067  0.00  0.00    +0.027 C 
BRANCH   5   6
ATOM      6  C   LIG    1       -4.216  -4.756   0.350  0.00  0.00    +0.004 C 
BRANCH   6   7
ATOM      7  C   LIG    1       -2.774  -4.244   0.359  0.00  0.00    +0.000 C 
BRANCH   7   8
ATOM      8  C   LIG    1       -2.769  -2.740   0.642  0.00  0.00    +0.000 C 
BRANCH   8   9
ATOM      9  C   LIG    1       -1.327  -2.228   0.651  0.00  0.00    -0.000 C 
BRANCH   9  10
ATOM     10  C   LIG    1       -1.322  -0.725   0.934  0.00  0.00    -0.000 C 
BRANCH  10  12
ATOM     11  C   LIG    1        0.124   1.291   1.226  0.00  0.00    +0.004 C 
ATOM     12  C   LIG    1        0.119  -0.212   0.944  0.00  0.00    -0.003 C 
ENDBRANCH  10  12
ENDBRANCH   9  10
ENDBRANCH   8   9
ENDBRANCH   7   8
ENDBRANCH   6   7
ENDBRANCH   5   6
ENDBRANCH   3   5
ENDBRANCH   2   4
ENDBRANCH   1   2
BRANCH   1  13
ATOM     13  C   LIG    1       -4.281  -9.853  -3.344  0.00  0.00    +0.000 C 
BRANCH  13  14
ATOM     14  C   LIG    1       -4.397 -11.366  -3.544  0.00  0.00    +0.000 C 
BRANCH  14  15
ATOM     15  C   LIG    1       -3.431 -11.811  -4.644  0.00  0.00    +0.000 C 
BRANCH  15  16
ATOM     16  C   LIG    1       -3.547 -13.323  -4.843  0.00  0.00    +0.008 C 
BRANCH  16  17
ATOM     17  C   LIG    1       -2.580 -13.768  -5.943  0.00  0.00    +0.084 C 
BRANCH  17  18
ATOM     18  C   LIG    1       -2.695 -15.258  -6.140  0.00  0.00    +0.235 C 
ATOM     19  O   LIG    1       -3.470 -15.898  -5.470  0.00  0.00    -0.288 OA
BRANCH  18  20
ATOM     20  C   LIG    1       -1.843 -15.949  -7.172  0.00  0.00    +0.451 C 
ATOM     21  F   LIG    1       -0.491 -15.752  -6.870  0.00  0.00    -0.163 F 
ATOM     22  F   LIG    1       -2.120 -15.419  -8.437  0.00  0.00    -0.163 F 
ATOM     23  F   LIG    1       -2.126 -17.320  -7.169  0.00  0.00    -0.163 F 
ENDBRANCH  18  20
ENDBRANCH  17  18
ENDBRANCH  16  17
ENDBRANCH  15  16
ENDBRANCH  14  15
ENDBRANCH  13  14
ENDBRANCH   1  13
TORSDOF 16
