REMARK  Name = ZINC13983163
REMARK                            x       y       z     vdW  Elec       q    Type
REMARK                         _______ _______ _______ _____ _____    ______ ____
ROOT
ATOM      1  C   LIG    1       -2.909   3.003   1.547  0.00  0.00    +0.128 A 
ATOM      2  C   LIG    1       -2.939   4.394   1.771  0.00  0.00    +0.064 A 
ATOM      3  C   LIG    1       -4.121   5.018   1.965  0.00  0.00    +0.098 A 
ATOM      4  N   LIG    1       -5.288   4.319   1.957  0.00  0.00    -0.284 N 
ATOM      5  C   LIG    1       -5.299   2.988   1.751  0.00  0.00    +0.259 A 
ATOM      6  O   LIG    1       -6.359   2.381   1.749  0.00  0.00    -0.267 OA
ATOM      7  C   LIG    1       -4.099   2.300   1.540  0.00  0.00    +0.116 A 
ENDROOT
BRANCH   4   8
ATOM      8  C   LIG    1       -6.498   4.994   2.166  0.00  0.00    +0.050 A 
ATOM      9  C   LIG    1       -7.199   5.515   1.086  0.00  0.00    +0.030 A 
ATOM     10  C   LIG    1       -8.393   6.176   1.293  0.00  0.00    +0.047 A 
ATOM     11  C   LIG    1       -8.888   6.329   2.580  0.00  0.00    +0.121 A 
ATOM     12  C   LIG    1       -8.186   5.813   3.660  0.00  0.00    +0.047 A 
ATOM     13  C   LIG    1       -6.994   5.147   3.454  0.00  0.00    +0.030 A 
BRANCH  11  14
ATOM     14  O   LIG    1      -10.062   6.984   2.783  0.00  0.00    -0.494 OA
BRANCH  14  15
ATOM     15  C   LIG    1      -10.732   7.489   1.627  0.00  0.00    +0.210 C 
BRANCH  15  16
ATOM     16  C   LIG    1      -12.024   8.189   2.051  0.00  0.00    -0.037 C 
BRANCH  16  17
ATOM     17  N   LIG    1      -11.696   9.400   2.863  0.00  0.00    +0.382 N 
ATOM     18  H   LIG    1      -11.305   9.104   3.765  0.00  0.00    -0.082 HD
ATOM     19  C   LIG    1      -12.897  10.207   3.086  0.00  0.00    -0.079 C 
ATOM     20  C   LIG    1      -12.429  11.674   3.110  0.00  0.00    -0.020 C 
ATOM     21  C   LIG    1      -10.906  11.616   2.852  0.00  0.00    -0.020 C 
ATOM     22  C   LIG    1      -10.725  10.246   2.152  0.00  0.00    -0.079 C 
ENDBRANCH  16  17
ENDBRANCH  15  16
ENDBRANCH  14  15
ENDBRANCH  11  14
ENDBRANCH   4   8
BRANCH   1  23
ATOM     23  O   LIG    1       -1.732   2.364   1.345  0.00  0.00    -0.487 OA
BRANCH  23  24
ATOM     24  C   LIG    1       -1.788   0.953   1.131  0.00  0.00    +0.264 C 
BRANCH  24  31
ATOM     25  C   LIG    1        0.142   0.352  -0.345  0.00  0.00    +0.010 A 
ATOM     26  C   LIG    1        1.419  -0.142  -0.534  0.00  0.00    +0.039 A 
ATOM     27  C   LIG    1        2.162  -0.570   0.553  0.00  0.00    +0.123 A 
ATOM     28  F   LIG    1        3.410  -1.053   0.370  0.00  0.00    -0.205 F 
ATOM     29  C   LIG    1        1.625  -0.503   1.827  0.00  0.00    +0.039 A 
ATOM     30  C   LIG    1        0.348  -0.008   2.013  0.00  0.00    +0.010 A 
ATOM     31  C   LIG    1       -0.393   0.419   0.928  0.00  0.00    -0.010 A 
ENDBRANCH  24  31
ENDBRANCH  23  24
ENDBRANCH   1  23
TORSDOF 8
