REMARK  Name = ZINC16981849
REMARK                            x       y       z     vdW  Elec       q    Type
REMARK                         _______ _______ _______ _____ _____    ______ ____
ROOT
ATOM      1  C   LIG    1       -0.669   1.467   1.065  0.00  0.00    +0.093 C 
ATOM      2  C   LIG    1       -0.385   0.075   0.497  0.00  0.00    +0.199 C 
ATOM      3  C   LIG    1       -0.157   0.171  -1.012  0.00  0.00    +0.093 C 
ATOM      4  N   LIG    1       -1.522  -0.812   0.771  0.00  0.00    -0.243 N 
ATOM      5  H   LIG    1       -2.422  -0.453   0.786  0.00  0.00    +0.261 HD
ATOM      6  C   LIG    1       -1.327  -2.085   0.996  0.00  0.00    +0.384 C 
ATOM      7  N   LIG    1       -0.095  -2.622   1.031  0.00  0.00    -0.012 NA
ATOM      8  C   LIG    1        0.978  -1.855   1.091  0.00  0.00    +0.383 C 
ATOM      9  N   LIG    1        0.809  -0.490   1.144  0.00  0.00    -0.157 N 
ENDROOT
BRANCH   9  10
ATOM     10  C   LIG    1        1.739   0.330   1.791  0.00  0.00    +0.098 A 
ATOM     11  C   LIG    1        1.671   0.508   3.167  0.00  0.00    +0.040 A 
ATOM     12  C   LIG    1        2.591   1.318   3.803  0.00  0.00    +0.003 A 
ATOM     13  C   LIG    1        3.579   1.952   3.071  0.00  0.00    +0.000 A 
ATOM     14  C   LIG    1        3.649   1.776   1.702  0.00  0.00    +0.003 A 
ATOM     15  C   LIG    1        2.736   0.963   1.060  0.00  0.00    +0.040 A 
ENDBRANCH   9  10
BRANCH   6  16
ATOM     16  N   LIG    1       -2.419  -2.902   1.205  0.00  0.00    -0.249 N 
ATOM     17  H   LIG    1       -2.291  -3.849   1.373  0.00  0.00    +0.241 HD
ATOM     18  H   LIG    1       -3.315  -2.530   1.184  0.00  0.00    +0.241 HD
ENDBRANCH   6  16
BRANCH   8  19
ATOM     19  N   LIG    1        2.229  -2.404   1.100  0.00  0.00    -0.251 N 
ATOM     20  H   LIG    1        3.008  -1.836   1.205  0.00  0.00    +0.241 HD
ATOM     21  H   LIG    1        2.339  -3.363   1.002  0.00  0.00    +0.241 HD
ENDBRANCH   8  19
TORSDOF 3
