REMARK  Name = ZINC40935136
REMARK                            x       y       z     vdW  Elec       q    Type
REMARK                         _______ _______ _______ _____ _____    ______ ____
ROOT
ATOM      1  C   LIG    1        0.051  -2.682   2.485  0.00  0.00    +0.092 A 
ATOM      2  C   LIG    1        0.513  -2.178   3.687  0.00  0.00    +0.075 A 
ATOM      3  N   LIG    1        0.345  -3.133   4.622  0.00  0.00    -0.327 N 
ATOM      4  H   LIG    1        0.585  -3.048   5.558  0.00  0.00    +0.169 HD
ATOM      5  C   LIG    1       -0.191  -4.197   4.073  0.00  0.00    +0.169 A 
ATOM      6  N   LIG    1       -0.398  -3.963   2.749  0.00  0.00    -0.326 N 
ATOM      7  H   LIG    1       -0.785  -4.580   2.109  0.00  0.00    +0.169 HD
ENDROOT
BRANCH   2   8
ATOM      8  C   LIG    1        1.088  -0.831   3.907  0.00  0.00    +0.003 A 
ATOM      9  C   LIG    1        2.030  -0.319   2.998  0.00  0.00    +0.012 A 
ATOM     10  C   LIG    1        2.571   0.913   3.178  0.00  0.00    +0.030 A 
ATOM     11  C   LIG    1        2.192   1.695   4.285  0.00  0.00    +0.089 A 
ATOM     12  C   LIG    1        1.241   1.188   5.209  0.00  0.00    +0.090 A 
ATOM     13  N   LIG    1        0.880   1.933   6.261  0.00  0.00    -0.252 NA
ATOM     14  C   LIG    1        1.408   3.124   6.427  0.00  0.00    +0.131 A 
ATOM     15  C   LIG    1        2.342   3.623   5.518  0.00  0.00    +0.131 A 
ATOM     16  N   LIG    1        2.714   2.910   4.478  0.00  0.00    -0.252 NA
ATOM     17  C   LIG    1        0.689  -0.085   5.002  0.00  0.00    +0.040 A 
ENDBRANCH   2   8
BRANCH   1  24
ATOM     18  C   LIG    1       -0.018   1.503   0.010  0.00  0.00    +0.068 C 
ATOM     19  C   LIG    1        0.002  -0.004   0.002  0.00  0.00    +0.074 A 
ATOM     20  C   LIG    1        0.006  -0.680  -1.206  0.00  0.00    +0.144 A 
ATOM     21  F   LIG    1       -0.010   0.004  -2.371  0.00  0.00    -0.204 F 
ATOM     22  C   LIG    1        0.025  -2.071  -1.210  0.00  0.00    +0.042 A 
ATOM     23  C   LIG    1        0.040  -2.735   0.002  0.00  0.00    +0.033 A 
ATOM     24  C   LIG    1        0.035  -1.989   1.184  0.00  0.00    +0.090 A 
ATOM     25  N   LIG    1        0.022  -0.660   1.144  0.00  0.00    -0.247 NA
ENDBRANCH   1  24
BRANCH   5  26
ATOM     26  N   LIG    1       -0.502  -5.368   4.736  0.00  0.00    -0.330 N 
ATOM     27  H   LIG    1       -0.898  -6.109   4.252  0.00  0.00    +0.145 HD
ATOM     28  H   LIG    1       -0.324  -5.450   5.686  0.00  0.00    +0.145 HD
ENDBRANCH   5  26
TORSDOF 3
