REMARK  Name = ZINC37134210
REMARK                            x       y       z     vdW  Elec       q    Type
REMARK                         _______ _______ _______ _____ _____    ______ ____
ROOT
ATOM      1  N   LIG    1       -1.727  -1.016  -1.368  0.00  0.00    -0.340 N 
ATOM      2  H   LIG    1       -1.192  -0.690  -2.109  0.00  0.00    +0.146 HD
ENDROOT
BRANCH   1   3
ATOM      3  C   LIG    1       -2.910  -1.715  -1.616  0.00  0.00    +0.029 A 
ATOM      4  C   LIG    1       -3.679  -2.177  -0.546  0.00  0.00    +0.024 A 
ATOM      5  C   LIG    1       -4.836  -2.862  -0.768  0.00  0.00    +0.013 A 
ATOM      6  C   LIG    1       -5.260  -3.106  -2.080  0.00  0.00    +0.020 A 
ATOM      7  C   LIG    1       -6.414  -3.787  -2.659  0.00  0.00    +0.142 A 
ATOM      8  N   LIG    1       -6.309  -3.718  -3.955  0.00  0.00    -0.181 NA
ATOM      9  N   LIG    1       -5.145  -3.026  -4.306  0.00  0.00    -0.277 N 
ATOM     10  H   LIG    1       -4.849  -2.845  -5.212  0.00  0.00    +0.189 HD
ATOM     11  C   LIG    1       -4.490  -2.643  -3.164  0.00  0.00    +0.067 A 
ATOM     12  C   LIG    1       -3.313  -1.941  -2.919  0.00  0.00    +0.050 A 
ENDBRANCH   1   3
BRANCH   1  13
ATOM     13  C   LIG    1       -1.294  -0.774   0.010  0.00  0.00    +0.137 C 
BRANCH  13  19
ATOM     14  C   LIG    1       -0.017   1.378   0.010  0.00  0.00    +0.009 A 
ATOM     15  C   LIG    1        1.170   2.089   0.002  0.00  0.00    +0.049 A 
ATOM     16  C   LIG    1        2.380   1.415  -0.013  0.00  0.00    +0.158 A 
ATOM     17  C   LIG    1        2.399   0.024  -0.021  0.00  0.00    +0.159 A 
ATOM     18  C   LIG    1        1.207  -0.682  -0.013  0.00  0.00    +0.054 A 
ATOM     19  C   LIG    1        0.002  -0.004   0.002  0.00  0.00    -0.027 A 
BRANCH  16  20
ATOM     20  O   LIG    1        3.548   2.113  -0.021  0.00  0.00    -0.503 OA
ATOM     21  H   LIG    1        3.894   2.310   0.860  0.00  0.00    +0.292 HD
ENDBRANCH  16  20
BRANCH  17  22
ATOM     22  O   LIG    1        3.585  -0.642  -0.036  0.00  0.00    -0.503 OA
ATOM     23  H   LIG    1        3.937  -0.839   0.843  0.00  0.00    +0.292 HD
ENDBRANCH  17  22
ENDBRANCH  13  19
ENDBRANCH   1  13
TORSDOF 5
