REMARK  Name = ZINC13779557
REMARK                            x       y       z     vdW  Elec       q    Type
REMARK                         _______ _______ _______ _____ _____    ______ ____
ROOT
ATOM      1  C   LIG    1        3.361   2.241   1.197  0.00  0.00    +0.008 C 
ATOM      2  C   LIG    1        2.064   1.435   1.109  0.00  0.00    -0.009 C 
ATOM      3  C   LIG    1        1.224   1.947  -0.063  0.00  0.00    +0.004 C 
ATOM      4  C   LIG    1       -0.074   1.141  -0.151  0.00  0.00    +0.000 C 
ATOM      5  C   LIG    1        0.257  -0.337  -0.368  0.00  0.00    +0.000 C 
ATOM      6  C   LIG    1        1.097  -0.848   0.804  0.00  0.00    +0.006 C 
ATOM      7  C   LIG    1        2.395  -0.043   0.892  0.00  0.00    -0.032 C 
ENDROOT
BRANCH   7   8
ATOM      8  C   LIG    1        3.234  -0.554   2.064  0.00  0.00    -0.079 C 
BRANCH   8   9
ATOM      9  N   LIG    1        3.422  -2.009   1.917  0.00  0.00    +0.378 N 
ATOM     10  H   LIG    1        3.788  -2.209   0.979  0.00  0.00    -0.090 HD
ATOM     11  H   LIG    1        2.531  -2.489   2.037  0.00  0.00    -0.090 HD
ATOM     12  H   LIG    1        4.085  -2.347   2.612  0.00  0.00    -0.090 HD
ENDBRANCH   8   9
ENDBRANCH   7   8
BRANCH   7  13
ATOM     13  C   LIG    1        3.183  -0.203  -0.409  0.00  0.00    +0.125 C 
BRANCH  13  14
ATOM     14  C   LIG    1        3.423  -1.667  -0.674  0.00  0.00    +0.305 C 
ATOM     15  O   LIG    1        2.870  -2.502   0.002  0.00  0.00    -0.251 OA
BRANCH  14  16
ATOM     16  O   LIG    1        4.252  -2.044  -1.660  0.00  0.00    -0.481 OA
ATOM     17  H   LIG    1        4.681  -1.396  -2.184  0.00  0.00    +0.295 HD
ENDBRANCH  14  16
ENDBRANCH  13  14
ENDBRANCH   7  13
TORSDOF 5
