REMARK  Name = ZINC00005878
REMARK                            x       y       z     vdW  Elec       q    Type
REMARK                         _______ _______ _______ _____ _____    ______ ____
ROOT
ATOM      1  C   LIG    1       -0.017   1.379   0.010  0.00  0.00    +0.020 A 
ATOM      2  C   LIG    1        1.181   2.073   0.002  0.00  0.00    +0.016 A 
ATOM      3  C   LIG    1        2.373   1.339  -0.013  0.00  0.00    +0.055 A 
ATOM      4  C   LIG    1        2.306  -0.055  -0.020  0.00  0.00    +0.123 A 
ATOM      5  N   LIG    1        1.141  -0.670  -0.013  0.00  0.00    -0.263 NA
ATOM      6  C   LIG    1        0.002  -0.004   0.002  0.00  0.00    +0.111 A 
ENDROOT
BRANCH   3   7
ATOM      7  C   LIG    1        3.680   2.028  -0.023  0.00  0.00    +0.243 C 
ATOM      8  N   LIG    1        4.821   1.310  -0.037  0.00  0.00    -0.325 N 
ATOM      9  H   LIG    1        5.679   1.763  -0.043  0.00  0.00    +0.145 HD
ATOM     10  H   LIG    1        4.784   0.341  -0.042  0.00  0.00    +0.145 HD
ATOM     11  O   LIG    1        3.727   3.243  -0.017  0.00  0.00    -0.270 OA
ENDBRANCH   3   7
TORSDOF 1
