REMARK  Name = ZINC29050646
REMARK                            x       y       z     vdW  Elec       q    Type
REMARK                         _______ _______ _______ _____ _____    ______ ____
ROOT
ATOM      1  C   LIG    1        0.475   4.041  -0.995  0.00  0.00    -0.018 C 
ATOM      2  C   LIG    1        1.291   3.445   0.155  0.00  0.00    +0.021 C 
ATOM      3  C   LIG    1        1.347   1.924  -0.001  0.00  0.00    +0.107 C 
ATOM      4  N   LIG    1       -0.017   1.379   0.010  0.00  0.00    -0.315 N 
ATOM      5  C   LIG    1       -0.805   1.901  -1.114  0.00  0.00    +0.107 C 
ATOM      6  C   LIG    1       -0.926   3.421  -0.992  0.00  0.00    +0.021 C 
ENDROOT
BRANCH   4   7
ATOM      7  C   LIG    1        0.002  -0.004   0.002  0.00  0.00    +0.134 A 
ATOM      8  C   LIG    1       -1.193  -0.740   0.009  0.00  0.00    +0.059 A 
ATOM      9  C   LIG    1       -2.616  -0.405   0.025  0.00  0.00    +0.032 A 
ATOM     10  C   LIG    1       -3.288  -1.567   0.025  0.00  0.00    +0.085 A 
ATOM     11  N   LIG    1       -2.405  -2.615   0.010  0.00  0.00    -0.346 N 
ATOM     12  H   LIG    1       -2.779  -3.650   0.008  0.00  0.00    +0.167 HD
ATOM     13  C   LIG    1       -1.121  -2.145   0.001  0.00  0.00    +0.143 A 
ATOM     14  N   LIG    1        0.081  -2.720  -0.014  0.00  0.00    -0.218 NA
ATOM     15  C   LIG    1        1.175  -1.991  -0.020  0.00  0.00    +0.225 A 
ATOM     16  N   LIG    1        1.153  -0.670  -0.018  0.00  0.00    -0.220 NA
ENDBRANCH   4   7
BRANCH   1  17
ATOM     17  C   LIG    1        0.365   5.556  -0.813  0.00  0.00    -0.041 C 
BRANCH  17  24
ATOM     18  C   LIG    1        0.160   6.372  -3.170  0.00  0.00    +0.003 A 
ATOM     19  C   LIG    1       -0.578   6.904  -4.211  0.00  0.00    +0.020 A 
ATOM     20  C   LIG    1       -1.913   7.216  -4.024  0.00  0.00    +0.041 A 
ATOM     21 CL   LIG    1       -2.839   7.889  -5.328  0.00  0.00    -0.084 Cl
ATOM     22  C   LIG    1       -2.510   6.990  -2.796  0.00  0.00    +0.020 A 
ATOM     23  C   LIG    1       -1.772   6.453  -1.758  0.00  0.00    +0.003 A 
ATOM     24  C   LIG    1       -0.439   6.142  -1.946  0.00  0.00    -0.062 A 
ENDBRANCH  17  24
BRANCH  17  25
ATOM     25  N   LIG    1        1.710   6.148  -0.810  0.00  0.00    +0.383 N 
ATOM     26  H   LIG    1        2.209   5.929  -1.765  0.00  0.00    -0.089 HD
ATOM     27  H   LIG    1        1.631   7.237  -0.679  0.00  0.00    -0.089 HD
ATOM     28  H   LIG    1        2.296   5.721   0.017  0.00  0.00    -0.089 HD
ENDBRANCH  17  25
ENDBRANCH   1  17
TORSDOF 4
