REMARK  Name = ZINC19632953
REMARK                            x       y       z     vdW  Elec       q    Type
REMARK                         _______ _______ _______ _____ _____    ______ ____
ROOT
ATOM      1  C   LIG    1        0.027   1.530   0.279  0.00  0.00    +0.018 C 
ATOM      2  C   LIG    1        0.015   0.013   0.080  0.00  0.00    +0.063 C 
ATOM      3  C   LIG    1        0.688  -0.321  -1.221  0.00  0.00    +0.061 C 
ATOM      4  C   LIG    1        1.933  -0.827  -1.256  0.00  0.00    +0.015 C 
ATOM      5  C   LIG    1        2.572  -1.139  -2.585  0.00  0.00    +0.061 C 
ATOM      6  N   LIG    1        2.627  -1.063  -0.101  0.00  0.00    -0.321 N 
ATOM      7  H   LIG    1        3.589  -1.179  -0.131  0.00  0.00    +0.152 HD
ATOM      8  C   LIG    1        1.969  -1.136   1.097  0.00  0.00    +0.015 C 
ATOM      9  C   LIG    1        2.646  -1.777   2.280  0.00  0.00    +0.061 C 
ATOM     10  C   LIG    1        0.727  -0.642   1.230  0.00  0.00    +0.061 C 
ENDROOT
BRANCH   3  11
ATOM     11  C   LIG    1       -0.003  -0.098  -2.434  0.00  0.00    +0.337 C 
ATOM     12  O   LIG    1       -0.906  -0.843  -2.766  0.00  0.00    -0.245 OA
BRANCH  11  13
ATOM     13  O   LIG    1        0.340   0.941  -3.225  0.00  0.00    -0.465 OA
ATOM     14  C   LIG    1       -0.401   1.105  -4.436  0.00  0.00    +0.280 C 
ENDBRANCH  11  13
ENDBRANCH   3  11
BRANCH  10  15
ATOM     15  C   LIG    1        0.074  -0.742   2.480  0.00  0.00    +0.337 C 
ATOM     16  O   LIG    1        0.638  -1.271   3.420  0.00  0.00    -0.245 OA
BRANCH  15  17
ATOM     17  O   LIG    1       -1.174  -0.252   2.631  0.00  0.00    -0.460 OA
BRANCH  17  18
ATOM     18  C   LIG    1       -1.772  -0.388   3.922  0.00  0.00    +0.243 C 
BRANCH  18  19
ATOM     19  C   LIG    1       -3.176   0.222   3.900  0.00  0.00    +0.115 C 
BRANCH  19  20
ATOM     20  S   LIG    1       -3.935   0.050   5.538  0.00  0.00    -0.122 S 
BRANCH  20  21
ATOM     21  C   LIG    1       -5.524   0.789   5.352  0.00  0.00    +0.008 A 
ATOM     22  C   LIG    1       -5.905   1.319   4.125  0.00  0.00    +0.015 A 
ATOM     23  C   LIG    1       -7.151   1.898   3.982  0.00  0.00    +0.001 A 
ATOM     24  C   LIG    1       -8.018   1.950   5.058  0.00  0.00    +0.000 A 
ATOM     25  C   LIG    1       -7.642   1.424   6.280  0.00  0.00    +0.001 A 
ATOM     26  C   LIG    1       -6.400   0.838   6.429  0.00  0.00    +0.015 A 
ENDBRANCH  20  21
ENDBRANCH  19  20
ENDBRANCH  18  19
ENDBRANCH  17  18
ENDBRANCH  15  17
ENDBRANCH  10  15
TORSDOF 8
