REMARK  Name = ZINC00015250
REMARK                            x       y       z     vdW  Elec       q    Type
REMARK                         _______ _______ _______ _____ _____    ______ ____
ROOT
ATOM      1  N   LIG    1        1.234  -2.082  -0.021  0.00  0.00    -0.281 N 
ATOM      2  H   LIG    1        2.007  -2.557   0.321  0.00  0.00    +0.155 HD
ATOM      3  C   LIG    1        0.181  -2.768  -0.507  0.00  0.00    +0.250 C 
ATOM      4  O   LIG    1       -0.746  -2.174  -1.022  0.00  0.00    -0.270 OA
ENDROOT
BRANCH   1   8
ATOM      5  C   LIG    1        1.168   2.087   0.018  0.00  0.00    +0.121 A 
ATOM      6  C   LIG    1       -0.008   1.373   0.200  0.00  0.00    +0.047 A 
ATOM      7  C   LIG    1        0.013  -0.008   0.187  0.00  0.00    +0.027 A 
ATOM      8  C   LIG    1        1.212  -0.682  -0.008  0.00  0.00    +0.034 A 
ATOM      9  C   LIG    1        2.388   0.034  -0.190  0.00  0.00    +0.027 A 
ATOM     10  C   LIG    1        2.365   1.414  -0.176  0.00  0.00    +0.047 A 
BRANCH   5  11
ATOM     11  O   LIG    1        1.146   3.446   0.031  0.00  0.00    -0.492 OA
BRANCH  11  13
ATOM     12  C   LIG    1        2.171   5.630  -0.116  0.00  0.00    +0.048 C 
ATOM     13  C   LIG    1        2.393   4.117  -0.162  0.00  0.00    +0.225 C 
ENDBRANCH  11  13
ENDBRANCH   5  11
ENDBRANCH   1   8
BRANCH   3  14
ATOM     14  C   LIG    1        0.154  -4.245  -0.414  0.00  0.00    +0.055 A 
ATOM     15  C   LIG    1       -0.934  -4.966  -0.916  0.00  0.00    +0.017 A 
ATOM     16  C   LIG    1       -0.915  -6.346  -0.806  0.00  0.00    +0.036 A 
ATOM     17  CA  LIG    1        0.179  -6.965  -0.204  0.00  0.00    +0.147 A 
ATOM     18  N   LIG    1        1.195  -6.248   0.262  0.00  0.00    -0.248 NA
ATOM     19  C   LIG    1        1.217  -4.938   0.171  0.00  0.00    +0.124 A 
BRANCH  17  20
ATOM     20  C   LIG    1        0.209  -8.442  -0.081  0.00  0.00    +0.355 C 
ATOM     21  O   LIG    1       -0.716  -9.105  -0.504  0.00  0.00    -0.243 OA
BRANCH  20  22
ATOM     22  OXT LIG    1        1.262  -9.048   0.499  0.00  0.00    -0.476 OA
ATOM     23  HXT LIG    1        1.976  -8.537   0.825  0.00  0.00    +0.295 HD
ENDBRANCH  20  22
ENDBRANCH  17  20
ENDBRANCH   3  14
TORSDOF 6
