REMARK  Name = ZINC24044436
REMARK                            x       y       z     vdW  Elec       q    Type
REMARK                         _______ _______ _______ _____ _____    ______ ____
ROOT
ATOM      1  N   LIG    1       -0.277   4.110  -0.042  0.00  0.00    -0.254 N 
ATOM      2  H   LIG    1        0.741   4.525  -0.072  0.00  0.00    +0.158 HD
ATOM      3  C   LIG    1       -0.460   2.777   0.031  0.00  0.00    +0.309 C 
ATOM      4  N   LIG    1        0.605   1.952   0.068  0.00  0.00    -0.269 N 
ATOM      5  H   LIG    1        1.621   2.368   0.118  0.00  0.00    +0.156 HD
ATOM      6  O   LIG    1       -1.586   2.319   0.065  0.00  0.00    -0.252 OA
ENDROOT
BRANCH   4   7
ATOM      7  C   LIG    1        0.416   0.566   0.041  0.00  0.00    +0.043 A 
ATOM      8  C   LIG    1       -0.681   0.002   0.654  0.00  0.00    +0.027 A 
ATOM      9  C   LIG    1       -0.883  -1.374   0.630  0.00  0.00    +0.048 A 
ATOM     10  C   LIG    1        0.005  -2.205   0.008  0.00  0.00    +0.128 A 
ATOM     11  C   LIG    1        1.143  -1.667  -0.625  0.00  0.00    +0.026 A 
ATOM     12  C   LIG    1        2.075  -2.495  -1.272  0.00  0.00    +0.012 A 
ATOM     13  C   LIG    1        3.164  -1.942  -1.874  0.00  0.00    +0.001 A 
ATOM     14  C   LIG    1        3.369  -0.564  -1.859  0.00  0.00    +0.001 A 
ATOM     15  C   LIG    1        2.486   0.269  -1.241  0.00  0.00    +0.010 A 
ATOM     16  C   LIG    1        1.352  -0.266  -0.610  0.00  0.00    +0.007 A 
BRANCH  10  17
ATOM     17  O   LIG    1       -0.208  -3.547   0.001  0.00  0.00    -0.490 OA
BRANCH  17  18
ATOM     18  C   LIG    1       -1.382  -4.022   0.663  0.00  0.00    +0.244 C 
BRANCH  18  19
ATOM     19  C   LIG    1       -1.451  -5.546   0.551  0.00  0.00    +0.125 C 
BRANCH  19  20
ATOM     20  N   LIG    1       -0.306  -6.141   1.254  0.00  0.00    -0.295 NA
ATOM     21  C   LIG    1       -0.198  -7.578   0.962  0.00  0.00    +0.112 C 
ATOM     22  C   LIG    1        1.039  -8.144   1.665  0.00  0.00    +0.175 C 
ATOM     23  O   LIG    1        0.946  -7.882   3.067  0.00  0.00    -0.377 OA
ATOM     24  C   LIG    1        0.839  -6.492   3.388  0.00  0.00    +0.175 C 
ATOM     25  C   LIG    1       -0.400  -5.909   2.703  0.00  0.00    +0.112 C 
ENDBRANCH  19  20
ENDBRANCH  18  19
ENDBRANCH  17  18
ENDBRANCH  10  17
ENDBRANCH   4   7
BRANCH   1  27
ATOM     26  N   LIG    1       -1.342   6.323  -0.147  0.00  0.00    -0.218 N 
ATOM     27  C   LIG    1       -1.379   4.965  -0.079  0.00  0.00    +0.130 A 
ATOM     28  C   LIG    1       -2.688   4.593  -0.048  0.00  0.00    +0.069 A 
ATOM     29  C   LIG    1       -3.465   5.753  -0.105  0.00  0.00    +0.071 A 
ATOM     30  N   LIG    1       -2.664   6.786  -0.167  0.00  0.00    -0.169 NA
BRANCH  26  35
ATOM     31  C   LIG    1        3.331   9.539  -0.330  0.00  0.00    +0.044 C 
ATOM     32  C   LIG    1        2.090   8.685  -0.281  0.00  0.00    -0.050 A 
ATOM     33  C   LIG    1        0.961   9.067  -0.983  0.00  0.00    +0.005 A 
ATOM     34  C   LIG    1       -0.177   8.287  -0.940  0.00  0.00    +0.028 A 
ATOM     35  C   LIG    1       -0.188   7.117  -0.192  0.00  0.00    +0.067 A 
ATOM     36  C   LIG    1        0.944   6.739   0.516  0.00  0.00    +0.028 A 
ATOM     37  C   LIG    1        2.082   7.521   0.465  0.00  0.00    +0.005 A 
ENDBRANCH  26  35
BRANCH  29  38
ATOM     38  C   LIG    1       -4.971   5.805  -0.095  0.00  0.00    +0.006 C 
ATOM     39  C   LIG    1       -5.524   4.750  -1.055  0.00  0.00    +0.017 C 
ATOM     40  C   LIG    1       -5.436   7.193  -0.541  0.00  0.00    +0.017 C 
ATOM     41  C   LIG    1       -5.482   5.526   1.319  0.00  0.00    +0.017 C 
ENDBRANCH  29  38
ENDBRANCH   1  27
TORSDOF 8
