REMARK  Name = ZINC49757222
REMARK                            x       y       z     vdW  Elec       q    Type
REMARK                         _______ _______ _______ _____ _____    ______ ____
ROOT
ATOM      1  C   LIG    1        4.718  -9.266  -3.608  0.00  0.00    +0.004 C 
ENDROOT
BRANCH   1   2
ATOM      2  C   LIG    1        4.463  -7.757  -3.577  0.00  0.00    +0.027 C 
BRANCH   2   4
ATOM      3  C   LIG    1        2.879  -6.621  -5.047  0.00  0.00    -0.031 C 
ATOM      4  C   LIG    1        3.994  -7.299  -4.934  0.00  0.00    -0.031 C 
BRANCH   3   5
ATOM      5  C   LIG    1        2.154  -6.152  -3.812  0.00  0.00    +0.027 C 
BRANCH   5   6
ATOM      6  C   LIG    1        1.883  -4.650  -3.919  0.00  0.00    +0.004 C 
BRANCH   6   7
ATOM      7  C   LIG    1        1.146  -4.174  -2.665  0.00  0.00    +0.000 C 
BRANCH   7   8
ATOM      8  C   LIG    1        0.875  -2.672  -2.772  0.00  0.00    +0.000 C 
BRANCH   8   9
ATOM      9  C   LIG    1        0.139  -2.196  -1.518  0.00  0.00    -0.000 C 
BRANCH   9  10
ATOM     10  C   LIG    1       -0.132  -0.694  -1.625  0.00  0.00    -0.000 C 
BRANCH  10  12
ATOM     11  C   LIG    1       -1.140   1.284  -0.478  0.00  0.00    +0.004 C 
ATOM     12  C   LIG    1       -0.869  -0.218  -0.371  0.00  0.00    -0.003 C 
ENDBRANCH  10  12
ENDBRANCH   9  10
ENDBRANCH   8   9
ENDBRANCH   7   8
ENDBRANCH   6   7
ENDBRANCH   5   6
ENDBRANCH   3   5
ENDBRANCH   2   4
ENDBRANCH   1   2
BRANCH   1  13
ATOM     13  C   LIG    1        5.194  -9.731  -2.230  0.00  0.00    +0.000 C 
BRANCH  13  14
ATOM     14  C   LIG    1        5.449 -11.239  -2.261  0.00  0.00    +0.000 C 
BRANCH  14  15
ATOM     15  C   LIG    1        5.925 -11.705  -0.884  0.00  0.00    +0.000 C 
BRANCH  15  16
ATOM     16  C   LIG    1        6.179 -13.213  -0.915  0.00  0.00    +0.002 C 
BRANCH  16  17
ATOM     17  C   LIG    1        6.655 -13.678   0.463  0.00  0.00    +0.030 C 
BRANCH  17  18
ATOM     18  C   LIG    1        6.910 -15.187   0.432  0.00  0.00    +0.196 C 
BRANCH  18  19
ATOM     19  O   LIG    1        7.355 -15.621   1.718  0.00  0.00    -0.216 OA
BRANCH  19  20
ATOM     20  S   LIG    1        7.640 -17.114   1.803  0.00  0.00    +0.207 S 
ATOM     21  O   LIG    1        6.533 -17.793   1.148  0.00  0.00    -0.118 OA
ATOM     22  O   LIG    1        7.723 -17.448   3.216  0.00  0.00    -0.118 OA
BRANCH  20  23
ATOM     23  O   LIG    1        8.901 -17.343   1.116  0.00  0.00    -0.231 OA
ATOM     24  H   LIG    1        9.613 -16.875   1.581  0.00  0.00    +0.247 HD
ENDBRANCH  20  23
ENDBRANCH  19  20
ENDBRANCH  18  19
ENDBRANCH  17  18
ENDBRANCH  16  17
ENDBRANCH  15  16
ENDBRANCH  14  15
ENDBRANCH  13  14
ENDBRANCH   1  13
TORSDOF 18
