REMARK  Name = ZINC64475320
REMARK                            x       y       z     vdW  Elec       q    Type
REMARK                         _______ _______ _______ _____ _____    ______ ____
ROOT
ATOM      1  C   LIG    1        0.516  -2.044   1.256  0.00  0.00    +0.052 C 
ENDROOT
BRANCH   1   2
ATOM      2  C   LIG    1        1.238  -2.581   2.465  0.00  0.00    -0.046 A 
ATOM      3  C   LIG    1        2.558  -2.978   2.361  0.00  0.00    +0.006 A 
ATOM      4  C   LIG    1        3.222  -3.471   3.469  0.00  0.00    +0.038 A 
ATOM      5  C   LIG    1        2.564  -3.565   4.683  0.00  0.00    +0.123 A 
ATOM      6  F   LIG    1        3.212  -4.047   5.767  0.00  0.00    -0.205 F 
ATOM      7  C   LIG    1        1.242  -3.167   4.787  0.00  0.00    +0.038 A 
ATOM      8  C   LIG    1        0.582  -2.670   3.679  0.00  0.00    +0.006 A 
ENDBRANCH   1   2
BRANCH   1   9
ATOM      9  C   LIG    1        0.706  -0.527   1.180  0.00  0.00    +0.106 C 
BRANCH   9  11
ATOM     10  C   LIG    1       -0.018   1.465   0.010  0.00  0.00    +0.123 C 
ATOM     11  N   LIG    1        0.002  -0.004   0.002  0.00  0.00    -0.248 NA
BRANCH  11  12
ATOM     12  N   LIG    1        0.594  -0.510  -1.226  0.00  0.00    -0.268 NA
ATOM     13  H   LIG    1        0.110  -0.151  -2.035  0.00  0.00    +0.137 HD
ATOM     14  H   LIG    1        0.607  -1.519  -1.232  0.00  0.00    +0.137 HD
ENDBRANCH  11  12
ENDBRANCH   9  11
ENDBRANCH   1   9
TORSDOF 4
