REMARK  Name = ZINC38522679
REMARK                            x       y       z     vdW  Elec       q    Type
REMARK                         _______ _______ _______ _____ _____    ______ ____
ROOT
ATOM      1  C   LIG    1       -0.019   1.526   0.010  0.00  0.00    -0.011 C 
ATOM      2  C   LIG    1        0.002  -0.004   0.002  0.00  0.00    -0.043 C 
ATOM      3  C   LIG    1       -1.434  -0.533   0.011  0.00  0.00    +0.131 C 
ATOM      4  C   LIG    1       -1.408  -2.064   0.003  0.00  0.00    +0.168 C 
ATOM      5  C   LIG    1       -0.600  -2.558   1.206  0.00  0.00    +0.128 C 
ATOM      6  C   LIG    1        0.805  -1.954   1.152  0.00  0.00    -0.048 C 
ATOM      7  N   LIG    1        0.713  -0.490   1.191  0.00  0.00    +0.384 N 
ATOM      8  H   LIG    1        0.213  -0.206   2.020  0.00  0.00    -0.085 HD
ATOM      9  H   LIG    1        1.642  -0.096   1.210  0.00  0.00    -0.085 HD
ENDROOT
BRANCH   3  10
ATOM     10  O   LIG    1       -2.104  -0.073   1.187  0.00  0.00    -0.391 OA
ATOM     11  H   LIG    1       -3.021  -0.371   1.258  0.00  0.00    +0.210 HD
ENDBRANCH   3  10
BRANCH   4  12
ATOM     12  O   LIG    1       -0.799  -2.525  -1.206  0.00  0.00    -0.387 OA
ATOM     13  H   LIG    1       -0.750  -3.488  -1.278  0.00  0.00    +0.210 HD
ENDBRANCH   4  12
BRANCH   5  14
ATOM     14  O   LIG    1       -0.509  -3.984   1.167  0.00  0.00    -0.391 OA
ATOM     15  H   LIG    1       -0.009  -4.366   1.901  0.00  0.00    +0.210 HD
ENDBRANCH   5  14
TORSDOF 3
