REMARK  Name = ZINC39793933
REMARK                            x       y       z     vdW  Elec       q    Type
REMARK                         _______ _______ _______ _____ _____    ______ ____
ROOT
ATOM      1  C   LIG    1        8.344   2.322  -0.373  0.00  0.00    +0.121 A 
ATOM      2  C   LIG    1        8.577   3.637   0.013  0.00  0.00    +0.046 A 
ATOM      3  C   LIG    1        9.849   4.043   0.350  0.00  0.00    +0.011 A 
ATOM      4  C   LIG    1       10.908   3.128   0.303  0.00  0.00    -0.024 A 
ATOM      5  C   LIG    1       10.667   1.805  -0.086  0.00  0.00    +0.011 A 
ATOM      6  C   LIG    1        9.390   1.409  -0.416  0.00  0.00    +0.046 A 
ENDROOT
BRANCH   4   7
ATOM      7  C   LIG    1       12.267   3.555   0.661  0.00  0.00    +0.028 C 
ATOM      8  C   LIG    1       12.455   4.701   1.363  0.00  0.00    +0.080 C 
ATOM      9  C   LIG    1       13.708   5.413   1.685  0.00  0.00    +0.258 C 
ATOM     10  N   LIG    1       13.594   6.523   2.394  0.00  0.00    -0.243 N 
ATOM     11  H   LIG    1       14.393   7.021   2.627  0.00  0.00    +0.159 HD
ATOM     12  C   LIG    1       12.392   6.978   2.803  0.00  0.00    +0.283 C 
ATOM     13  O   LIG    1       12.143   7.974   3.455  0.00  0.00    -0.262 OA
ATOM     14  O   LIG    1       14.791   5.000   1.314  0.00  0.00    -0.269 OA
ATOM     15  S   LIG    1       11.254   5.768   2.147  0.00  0.00    -0.026 S 
ENDBRANCH   4   7
BRANCH   1  16
ATOM     16  O   LIG    1        7.087   1.928  -0.704  0.00  0.00    -0.483 OA
BRANCH  16  17
ATOM     17  C   LIG    1        6.058   2.917  -0.639  0.00  0.00    +0.324 C 
BRANCH  17  20
ATOM     18  N   LIG    1        3.623   3.050  -1.050  0.00  0.00    -0.283 N 
ATOM     19  H   LIG    1        3.674   4.001  -0.867  0.00  0.00    +0.155 HD
ATOM     20  C   LIG    1        4.742   2.300  -1.038  0.00  0.00    +0.255 C 
ATOM     21  O   LIG    1        4.691   1.129  -1.348  0.00  0.00    -0.272 OA
BRANCH  18  24
ATOM     22  C   LIG    1        0.904   0.578  -1.179  0.00  0.00    +0.003 A 
ATOM     23  C   LIG    1        2.125   1.161  -0.903  0.00  0.00    +0.023 A 
ATOM     24  C   LIG    1        2.386   2.457  -1.329  0.00  0.00    +0.035 A 
ATOM     25  C   LIG    1        1.418   3.163  -2.030  0.00  0.00    +0.043 A 
ATOM     26  C   LIG    1        0.198   2.574  -2.303  0.00  0.00    +0.043 A 
ATOM     27 CL   LIG    1       -1.014   3.456  -3.179  0.00  0.00    -0.083 Cl
ATOM     28  C   LIG    1       -0.059   1.282  -1.877  0.00  0.00    +0.020 A 
ENDBRANCH  18  24
ENDBRANCH  17  20
ENDBRANCH  16  17
ENDBRANCH   1  16
TORSDOF 5
