REMARK  Name = ZINC25965124
REMARK                            x       y       z     vdW  Elec       q    Type
REMARK                         _______ _______ _______ _____ _____    ______ ____
ROOT
ATOM      1  C   LIG    1        2.338   1.367  -0.013  0.00  0.00    +0.077 A 
ATOM      2  C   LIG    1        2.358  -0.032  -0.021  0.00  0.00    +0.046 A 
ATOM      3  C   LIG    1        1.132  -0.700  -0.013  0.00  0.00    +0.094 A 
ATOM      4  N   LIG    1        0.002  -0.004   0.002  0.00  0.00    -0.148 NA
ATOM      5  N   LIG    1       -0.015   1.279   0.009  0.00  0.00    -0.136 NA
ATOM      6  C   LIG    1        1.090   2.002   0.002  0.00  0.00    +0.164 A 
ATOM      7 CL   LIG    1        0.996   3.736   0.013  0.00  0.00    -0.059 Cl
ENDROOT
BRANCH   3   8
ATOM      8  C   LIG    1        1.093  -2.183  -0.021  0.00  0.00    +0.005 A 
ATOM      9  C   LIG    1        2.272  -2.932  -0.042  0.00  0.00    +0.030 A 
ATOM     10  C   LIG    1        2.191  -4.310  -0.043  0.00  0.00    +0.111 A 
ATOM     11  N   LIG    1        1.020  -4.918  -0.035  0.00  0.00    -0.263 NA
ATOM     12  C   LIG    1       -0.116  -4.249  -0.021  0.00  0.00    +0.111 A 
ATOM     13  C   LIG    1       -0.125  -2.869  -0.013  0.00  0.00    +0.030 A 
ENDBRANCH   3   8
BRANCH   1  17
ATOM     14  C   LIG    1        6.027   2.291  -0.043  0.00  0.00    +0.128 C 
ATOM     15  N   LIG    1        4.783   1.516  -0.035  0.00  0.00    -0.314 N 
ATOM     16  H   LIG    1        4.821   0.417  -0.042  0.00  0.00    +0.149 HD
ATOM     17  C   LIG    1        3.594   2.151  -0.021  0.00  0.00    +0.247 C 
ATOM     18  O   LIG    1        3.553   3.365  -0.014  0.00  0.00    -0.270 OA
ENDBRANCH   1  17
TORSDOF 2
