REMARK  Name = ZINC28475732
REMARK                            x       y       z     vdW  Elec       q    Type
REMARK                         _______ _______ _______ _____ _____    ______ ____
ROOT
ATOM      1  C   LIG    1       -3.102   4.153  -1.350  0.00  0.00    +0.271 C 
ENDROOT
BRANCH   1   2
ATOM      2  P   LIG    1       -1.878   5.066  -2.346  0.00  0.00    +0.371 P 
ATOM      3  O   LIG    1       -2.474   5.424  -3.653  0.00  0.00    -0.255 OA
BRANCH   2   4
ATOM      4  O   LIG    1       -0.581   4.142  -2.583  0.00  0.00    -0.322 OA
ATOM      5  H   LIG    1        0.269   4.526  -3.166  0.00  0.00    +0.220 HD
ENDBRANCH   2   4
BRANCH   2   6
ATOM      6  O   LIG    1       -1.446   6.408  -1.568  0.00  0.00    -0.322 OA
ATOM      7  H   LIG    1       -2.228   6.965  -1.426  0.00  0.00    +0.220 HD
ENDBRANCH   2   6
ENDBRANCH   1   2
BRANCH   1   8
ATOM      8  P   LIG    1       -4.467   5.270  -0.891  0.00  0.00    +0.371 P 
ATOM      9  O   LIG    1       -5.116   5.786  -2.117  0.00  0.00    -0.255 OA
BRANCH   8  10
ATOM     10  O   LIG    1       -3.887   6.502  -0.032  0.00  0.00    -0.322 OA
ATOM     11  H   LIG    1       -3.236   6.988  -0.562  0.00  0.00    +0.220 HD
ENDBRANCH   8  10
BRANCH   8  12
ATOM     12  O   LIG    1       -5.548   4.463  -0.011  0.00  0.00    -0.322 OA
ATOM     13  H   LIG    1       -6.448   4.976   0.359  0.00  0.00    +0.220 HD
ENDBRANCH   8  12
ENDBRANCH   1   8
BRANCH   1  14
ATOM     14  O   LIG    1       -3.616   3.060  -2.113  0.00  0.00    -0.367 OA
ATOM     15  H   LIG    1       -4.136   3.249  -3.064  0.00  0.00    +0.212 HD
ENDBRANCH   1  14
BRANCH   1  16
ATOM     16  C   LIG    1       -2.431   3.619  -0.083  0.00  0.00    +0.095 C 
BRANCH  16  22
ATOM     17  C   LIG    1       -0.838   5.455   0.569  0.00  0.00    +0.023 A 
ATOM     18  C   LIG    1       -0.496   6.507   1.398  0.00  0.00    +0.111 A 
ATOM     19  N   LIG    1       -1.289   6.872   2.387  0.00  0.00    -0.263 NA
ATOM     20  C   LIG    1       -2.427   6.252   2.628  0.00  0.00    +0.111 A 
ATOM     21  C   LIG    1       -2.832   5.188   1.844  0.00  0.00    +0.023 A 
ATOM     22  C   LIG    1       -2.025   4.775   0.795  0.00  0.00    -0.041 A 
ENDBRANCH  16  22
ENDBRANCH   1  16
TORSDOF 9
