REMARK  Name = ZINC15987659
REMARK                            x       y       z     vdW  Elec       q    Type
REMARK                         _______ _______ _______ _____ _____    ______ ____
ROOT
ATOM      1  C   LIG    1       -0.787  -4.683  -2.655  0.00  0.00    +0.243 C 
ENDROOT
BRANCH   1   2
ATOM      2  N   LIG    1       -0.692  -6.141  -2.753  0.00  0.00    -0.112 NA
ATOM      3  C   LIG    1       -1.625  -6.816  -3.364  0.00  0.00    +0.406 C 
BRANCH   3   4
ATOM      4  N   LIG    1       -2.627  -6.153  -4.031  0.00  0.00    -0.287 N 
ATOM      5  H   LIG    1       -3.396  -6.643  -4.362  0.00  0.00    +0.255 HD
ATOM      6  H   LIG    1       -2.566  -5.195  -4.171  0.00  0.00    +0.255 HD
ENDBRANCH   3   4
BRANCH   3   7
ATOM      7  N   LIG    1       -1.606  -8.190  -3.342  0.00  0.00    -0.108 N 
ATOM      8  H   LIG    1       -2.358  -8.699  -3.723  0.00  0.00    +0.297 HD
BRANCH   7   9
ATOM      9  N   LIG    1       -0.516  -8.867  -2.778  0.00  0.00    +0.137 N 
ATOM     10  O   LIG    1        0.351  -8.247  -2.207  0.00  0.00    -0.098 OA
BRANCH   9  11
ATOM     11  O   LIG    1       -0.443 -10.071  -2.861  0.00  0.00    -0.373 OA
ATOM     12  H   LIG    1       -1.115 -10.551  -3.303  0.00  0.00    +0.332 HD
ENDBRANCH   9  11
ENDBRANCH   7   9
ENDBRANCH   3   7
ENDBRANCH   1   2
BRANCH   1  13
ATOM     13  C   LIG    1       -0.900  -4.277  -1.184  0.00  0.00    +0.043 C 
BRANCH  13  14
ATOM     14  C   LIG    1       -1.000  -2.754  -1.081  0.00  0.00    +0.033 C 
BRANCH  14  15
ATOM     15  C   LIG    1       -1.113  -2.349   0.390  0.00  0.00    +0.161 C 
BRANCH  15  16
ATOM     16  N   LIG    1       -2.374  -2.860   0.944  0.00  0.00    -0.318 NA
ATOM     17  H   LIG    1       -3.167  -2.485   0.444  0.00  0.00    +0.119 HD
ATOM     18  H   LIG    1       -2.443  -2.661   1.931  0.00  0.00    +0.119 HD
ENDBRANCH  15  16
BRANCH  15  19
ATOM     19  C   LIG    1       -1.088  -0.846   0.501  0.00  0.00    +0.324 C 
ATOM     20  O   LIG    1       -2.120  -0.233   0.640  0.00  0.00    -0.249 OA
BRANCH  19  22
ATOM     21  C   LIG    1        0.030   1.236   0.555  0.00  0.00    +0.280 C 
ATOM     22  O   LIG    1        0.081  -0.188   0.444  0.00  0.00    -0.467 OA
ENDBRANCH  19  22
ENDBRANCH  15  19
ENDBRANCH  14  15
ENDBRANCH  13  14
ENDBRANCH   1  13
TORSDOF 11
