REMARK  Name = ZINC19796018
REMARK                            x       y       z     vdW  Elec       q    Type
REMARK                         _______ _______ _______ _____ _____    ______ ____
ROOT
ATOM      1  N   LIG    1        3.347  -6.422   2.154  0.00  0.00    -0.298 N 
ATOM      2  C   LIG    1        2.795  -6.576   3.423  0.00  0.00    +0.048 A 
ATOM      3  C   LIG    1        1.644  -5.863   3.745  0.00  0.00    +0.024 A 
ATOM      4  C   LIG    1        1.066  -5.997   4.992  0.00  0.00    +0.002 A 
ATOM      5  C   LIG    1        1.627  -6.840   5.932  0.00  0.00    +0.001 A 
ATOM      6  C   LIG    1        2.772  -7.552   5.625  0.00  0.00    +0.017 A 
ATOM      7  C   LIG    1        3.359  -7.422   4.374  0.00  0.00    +0.034 A 
ATOM      8  S   LIG    1        4.822  -8.329   4.003  0.00  0.00    -0.086 S 
ATOM      9  C   LIG    1        5.478  -7.518   2.584  0.00  0.00    +0.034 A 
ATOM     10  C   LIG    1        6.799  -7.736   2.222  0.00  0.00    +0.018 A 
ATOM     11  C   LIG    1        7.327  -7.118   1.109  0.00  0.00    +0.021 A 
ATOM     12  C   LIG    1        6.540  -6.266   0.357  0.00  0.00    +0.043 A 
ATOM     13 CL   LIG    1        7.207  -5.476  -1.038  0.00  0.00    -0.083 Cl
ATOM     14  C   LIG    1        5.222  -6.040   0.713  0.00  0.00    +0.044 A 
ATOM     15  C   LIG    1        4.678  -6.668   1.828  0.00  0.00    +0.049 A 
ENDROOT
BRANCH   1  16
ATOM     16  C   LIG    1        2.459  -5.972   1.079  0.00  0.00    +0.112 C 
BRANCH  16  17
ATOM     17  C   LIG    1        2.476  -4.444   1.010  0.00  0.00    +0.035 C 
BRANCH  17  18
ATOM     18  C   LIG    1        1.549  -3.974  -0.113  0.00  0.00    +0.086 C 
BRANCH  18  24
ATOM     19  C   LIG    1        0.420   1.543  -0.319  0.00  0.00    -0.096 C 
ATOM     20  N   LIG    1        0.348   0.077  -0.250  0.00  0.00    +0.379 N 
ATOM     21  H   LIG    1       -0.618  -0.210  -0.201  0.00  0.00    -0.082 HD
ATOM     22  C   LIG    1        0.970  -0.500  -1.449  0.00  0.00    -0.064 C 
ATOM     23  C   LIG    1        0.878  -2.026  -1.387  0.00  0.00    +0.066 C 
ATOM     24  N   LIG    1        1.565  -2.506  -0.179  0.00  0.00    -0.306 NA
ATOM     25  C   LIG    1        0.970  -1.917   1.028  0.00  0.00    +0.066 C 
ATOM     26  C   LIG    1        1.060  -0.392   0.946  0.00  0.00    -0.064 C 
ENDBRANCH  18  24
ENDBRANCH  17  18
ENDBRANCH  16  17
ENDBRANCH   1  16
TORSDOF 4
