REMARK  Name = ZINC45315610
REMARK                            x       y       z     vdW  Elec       q    Type
REMARK                         _______ _______ _______ _____ _____    ______ ____
ROOT
ATOM      1  N   LIG    1        6.470   2.508   4.877  0.00  0.00    -0.243 N 
ATOM      2  C   LIG    1        7.578   2.065   5.538  0.00  0.00    +0.164 A 
ATOM      3  C   LIG    1        7.471   2.538   6.862  0.00  0.00    +0.078 A 
ATOM      4  C   LIG    1        8.498   2.219   7.773  0.00  0.00    +0.136 A 
ATOM      5  N   LIG    1        9.520   1.489   7.345  0.00  0.00    -0.212 NA
ATOM      6  C   LIG    1        9.581   1.063   6.087  0.00  0.00    +0.164 A 
ATOM      7  C   LIG    1        6.266   3.268   6.944  0.00  0.00    +0.148 A 
ATOM      8  N   LIG    1        8.639   1.339   5.198  0.00  0.00    -0.208 NA
ATOM      9  N   LIG    1        5.691   3.249   5.774  0.00  0.00    -0.177 NA
ENDROOT
BRANCH   6  10
ATOM     10  C   LIG    1       10.746   0.252   5.663  0.00  0.00    +0.020 A 
ATOM     11  C   LIG    1       11.753  -0.059   6.585  0.00  0.00    +0.013 A 
ATOM     12  C   LIG    1       12.832  -0.805   6.211  0.00  0.00    +0.027 A 
ATOM     13  C   LIG    1       12.945  -1.269   4.903  0.00  0.00    +0.046 A 
ATOM     14  C   LIG    1       11.938  -0.964   3.968  0.00  0.00    +0.000 A 
ATOM     15  C   LIG    1       12.351  -1.590   2.709  0.00  0.00    +0.027 A 
ATOM     16  C   LIG    1       13.521  -2.204   2.943  0.00  0.00    +0.083 A 
ATOM     17  N   LIG    1       13.891  -2.023   4.248  0.00  0.00    -0.361 N 
ATOM     18  H   LIG    1       14.700  -2.375   4.651  0.00  0.00    +0.165 HD
ATOM     19  C   LIG    1       10.834  -0.205   4.355  0.00  0.00    +0.021 A 
ENDBRANCH   6  10
BRANCH   1  24
ATOM     20  N   LIG    1        4.336   2.636   1.245  0.00  0.00    +0.383 N 
ATOM     21  H   LIG    1        3.650   3.190   1.735  0.00  0.00    -0.081 HD
ATOM     22  C   LIG    1        4.455   1.325   1.894  0.00  0.00    -0.076 C 
ATOM     23  C   LIG    1        4.819   1.513   3.369  0.00  0.00    +0.008 C 
ATOM     24  C   LIG    1        6.154   2.258   3.469  0.00  0.00    +0.106 C 
ATOM     25  C   LIG    1        6.040   3.591   2.724  0.00  0.00    +0.008 C 
ATOM     26  C   LIG    1        5.631   3.326   1.274  0.00  0.00    -0.076 C 
BRANCH  20  27
ATOM     27  C   LIG    1        3.911   2.454  -0.149  0.00  0.00    -0.041 C 
BRANCH  27  30
ATOM     28  C   LIG    1        0.156   2.083  -0.219  0.00  0.00    +0.020 A 
ATOM     29  C   LIG    1        1.409   2.676  -0.192  0.00  0.00    +0.005 A 
ATOM     30  C   LIG    1        2.527   1.857  -0.178  0.00  0.00    -0.046 A 
ATOM     31  C   LIG    1        2.357   0.485  -0.193  0.00  0.00    +0.112 A 
ATOM     32  N   LIG    1        1.150  -0.045  -0.220  0.00  0.00    -0.263 NA
ATOM     33  C   LIG    1        0.064   0.704  -0.233  0.00  0.00    +0.111 A 
ENDBRANCH  27  30
ENDBRANCH  20  27
ENDBRANCH   1  24
BRANCH   4  34
ATOM     34  N   LIG    1        8.442   2.657   9.082  0.00  0.00    -0.310 N 
ATOM     35  C   LIG    1        7.799   1.844  10.126  0.00  0.00    +0.134 C 
ATOM     36  C   LIG    1        8.768   1.720  11.308  0.00  0.00    +0.178 C 
ATOM     37  O   LIG    1        9.204   3.025  11.697  0.00  0.00    -0.377 OA
ATOM     38  C   LIG    1        9.934   3.724  10.686  0.00  0.00    +0.178 C 
ATOM     39  C   LIG    1        9.030   3.948   9.474  0.00  0.00    +0.134 C 
ENDBRANCH   4  34
TORSDOF 5
