REMARK  Name = ZINC00050682
REMARK                            x       y       z     vdW  Elec       q    Type
REMARK                         _______ _______ _______ _____ _____    ______ ____
ROOT
ATOM      1  N   LIG    1        2.403   1.106  -0.015  0.00  0.00    -0.251 N 
ATOM      2  H   LIG    1        2.420   0.138   0.048  0.00  0.00    +0.158 HD
ATOM      3  C   LIG    1        3.556   1.795  -0.124  0.00  0.00    +0.405 C 
ATOM      4  O   LIG    1        3.541   3.010  -0.117  0.00  0.00    -0.226 OA
ENDROOT
BRANCH   1   8
ATOM      5  C   LIG    1       -1.236   3.134   0.055  0.00  0.00    +0.000 A 
ATOM      6  C   LIG    1       -1.145   1.902  -0.566  0.00  0.00    +0.002 A 
ATOM      7  C   LIG    1        0.059   1.225  -0.586  0.00  0.00    +0.023 A 
ATOM      8  C   LIG    1        1.180   1.788   0.008  0.00  0.00    +0.036 A 
ATOM      9  C   LIG    1        1.087   3.028   0.626  0.00  0.00    +0.023 A 
ATOM     10  C   LIG    1       -0.121   3.698   0.647  0.00  0.00    +0.002 A 
ENDBRANCH   1   8
BRANCH   3  11
ATOM     11  O   LIG    1        4.725   1.136  -0.239  0.00  0.00    -0.448 OA
BRANCH  11  12
ATOM     12  C   LIG    1        5.927   1.942  -0.353  0.00  0.00    +0.165 C 
ATOM     13  C   LIG    1        6.500   2.208   1.042  0.00  0.00    -0.033 C 
ATOM     14  N   LIG    1        7.870   1.660   1.151  0.00  0.00    +0.382 N 
ATOM     15  H   LIG    1        8.231   1.850   2.093  0.00  0.00    -0.082 HD
ATOM     16  C   LIG    1        8.754   2.308   0.158  0.00  0.00    -0.078 C 
ATOM     17  C   LIG    1        8.244   2.046  -1.262  0.00  0.00    -0.012 C 
ATOM     18  C   LIG    1        7.849   0.198   0.931  0.00  0.00    -0.078 C 
ATOM     19  C   LIG    1        7.314  -0.124  -0.467  0.00  0.00    -0.012 C 
ATOM     20  C   LIG    1        6.974   1.189  -1.183  0.00  0.00    +0.025 C 
ENDBRANCH  11  12
ENDBRANCH   3  11
TORSDOF 3
