REMARK  Name = ZINC00056584
REMARK                            x       y       z     vdW  Elec       q    Type
REMARK                         _______ _______ _______ _____ _____    ______ ____
ROOT
ATOM      1  C   LIG    1       -1.746  -1.026  -1.429  0.00  0.00    +0.089 C 
ATOM      2  C   LIG    1       -3.105  -1.675  -1.417  0.00  0.00    -0.023 A 
ATOM      3  C   LIG    1       -4.054  -1.199  -0.523  0.00  0.00    +0.054 A 
ATOM      4  C   LIG    1       -5.317  -1.760  -0.478  0.00  0.00    +0.159 A 
ATOM      5  C   LIG    1       -5.637  -2.809  -1.335  0.00  0.00    +0.158 A 
ATOM      6  C   LIG    1       -4.688  -3.282  -2.223  0.00  0.00    +0.053 A 
ATOM      7  C   LIG    1       -3.421  -2.717  -2.263  0.00  0.00    -0.038 A 
ATOM      8  C   LIG    1       -2.418  -3.275  -3.240  0.00  0.00    +0.050 C 
ATOM      9  C   LIG    1       -1.266  -2.288  -3.426  0.00  0.00    +0.086 C 
ATOM     10  N   LIG    1       -0.770  -1.893  -2.098  0.00  0.00    -0.309 NA
ATOM     11  H   LIG    1        0.128  -1.438  -2.168  0.00  0.00    +0.123 HD
ENDROOT
BRANCH   4  12
ATOM     12  O   LIG    1       -6.243  -1.290   0.400  0.00  0.00    -0.503 OA
ATOM     13  H   LIG    1       -6.790  -0.574   0.049  0.00  0.00    +0.292 HD
ENDBRANCH   4  12
BRANCH   5  14
ATOM     14  O   LIG    1       -6.877  -3.366  -1.300  0.00  0.00    -0.503 OA
ATOM     15  H   LIG    1       -7.513  -2.948  -1.897  0.00  0.00    +0.292 HD
ENDBRANCH   5  14
BRANCH   1  16
ATOM     16  C   LIG    1       -1.294  -0.774   0.010  0.00  0.00    +0.058 C 
BRANCH  16  22
ATOM     17  C   LIG    1       -0.017   1.378   0.010  0.00  0.00    +0.007 A 
ATOM     18  C   LIG    1        1.170   2.089   0.002  0.00  0.00    +0.049 A 
ATOM     19  C   LIG    1        2.380   1.415  -0.013  0.00  0.00    +0.158 A 
ATOM     20  C   LIG    1        2.399   0.024  -0.021  0.00  0.00    +0.158 A 
ATOM     21  C   LIG    1        1.207  -0.682  -0.013  0.00  0.00    +0.052 A 
ATOM     22  C   LIG    1        0.002  -0.004   0.002  0.00  0.00    -0.042 A 
BRANCH  19  23
ATOM     23  O   LIG    1        3.548   2.113  -0.021  0.00  0.00    -0.503 OA
ATOM     24  H   LIG    1        3.894   2.310   0.860  0.00  0.00    +0.292 HD
ENDBRANCH  19  23
BRANCH  20  25
ATOM     25  O   LIG    1        3.585  -0.642  -0.036  0.00  0.00    -0.503 OA
ATOM     26  H   LIG    1        3.937  -0.839   0.843  0.00  0.00    +0.292 HD
ENDBRANCH  20  25
ENDBRANCH  16  22
ENDBRANCH   1  16
TORSDOF 6
