REMARK  Name = ZINC27888901
REMARK                            x       y       z     vdW  Elec       q    Type
REMARK                         _______ _______ _______ _____ _____    ______ ____
ROOT
ATOM      1  N   LIG    1       -0.025   1.435   0.025  0.00  0.00    -0.260 N 
ATOM      2  C   LIG    1       -0.019   0.089   0.097  0.00  0.00    +0.233 C 
ATOM      3  O   LIG    1        1.030  -0.517   0.035  0.00  0.00    -0.274 OA
ENDROOT
BRANCH   1   8
ATOM      4  C   LIG    1        4.873   4.292  -0.128  0.00  0.00    +0.044 C 
ATOM      5  C   LIG    1        3.572   3.533  -0.088  0.00  0.00    -0.050 A 
ATOM      6  C   LIG    1        3.576   2.152  -0.167  0.00  0.00    +0.005 A 
ATOM      7  C   LIG    1        2.385   1.454  -0.130  0.00  0.00    +0.024 A 
ATOM      8  C   LIG    1        1.183   2.139  -0.013  0.00  0.00    +0.037 A 
ATOM      9  C   LIG    1        1.182   3.526   0.062  0.00  0.00    +0.024 A 
ATOM     10  C   LIG    1        2.377   4.218   0.029  0.00  0.00    +0.005 A 
ENDBRANCH   1   8
BRANCH   2  11
ATOM     11  C   LIG    1       -1.315  -0.664   0.254  0.00  0.00    +0.126 C 
ATOM     12  C   LIG    1       -1.231  -1.988  -0.509  0.00  0.00    +0.028 C 
BRANCH  11  13
ATOM     13  S   LIG    1       -1.612  -0.997   2.012  0.00  0.00    -0.166 S 
ATOM     14  H   LIG    1       -2.516  -1.540   2.324  0.00  0.00    +0.102 HD
ENDBRANCH  11  13
ENDBRANCH   2  11
BRANCH   1  15
ATOM     15  C   LIG    1       -1.298   2.159  -0.019  0.00  0.00    +0.234 C 
BRANCH  15  16
ATOM     16  C   LIG    1       -1.691   2.570   1.376  0.00  0.00    +0.323 C 
ATOM     17  O   LIG    1       -0.981   2.286   2.312  0.00  0.00    -0.249 OA
BRANCH  16  18
ATOM     18  O   LIG    1       -2.830   3.251   1.580  0.00  0.00    -0.480 OA
ATOM     19  H   LIG    1       -3.380   3.471   0.854  0.00  0.00    +0.295 HD
ENDBRANCH  16  18
ENDBRANCH  15  16
ENDBRANCH   1  15
TORSDOF 6
