REMARK  Name = ZINC25965531
REMARK                            x       y       z     vdW  Elec       q    Type
REMARK                         _______ _______ _______ _____ _____    ______ ____
ROOT
ATOM      1  C   LIG    1        4.970   1.424   0.440  0.00  0.00    +0.149 C 
ATOM      2  N   LIG    1        3.625   1.950   0.194  0.00  0.00    -0.348 N 
ATOM      3  C   LIG    1        3.337   3.235  -0.167  0.00  0.00    +0.049 A 
ATOM      4  C   LIG    1        4.149   4.344  -0.395  0.00  0.00    +0.026 A 
ATOM      5  C   LIG    1        3.516   5.521  -0.754  0.00  0.00    +0.002 A 
ATOM      6  C   LIG    1        2.139   5.610  -0.887  0.00  0.00    +0.001 A 
ATOM      7  C   LIG    1        1.315   4.534  -0.669  0.00  0.00    +0.010 A 
ATOM      8  C   LIG    1        1.928   3.331  -0.304  0.00  0.00    +0.003 A 
ATOM      9  C   LIG    1        1.409   2.016  -0.001  0.00  0.00    -0.023 A 
ATOM     10  C   LIG    1       -0.019   1.531   0.011  0.00  0.00    +0.018 C 
ATOM     11  C   LIG    1        0.002  -0.004   0.002  0.00  0.00    -0.077 C 
ATOM     12  N   LIG    1        0.928  -0.486   1.037  0.00  0.00    +0.383 N 
ATOM     13  H   LIG    1        0.698   0.032   1.979  0.00  0.00    -0.085 HD
ATOM     14  H   LIG    1        0.774  -1.568   1.165  0.00  0.00    -0.085 HD
ATOM     15  C   LIG    1        2.329  -0.231   0.665  0.00  0.00    -0.028 C 
ATOM     16  C   LIG    1        2.467   1.226   0.292  0.00  0.00    +0.006 A 
ENDROOT
TORSDOF 0
