REMARK  Name = ZINC49036447
REMARK                            x       y       z     vdW  Elec       q    Type
REMARK                         _______ _______ _______ _____ _____    ______ ____
ROOT
ATOM      1  C   LIG    1        0.285  -2.729   2.347  0.00  0.00    +0.249 C 
ATOM      2  N   LIG    1        0.027  -2.286   3.593  0.00  0.00    -0.293 N 
ATOM      3  C   LIG    1       -0.141  -0.824   3.817  0.00  0.00    +0.127 C 
ATOM      4  C   LIG    1       -1.285  -0.588   4.834  0.00  0.00    +0.128 C 
ATOM      5  N   LIG    1       -2.390  -1.484   4.638  0.00  0.00    -0.283 N 
ATOM      6  C   LIG    1       -2.428  -2.783   5.351  0.00  0.00    +0.111 C 
ATOM      7  C   LIG    1       -1.526  -3.749   4.703  0.00  0.00    +0.041 C 
ATOM      8  C   LIG    1       -0.082  -3.239   4.660  0.00  0.00    +0.075 C 
ATOM      9  C   LIG    1        0.867  -4.412   4.405  0.00  0.00    +0.028 C 
ATOM     10  O   LIG    1        0.329  -3.924   2.123  0.00  0.00    -0.270 OA
ENDROOT
BRANCH   5  11
ATOM     11  C   LIG    1       -3.414  -1.137   3.787  0.00  0.00    +0.291 A 
ATOM     12  N   LIG    1       -4.467  -1.874   3.540  0.00  0.00    -0.195 NA
ATOM     13  C   LIG    1       -5.264  -1.215   2.655  0.00  0.00    +0.113 A 
ATOM     14  C   LIG    1       -6.485  -1.515   2.049  0.00  0.00    +0.051 A 
ATOM     15  C   LIG    1       -7.052  -0.615   1.172  0.00  0.00    +0.043 A 
ATOM     16 CL   LIG    1       -8.571  -0.985   0.417  0.00  0.00    -0.083 Cl
ATOM     17  C   LIG    1       -6.415   0.585   0.888  0.00  0.00    +0.024 A 
ATOM     18  C   LIG    1       -5.207   0.892   1.480  0.00  0.00    +0.050 A 
ATOM     19  C   LIG    1       -4.624  -0.001   2.365  0.00  0.00    +0.157 A 
ATOM     20  O   LIG    1       -3.483   0.012   3.091  0.00  0.00    -0.424 OA
ENDBRANCH   5  11
BRANCH   1  26
ATOM     21  C   LIG    1        2.828   1.119   0.450  0.00  0.00    +0.044 C 
ATOM     22  C   LIG    1        1.734   0.089   0.334  0.00  0.00    -0.050 A 
ATOM     23  C   LIG    1        0.942   0.049  -0.802  0.00  0.00    +0.005 A 
ATOM     24  C   LIG    1       -0.064  -0.890  -0.919  0.00  0.00    +0.030 A 
ATOM     25  C   LIG    1       -0.287  -1.801   0.102  0.00  0.00    +0.098 A 
ATOM     26  C   LIG    1        0.513  -1.764   1.253  0.00  0.00    +0.064 A 
ATOM     27  C   LIG    1        1.530  -0.814   1.356  0.00  0.00    +0.018 A 
BRANCH  25  28
ATOM     28  N   LIG    1       -1.305  -2.752  -0.015  0.00  0.00    -0.150 N 
ATOM     29  N   LIG    1       -1.562  -3.658   0.860  0.00  0.00    -0.156 NA
ATOM     30  C   LIG    1       -2.576  -4.378   0.436  0.00  0.00    +0.156 A 
ATOM     31  C   LIG    1       -2.939  -3.837  -0.801  0.00  0.00    +0.156 A 
ATOM     32  N   LIG    1       -2.115  -2.836  -1.010  0.00  0.00    -0.156 NA
ENDBRANCH  25  28
ENDBRANCH   1  26
TORSDOF 3
