REMARK  Name = ZINC58534146
REMARK                            x       y       z     vdW  Elec       q    Type
REMARK                         _______ _______ _______ _____ _____    ______ ____
ROOT
ATOM      1  N   LIG    1        1.350   0.073  -2.925  0.00  0.00    -0.291 NA
ATOM      2  C   LIG    1        1.551   1.522  -2.733  0.00  0.00    +0.130 C 
ATOM      3  C   LIG    1        2.297   1.539  -4.075  0.00  0.00    +0.202 C 
ATOM      4  C   LIG    1        1.427   0.311  -4.378  0.00  0.00    +0.130 C 
ENDROOT
BRANCH   1   5
ATOM      5  C   LIG    1       -0.006  -0.327  -2.527  0.00  0.00    +0.123 C 
BRANCH   5   8
ATOM      6  C   LIG    1       -0.018   1.503   0.010  0.00  0.00    +0.066 C 
ATOM      7  C   LIG    1        0.002  -0.004   0.002  0.00  0.00    +0.046 A 
ATOM      8  C   LIG    1        0.008  -0.796  -1.095  0.00  0.00    +0.007 A 
ATOM      9  C   LIG    1        0.029  -2.127  -0.665  0.00  0.00    +0.140 A 
ATOM     10  N   LIG    1        0.035  -2.135   0.644  0.00  0.00    -0.174 NA
ATOM     11  N   LIG    1        0.024  -0.807   1.090  0.00  0.00    -0.237 N 
BRANCH  11  12
ATOM     12  C   LIG    1        0.031  -0.386   2.426  0.00  0.00    +0.066 A 
ATOM     13  C   LIG    1        0.704   0.774   2.786  0.00  0.00    +0.028 A 
ATOM     14  C   LIG    1        0.709   1.187   4.104  0.00  0.00    +0.002 A 
ATOM     15  C   LIG    1        0.045   0.446   5.065  0.00  0.00    +0.000 A 
ATOM     16  C   LIG    1       -0.625  -0.710   4.710  0.00  0.00    +0.002 A 
ATOM     17  C   LIG    1       -0.638  -1.125   3.393  0.00  0.00    +0.028 A 
ENDBRANCH  11  12
ENDBRANCH   5   8
ENDBRANCH   1   5
BRANCH   3  18
ATOM     18  O   LIG    1        2.007   2.676  -4.891  0.00  0.00    -0.480 OA
BRANCH  18  19
ATOM     19  C   LIG    1        2.995   3.108  -5.722  0.00  0.00    +0.198 A 
ATOM     20  C   LIG    1        3.916   4.051  -5.279  0.00  0.00    +0.164 A 
ATOM     21  C   LIG    1        4.920   4.487  -6.129  0.00  0.00    +0.049 A 
ATOM     22  C   LIG    1        5.005   3.986  -7.414  0.00  0.00    +0.007 A 
ATOM     23  C   LIG    1        4.090   3.049  -7.856  0.00  0.00    +0.042 A 
ATOM     24  C   LIG    1        3.088   2.604  -7.011  0.00  0.00    +0.168 A 
ATOM     25  F   LIG    1        2.198   1.683  -7.442  0.00  0.00    -0.202 F 
BRANCH  20  26
ATOM     26  O   LIG    1        3.832   4.544  -4.014  0.00  0.00    -0.491 OA
ATOM     27  C   LIG    1        4.812   5.509  -3.628  0.00  0.00    +0.277 C 
ENDBRANCH  20  26
ENDBRANCH  18  19
ENDBRANCH   3  18
TORSDOF 6
