REMARK  Name = ZINC35079611
REMARK                            x       y       z     vdW  Elec       q    Type
REMARK                         _______ _______ _______ _____ _____    ______ ____
ROOT
ATOM      1  C   LIG    1        1.651  -2.380   2.323  0.00  0.00    +0.061 C 
ATOM      2  C   LIG    1        1.484  -3.684   2.599  0.00  0.00    +0.013 C 
ATOM      3  C   LIG    1        0.776  -4.565   1.603  0.00  0.00    +0.061 C 
ATOM      4  N   LIG    1        1.942  -4.228   3.764  0.00  0.00    -0.331 N 
ATOM      5  H   LIG    1        1.600  -5.083   4.067  0.00  0.00    +0.147 HD
ATOM      6  C   LIG    1        2.901  -3.555   4.520  0.00  0.00    +0.144 C 
ATOM      7  C   LIG    1        3.123  -2.204   4.305  0.00  0.00    +0.053 C 
ATOM      8  C   LIG    1        4.089  -1.555   5.065  0.00  0.00    +0.062 C 
ATOM      9  C   LIG    1        4.799  -2.289   6.025  0.00  0.00    +0.023 C 
ATOM     10  C   LIG    1        4.520  -3.622   6.189  0.00  0.00    +0.060 C 
ATOM     11  C   LIG    1        5.226  -4.474   7.213  0.00  0.00    +0.019 C 
ATOM     12  C   LIG    1        6.520  -3.803   7.669  0.00  0.00    +0.002 C 
ATOM     13  C   LIG    1        6.199  -2.363   8.086  0.00  0.00    +0.000 C 
ATOM     14  C   LIG    1        5.845  -1.567   6.832  0.00  0.00    +0.006 C 
ATOM     15  N   LIG    1        3.593  -4.209   5.439  0.00  0.00    -0.295 NA
ATOM     16  H   LIG    1        3.417  -5.153   5.571  0.00  0.00    +0.124 HD
ATOM     17  C   LIG    1        2.343  -1.446   3.272  0.00  0.00    +0.065 C 
ENDROOT
BRANCH  17  18
ATOM     18  C   LIG    1        1.313  -0.593   3.966  0.00  0.00    -0.036 A 
ATOM     19  C   LIG    1        0.331  -1.186   4.738  0.00  0.00    +0.004 A 
ATOM     20  C   LIG    1       -0.616  -0.406   5.376  0.00  0.00    +0.004 A 
ATOM     21  C   LIG    1       -0.583   0.969   5.244  0.00  0.00    +0.045 A 
ATOM     22  C   LIG    1        0.401   1.566   4.470  0.00  0.00    +0.120 A 
ATOM     23  C   LIG    1        1.353   0.782   3.835  0.00  0.00    +0.050 A 
BRANCH  22  24
ATOM     24  O   LIG    1        0.435   2.918   4.338  0.00  0.00    -0.495 OA
ATOM     25  C   LIG    1       -0.573   3.663   5.024  0.00  0.00    +0.277 C 
ENDBRANCH  22  24
ENDBRANCH  17  18
BRANCH   8  26
ATOM     26  N   LIG    1        4.346  -0.200   4.875  0.00  0.00    -0.327 NA
ATOM     27  H   LIG    1        5.022   0.244   5.410  0.00  0.00    +0.118 HD
ATOM     28  H   LIG    1        3.850   0.299   4.208  0.00  0.00    +0.118 HD
ENDBRANCH   8  26
BRANCH   1  29
ATOM     29  C   LIG    1        1.164  -1.873   1.098  0.00  0.00    +0.337 C 
ATOM     30  O   LIG    1        1.925  -1.711   0.162  0.00  0.00    -0.245 OA
BRANCH  29  31
ATOM     31  O   LIG    1       -0.144  -1.569   0.966  0.00  0.00    -0.462 OA
BRANCH  31  33
ATOM     32  C   LIG    1       -2.070  -0.775  -0.261  0.00  0.00    +0.048 C 
ATOM     33  C   LIG    1       -0.567  -1.060  -0.301  0.00  0.00    +0.229 C 
ENDBRANCH  31  33
ENDBRANCH  29  31
ENDBRANCH   1  29
TORSDOF 6
