REMARK  Name = ZINC28821969
REMARK                            x       y       z     vdW  Elec       q    Type
REMARK                         _______ _______ _______ _____ _____    ______ ____
ROOT
ATOM      1  C   LIG    1       -2.917   2.995   1.558  0.00  0.00    +0.122 A 
ATOM      2  C   LIG    1       -3.660   3.414   0.464  0.00  0.00    +0.047 A 
ATOM      3  C   LIG    1       -4.854   4.081   0.656  0.00  0.00    +0.019 A 
ATOM      4  C   LIG    1       -5.309   4.331   1.939  0.00  0.00    +0.018 A 
ATOM      5 BR   LIG    1       -6.944   5.245   2.199  0.00  0.00    -0.050 Br
ATOM      6  C   LIG    1       -4.569   3.915   3.031  0.00  0.00    +0.020 A 
ATOM      7  C   LIG    1       -3.377   3.243   2.842  0.00  0.00    -0.022 A 
ENDROOT
BRANCH   1   8
ATOM      8  O   LIG    1       -1.741   2.339   1.370  0.00  0.00    -0.487 OA
BRANCH   8   9
ATOM      9  C   LIG    1       -1.332   2.114   0.020  0.00  0.00    +0.264 C 
BRANCH   9  16
ATOM     10  C   LIG    1        1.171   2.086   0.002  0.00  0.00    +0.008 A 
ATOM     11  C   LIG    1        2.377   1.412  -0.013  0.00  0.00    +0.020 A 
ATOM     12  C   LIG    1        2.397   0.029  -0.021  0.00  0.00    +0.041 A 
ATOM     13 CL   LIG    1        3.912  -0.818  -0.039  0.00  0.00    -0.084 Cl
ATOM     14  C   LIG    1        1.208  -0.679  -0.013  0.00  0.00    +0.020 A 
ATOM     15  C   LIG    1        0.002  -0.004   0.002  0.00  0.00    +0.008 A 
ATOM     16  C   LIG    1       -0.017   1.378   0.010  0.00  0.00    -0.010 A 
ENDBRANCH   9  16
ENDBRANCH   8   9
ENDBRANCH   1   8
BRANCH   7  17
ATOM     17  C   LIG    1       -2.575   2.783   4.032  0.00  0.00    -0.047 C 
BRANCH  17  18
ATOM     18  N   LIG    1       -1.481   3.731   4.281  0.00  0.00    +0.381 N 
ATOM     19  H   LIG    1       -0.829   3.780   3.397  0.00  0.00    -0.090 HD
ATOM     20  H   LIG    1       -1.899   4.728   4.484  0.00  0.00    -0.090 HD
ATOM     21  H   LIG    1       -0.895   3.396   5.150  0.00  0.00    -0.090 HD
ENDBRANCH  17  18
ENDBRANCH   7  17
TORSDOF 5
