REMARK  Name = ZINC44460257
REMARK                            x       y       z     vdW  Elec       q    Type
REMARK                         _______ _______ _______ _____ _____    ______ ____
ROOT
ATOM      1  C   LIG    1       -5.986  -6.032  -0.287  0.00  0.00    +0.136 C 
ATOM      2  C   LIG    1       -6.250  -7.536  -0.404  0.00  0.00    +0.033 C 
ATOM      3  C   LIG    1       -7.761  -7.779  -0.333  0.00  0.00    +0.011 C 
ATOM      4  C   LIG    1       -8.312  -7.189   0.963  0.00  0.00    +0.047 C 
ATOM      5  C   LIG    1       -7.756  -7.950   2.170  0.00  0.00    +0.106 C 
ATOM      6  N   LIG    1       -8.412  -7.420   3.373  0.00  0.00    -0.336 N 
ATOM      7  H   LIG    1       -8.734  -8.020   4.064  0.00  0.00    +0.147 HD
ATOM      8  C   LIG    1       -8.565  -6.035   3.507  0.00  0.00    +0.033 A 
ATOM      9  C   LIG    1       -8.936  -5.513   4.742  0.00  0.00    +0.024 A 
ATOM     10  C   LIG    1       -9.097  -4.151   4.897  0.00  0.00    +0.014 A 
ATOM     11  C   LIG    1       -8.890  -3.305   3.822  0.00  0.00    +0.055 A 
ATOM     12  C   LIG    1       -8.521  -3.821   2.595  0.00  0.00    +0.020 A 
ATOM     13  C   LIG    1       -8.354  -5.186   2.433  0.00  0.00    +0.003 A 
ATOM     14  C   LIG    1       -7.917  -5.721   1.095  0.00  0.00    +0.156 C 
ATOM     15  O   LIG    1       -6.522  -5.557   0.949  0.00  0.00    -0.367 OA
ENDROOT
BRANCH   5  16
ATOM     16  C   LIG    1       -8.056  -9.421   2.029  0.00  0.00    -0.027 A 
ATOM     17  C   LIG    1       -9.312  -9.903   2.346  0.00  0.00    +0.005 A 
ATOM     18  C   LIG    1       -9.587 -11.252   2.217  0.00  0.00    +0.000 A 
ATOM     19  C   LIG    1       -8.606 -12.118   1.771  0.00  0.00    +0.000 A 
ATOM     20  C   LIG    1       -7.350 -11.635   1.453  0.00  0.00    +0.000 A 
ATOM     21  C   LIG    1       -7.077 -10.286   1.578  0.00  0.00    +0.005 A 
ENDBRANCH   5  16
BRANCH  11  22
ATOM     22  C   LIG    1       -9.070  -1.819   3.990  0.00  0.00    +0.417 C 
ATOM     23  F   LIG    1      -10.067  -1.368   3.118  0.00  0.00    -0.166 F 
ATOM     24  F   LIG    1       -7.866  -1.168   3.698  0.00  0.00    -0.166 F 
ATOM     25  F   LIG    1       -9.443  -1.540   5.309  0.00  0.00    -0.166 F 
ENDBRANCH  11  22
BRANCH   1  26
ATOM     26  C   LIG    1       -4.479  -5.772  -0.324  0.00  0.00    +0.137 C 
BRANCH  26  30
ATOM     27  N   LIG    1       -2.733  -2.544  -0.111  0.00  0.00    -0.301 N 
ATOM     28  H   LIG    1       -3.477  -1.927  -0.028  0.00  0.00    +0.150 HD
ATOM     29  C   LIG    1       -2.964  -3.867  -0.218  0.00  0.00    +0.300 C 
ATOM     30  N   LIG    1       -4.228  -4.334  -0.208  0.00  0.00    -0.297 N 
ATOM     31  H   LIG    1       -4.972  -3.717  -0.125  0.00  0.00    +0.150 HD
ATOM     32  O   LIG    1       -2.031  -4.640  -0.323  0.00  0.00    -0.253 OA
BRANCH  27  33
ATOM     33  C   LIG    1       -1.358  -2.037  -0.122  0.00  0.00    +0.087 C 
BRANCH  33  34
ATOM     34  C   LIG    1       -1.376  -0.512   0.012  0.00  0.00    -0.061 C 
BRANCH  34  36
ATOM     35  C   LIG    1       -0.018   1.465   0.010  0.00  0.00    -0.097 C 
ATOM     36  N   LIG    1        0.002  -0.004   0.002  0.00  0.00    +0.377 N 
ATOM     37  H   LIG    1        0.474  -0.330  -0.828  0.00  0.00    -0.083 HD
ATOM     38  C   LIG    1        0.713  -0.491   1.192  0.00  0.00    -0.097 C 
ENDBRANCH  34  36
ENDBRANCH  33  34
ENDBRANCH  27  33
ENDBRANCH  26  30
ENDBRANCH   1  26
TORSDOF 7
