REMARK  Name = ZINC15924299
REMARK                            x       y       z     vdW  Elec       q    Type
REMARK                         _______ _______ _______ _____ _____    ______ ____
ROOT
ATOM      1  C   LIG    1        0.477  -5.016   1.398  0.00  0.00    +0.394 C 
ATOM      2  N   LIG    1        0.834  -6.249   1.657  0.00  0.00    -0.288 N 
ATOM      3  H   LIG    1        1.092  -6.842   0.934  0.00  0.00    +0.255 HD
ATOM      4  H   LIG    1        0.840  -6.570   2.573  0.00  0.00    +0.255 HD
ENDROOT
BRANCH   1   5
ATOM      5  N   LIG    1        0.461  -4.561   0.093  0.00  0.00    -0.243 N 
ATOM      6  H   LIG    1        0.637  -5.175  -0.636  0.00  0.00    +0.265 HD
BRANCH   5  11
ATOM      7  C   LIG    1       -0.633   0.897  -0.996  0.00  0.00    +0.044 C 
ATOM      8  C   LIG    1       -0.342  -0.553  -0.706  0.00  0.00    -0.050 A 
ATOM      9  C   LIG    1        0.325  -0.905   0.452  0.00  0.00    +0.007 A 
ATOM     10  C   LIG    1        0.593  -2.233   0.721  0.00  0.00    +0.042 A 
ATOM     11  C   LIG    1        0.191  -3.216  -0.175  0.00  0.00    +0.100 A 
ATOM     12  C   LIG    1       -0.480  -2.859  -1.338  0.00  0.00    +0.042 A 
ATOM     13  C   LIG    1       -0.749  -1.529  -1.597  0.00  0.00    +0.007 A 
ENDBRANCH   5  11
ENDBRANCH   1   5
BRANCH   1  14
ATOM     14  N   LIG    1        0.125  -4.190   2.404  0.00  0.00    -0.006 NA
ATOM     15  C   LIG    1       -0.655  -4.627   3.375  0.00  0.00    +0.387 C 
BRANCH  15  16
ATOM     16  N   LIG    1       -0.916  -3.830   4.454  0.00  0.00    -0.289 N 
ATOM     17  H   LIG    1       -1.489  -4.151   5.167  0.00  0.00    +0.255 HD
ATOM     18  H   LIG    1       -0.528  -2.942   4.506  0.00  0.00    +0.255 HD
ENDBRANCH  15  16
BRANCH  15  19
ATOM     19  N   LIG    1       -1.201  -5.878   3.301  0.00  0.00    -0.289 N 
ATOM     20  H   LIG    1       -1.779  -6.197   4.012  0.00  0.00    +0.255 HD
ATOM     21  H   LIG    1       -1.012  -6.446   2.538  0.00  0.00    +0.255 HD
ENDBRANCH  15  19
ENDBRANCH   1  14
TORSDOF 5
