REMARK  Name = ZINC13815570
REMARK                            x       y       z     vdW  Elec       q    Type
REMARK                         _______ _______ _______ _____ _____    ______ ____
ROOT
ATOM      1  S   LIG    1        0.062  -4.746  -0.884  0.00  0.00    +0.076 S 
ATOM      2  O   LIG    1       -1.178  -4.914  -0.210  0.00  0.00    -0.150 OA
ATOM      3  O   LIG    1        1.312  -4.881  -0.223  0.00  0.00    -0.150 OA
ENDROOT
BRANCH   1   4
ATOM      4  C   LIG    1        0.070  -5.899  -2.217  0.00  0.00    +0.130 A 
ATOM      5  C   LIG    1        1.131  -6.737  -2.450  0.00  0.00    +0.037 A 
ATOM      6  C   LIG    1        1.073  -7.602  -3.495  0.00  0.00    +0.048 A 
ATOM      7  S   LIG    1       -0.425  -7.302  -4.194  0.00  0.00    -0.088 S 
ATOM      8  C   LIG    1       -0.999  -6.020  -3.096  0.00  0.00    +0.123 A 
BRANCH   8   9
ATOM      9  C   LIG    1       -2.225  -5.309  -3.116  0.00  0.00    +0.345 C 
ATOM     10  O   LIG    1       -2.448  -4.450  -2.272  0.00  0.00    -0.244 OA
BRANCH   9  11
ATOM     11  O   LIG    1       -3.061  -5.554  -3.977  0.00  0.00    -0.477 OA
ATOM     12  H   LIG    1       -2.891  -6.211  -4.622  0.00  0.00    +0.295 HD
ENDBRANCH   9  11
ENDBRANCH   8   9
ENDBRANCH   1   4
BRANCH   1  13
ATOM     13  N   LIG    1        0.038  -3.229  -1.548  0.00  0.00    -0.182 N 
ATOM     14  H   LIG    1        0.032  -3.121  -2.527  0.00  0.00    +0.177 HD
BRANCH  13  19
ATOM     15  C   LIG    1       -0.018   1.503   0.010  0.00  0.00    +0.071 C 
ATOM     16  C   LIG    1        0.002  -0.004   0.002  0.00  0.00    +0.101 A 
ATOM     17  C   LIG    1        0.008  -0.819  -1.138  0.00  0.00    +0.126 A 
ATOM     18 CL   LIG    1       -0.008  -0.270  -2.785  0.00  0.00    -0.076 Cl
ATOM     19  C   LIG    1        0.027  -2.115  -0.728  0.00  0.00    +0.255 A 
ATOM     20  O   LIG    1        0.034  -2.121   0.616  0.00  0.00    -0.336 OA
ATOM     21  N   LIG    1        0.023  -0.775   1.055  0.00  0.00    -0.080 NA
ENDBRANCH  13  19
ENDBRANCH   1  13
TORSDOF 5
