REMARK  Name = ZINC19498278
REMARK                            x       y       z     vdW  Elec       q    Type
REMARK                         _______ _______ _______ _____ _____    ______ ____
ROOT
ATOM      1  C   LIG    1       -0.019   1.526   0.010  0.00  0.00    +0.030 C 
ATOM      2  C   LIG    1        0.002  -0.004   0.002  0.00  0.00    +0.098 C 
ATOM      3  C   LIG    1        0.717  -0.495  -1.234  0.00  0.00    +0.037 A 
ATOM      4  C   LIG    1        1.617  -1.505  -1.214  0.00  0.00    -0.016 A 
ATOM      5  C   LIG    1        2.000  -2.251   0.040  0.00  0.00    +0.052 C 
ATOM      6  C   LIG    1        0.948  -1.946   1.114  0.00  0.00    +0.086 C 
ATOM      7  C   LIG    1        2.086  -1.688  -2.569  0.00  0.00    +0.007 A 
ATOM      8  C   LIG    1        3.006  -2.571  -3.145  0.00  0.00    +0.056 A 
ATOM      9  C   LIG    1        3.211  -2.455  -4.511  0.00  0.00    +0.121 A 
ATOM     10  C   LIG    1        2.538  -1.511  -5.277  0.00  0.00    +0.047 A 
ATOM     11  C   LIG    1        1.625  -0.631  -4.724  0.00  0.00    +0.030 A 
ATOM     12  C   LIG    1        1.399  -0.726  -3.353  0.00  0.00    +0.047 A 
ATOM     13  N   LIG    1        0.580  -0.024  -2.511  0.00  0.00    -0.356 N 
ATOM     14  H   LIG    1       -0.009   0.698  -2.780  0.00  0.00    +0.166 HD
ATOM     15  N   LIG    1        0.722  -0.495   1.188  0.00  0.00    -0.308 NA
ATOM     16  H   LIG    1        1.593  -0.002   1.312  0.00  0.00    +0.123 HD
ENDROOT
BRANCH   9  17
ATOM     17  O   LIG    1        4.096  -3.290  -5.120  0.00  0.00    -0.495 OA
ATOM     18  C   LIG    1        4.273  -3.132  -6.529  0.00  0.00    +0.277 C 
ENDBRANCH   9  17
TORSDOF 1
