REMARK  Name = ZINC64503663
REMARK                            x       y       z     vdW  Elec       q    Type
REMARK                         _______ _______ _______ _____ _____    ______ ____
ROOT
ATOM      1  C   LIG    1        6.342  -1.218   5.735  0.00  0.00    +0.136 A 
ATOM      2  N   LIG    1        6.941  -2.384   5.823  0.00  0.00    -0.233 NA
ATOM      3  C   LIG    1        7.521  -2.818   6.965  0.00  0.00    +0.080 A 
ATOM      4  C   LIG    1        8.192  -4.042   7.191  0.00  0.00    +0.031 A 
ATOM      5  C   LIG    1        8.728  -4.333   8.418  0.00  0.00    +0.025 A 
ATOM      6  C   LIG    1        8.632  -3.439   9.482  0.00  0.00    +0.035 A 
ATOM      7  C   LIG    1        7.979  -2.228   9.293  0.00  0.00    +0.040 A 
ATOM      8  C   LIG    1        7.441  -1.935   8.065  0.00  0.00    +0.042 A 
ATOM      9  S   LIG    1        6.555  -0.555   7.381  0.00  0.00    -0.061 S 
ENDROOT
BRANCH   6  10
ATOM     10  N   LIG    1        9.188  -3.759  10.728  0.00  0.00    -0.283 N 
ATOM     11  H   LIG    1        9.994  -4.296  10.776  0.00  0.00    +0.155 HD
BRANCH  10  12
ATOM     12  C   LIG    1        8.588  -3.308  11.887  0.00  0.00    +0.225 A 
ATOM     13  N   LIG    1        7.422  -2.671  11.828  0.00  0.00    -0.181 NA
ATOM     14  C   LIG    1        6.845  -2.237  12.944  0.00  0.00    +0.224 A 
ATOM     15  N   LIG    1        7.432  -2.440  14.119  0.00  0.00    -0.181 NA
ATOM     16  C   LIG    1        8.597  -3.078  14.178  0.00  0.00    +0.224 A 
ATOM     17  N   LIG    1        9.172  -3.516  13.063  0.00  0.00    -0.181 NA
BRANCH  14  18
ATOM     18  N   LIG    1        5.635  -1.575  12.883  0.00  0.00    -0.299 N 
ATOM     19  C   LIG    1        4.893  -1.039  14.033  0.00  0.00    +0.108 C 
ATOM     20  C   LIG    1        3.594  -0.410  13.487  0.00  0.00    +0.020 C 
ATOM     21  C   LIG    1        3.407  -1.126  12.123  0.00  0.00    +0.020 C 
ATOM     22  C   LIG    1        4.877  -1.282  11.653  0.00  0.00    +0.108 C 
ENDBRANCH  14  18
BRANCH  16  23
ATOM     23  N   LIG    1        9.207  -3.289  15.398  0.00  0.00    -0.299 N 
ATOM     24  C   LIG    1        8.679  -2.870  16.704  0.00  0.00    +0.108 C 
ATOM     25  C   LIG    1        9.708  -3.296  17.773  0.00  0.00    +0.020 C 
ATOM     26  C   LIG    1       11.021  -3.426  16.958  0.00  0.00    +0.020 C 
ATOM     27  C   LIG    1       10.494  -3.978  15.608  0.00  0.00    +0.108 C 
ENDBRANCH  16  23
ENDBRANCH  10  12
ENDBRANCH   6  10
BRANCH   1  28
ATOM     28  S   LIG    1        5.539  -0.490   4.346  0.00  0.00    -0.089 S 
BRANCH  28  29
ATOM     29  C   LIG    1        5.716  -1.733   3.036  0.00  0.00    +0.172 C 
BRANCH  29  32
ATOM     30  N   LIG    1        5.070  -1.990   0.662  0.00  0.00    -0.311 N 
ATOM     31  H   LIG    1        5.495  -2.862   0.673  0.00  0.00    +0.149 HD
ATOM     32  C   LIG    1        5.063  -1.229   1.774  0.00  0.00    +0.224 C 
ATOM     33  O   LIG    1        4.531  -0.139   1.760  0.00  0.00    -0.275 OA
BRANCH  30  34
ATOM     34  C   LIG    1        4.435  -1.500  -0.564  0.00  0.00    +0.139 C 
BRANCH  34  38
ATOM     35  C   LIG    1        4.849  -4.426  -3.650  0.00  0.00    +0.000 A 
ATOM     36  C   LIG    1        3.748  -4.453  -2.814  0.00  0.00    +0.000 A 
ATOM     37  C   LIG    1        3.614  -3.507  -1.816  0.00  0.00    +0.005 A 
ATOM     38  C   LIG    1        4.582  -2.533  -1.652  0.00  0.00    -0.030 A 
ATOM     39  C   LIG    1        5.683  -2.506  -2.487  0.00  0.00    +0.005 A 
ATOM     40  C   LIG    1        5.816  -3.451  -3.487  0.00  0.00    +0.000 A 
ENDBRANCH  34  38
ENDBRANCH  30  34
ENDBRANCH  29  32
ENDBRANCH  28  29
ENDBRANCH   1  28
TORSDOF 9
