REMARK  Name = ZINC18098320
REMARK                            x       y       z     vdW  Elec       q    Type
REMARK                         _______ _______ _______ _____ _____    ______ ____
ROOT
ATOM      1  C   LIG    1       10.238   4.095   4.104  0.00  0.00    +0.003 C 
ENDROOT
BRANCH   1   2
ATOM      2  C   LIG    1       11.399   3.512   3.296  0.00  0.00    +0.003 C 
BRANCH   2   3
ATOM      3  C   LIG    1       12.273   4.651   2.765  0.00  0.00    +0.037 C 
BRANCH   3   4
ATOM      4  C   LIG    1       13.434   4.068   1.957  0.00  0.00    +0.196 C 
BRANCH   4   5
ATOM      5  N   LIG    1       14.271   5.158   1.449  0.00  0.00    -0.276 N 
ATOM      6  H   LIG    1       14.041   6.079   1.648  0.00  0.00    +0.258 HD
BRANCH   5   7
ATOM      7  C   LIG    1       15.381   4.875   0.690  0.00  0.00    +0.388 C 
ATOM      8  N   LIG    1       15.690   3.639   0.422  0.00  0.00    -0.129 NA
ATOM      9  H   LIG    1       16.521   3.434  -0.035  0.00  0.00    +0.306 HD
BRANCH   7  10
ATOM     10  N   LIG    1       16.169   5.902   0.211  0.00  0.00    -0.186 N 
ATOM     11  H   LIG    1       16.122   6.780   0.620  0.00  0.00    +0.271 HD
BRANCH  10  12
ATOM     12  C   LIG    1       17.022   5.679  -0.846  0.00  0.00    +0.394 C 
ATOM     13  N   LIG    1       17.856   6.619  -1.225  0.00  0.00    -0.073 NA
BRANCH  13  14
ATOM     14  C   LIG    1       17.790   7.863  -0.656  0.00  0.00    +0.142 A 
ATOM     15  C   LIG    1       16.682   8.681  -0.884  0.00  0.00    +0.047 A 
ATOM     16  C   LIG    1       16.621   9.933  -0.308  0.00  0.00    +0.023 A 
ATOM     17  C   LIG    1       17.657  10.379   0.495  0.00  0.00    +0.041 A 
ATOM     18 CL   LIG    1       17.574  11.956   1.216  0.00  0.00    -0.084 Cl
ATOM     19  C   LIG    1       18.759   9.573   0.724  0.00  0.00    +0.023 A 
ATOM     20  C   LIG    1       18.829   8.317   0.159  0.00  0.00    +0.047 A 
ENDBRANCH  13  14
BRANCH  12  21
ATOM     21  N   LIG    1       17.001   4.475  -1.504  0.00  0.00    -0.288 N 
ATOM     22  H   LIG    1       17.773   4.188  -2.017  0.00  0.00    +0.255 HD
ATOM     23  H   LIG    1       16.214   3.910  -1.456  0.00  0.00    +0.255 HD
ENDBRANCH  12  21
ENDBRANCH  10  12
ENDBRANCH   7  10
ENDBRANCH   5   7
ENDBRANCH   4   5
ENDBRANCH   3   4
ENDBRANCH   2   3
ENDBRANCH   1   2
BRANCH   1  24
ATOM     24  C   LIG    1        9.364   2.956   4.634  0.00  0.00    +0.037 C 
BRANCH  24  25
ATOM     25  C   LIG    1        8.203   3.539   5.442  0.00  0.00    +0.196 C 
BRANCH  25  26
ATOM     26  N   LIG    1        7.366   2.449   5.950  0.00  0.00    -0.276 N 
ATOM     27  H   LIG    1        7.596   1.528   5.751  0.00  0.00    +0.258 HD
BRANCH  26  29
ATOM     28  N   LIG    1        5.568   1.748   7.250  0.00  0.00    -0.003 NA
ATOM     29  C   LIG    1        6.262   2.730   6.705  0.00  0.00    +0.390 C 
BRANCH  28  30
ATOM     30  C   LIG    1        6.012   0.478   7.160  0.00  0.00    +0.429 C 
ATOM     31  N   LIG    1        7.151   0.142   7.713  0.00  0.00    -0.126 NA
ATOM     32  H   LIG    1        7.709   0.821   8.124  0.00  0.00    +0.306 HD
BRANCH  30  33
ATOM     33  N   LIG    1        5.265  -0.469   6.486  0.00  0.00    -0.241 N 
ATOM     34  H   LIG    1        4.448  -0.209   6.032  0.00  0.00    +0.265 HD
BRANCH  33  36
ATOM     35  C   LIG    1        5.435  -2.589   5.342  0.00  0.00    +0.043 A 
ATOM     36  C   LIG    1        5.687  -1.802   6.458  0.00  0.00    +0.100 A 
ATOM     37  C   LIG    1        6.360  -2.342   7.547  0.00  0.00    +0.043 A 
ATOM     38  C   LIG    1        6.776  -3.658   7.516  0.00  0.00    +0.023 A 
ATOM     39  C   LIG    1        6.524  -4.440   6.402  0.00  0.00    +0.041 A 
ATOM     40 CL   LIG    1        7.048  -6.094   6.367  0.00  0.00    -0.084 Cl
ATOM     41  C   LIG    1        5.853  -3.905   5.317  0.00  0.00    +0.023 A 
ENDBRANCH  33  36
ENDBRANCH  30  33
ENDBRANCH  28  30
BRANCH  29  42
ATOM     42  N   LIG    1        5.876   4.027   6.896  0.00  0.00    -0.289 N 
ATOM     43  H   LIG    1        6.386   4.748   6.496  0.00  0.00    +0.255 HD
ATOM     44  H   LIG    1        5.093   4.226   7.432  0.00  0.00    +0.255 HD
ENDBRANCH  29  42
ENDBRANCH  26  29
ENDBRANCH  25  26
ENDBRANCH  24  25
ENDBRANCH   1  24
TORSDOF 17
