REMARK  Name = ZINC27549882
REMARK                            x       y       z     vdW  Elec       q    Type
REMARK                         _______ _______ _______ _____ _____    ______ ____
ROOT
ATOM      1  C   LIG    1       -1.915   2.369   3.622  0.00  0.00    +0.045 A 
ATOM      2  C   LIG    1       -2.205   3.011   2.436  0.00  0.00    +0.007 A 
ATOM      3  C   LIG    1       -1.604   2.611   1.250  0.00  0.00    -0.046 A 
ATOM      4  C   LIG    1       -0.707   1.566   1.256  0.00  0.00    -0.041 A 
ATOM      5  C   LIG    1       -0.013   1.086   0.008  0.00  0.00    +0.034 C 
ATOM      6  C   LIG    1       -0.741   1.587  -1.238  0.00  0.00    -0.011 C 
ATOM      7  C   LIG    1       -0.941   3.101  -1.105  0.00  0.00    -0.071 C 
ATOM      8  C   LIG    1       -0.414   0.917   2.447  0.00  0.00    +0.049 A 
ATOM      9  C   LIG    1       -1.973   3.355  -0.007  0.00  0.00    +0.019 C 
ATOM     10  C   LIG    1       -1.014   1.315   3.630  0.00  0.00    +0.117 A 
ENDROOT
BRANCH   7  11
ATOM     11  N   LIG    1       -1.427   3.650  -2.377  0.00  0.00    +0.380 N 
ATOM     12  H   LIG    1       -0.691   3.447  -3.169  0.00  0.00    -0.090 HD
ATOM     13  H   LIG    1       -2.385   3.176  -2.639  0.00  0.00    -0.090 HD
ATOM     14  H   LIG    1       -1.570   4.736  -2.278  0.00  0.00    -0.090 HD
ENDBRANCH   7  11
BRANCH  10  15
ATOM     15  O   LIG    1       -0.722   0.675   4.793  0.00  0.00    -0.507 OA
ATOM     16  H   LIG    1       -0.007  -0.161   4.796  0.00  0.00    +0.292 HD
ENDBRANCH  10  15
TORSDOF 2
