REMARK  Name = ZINC34417080
REMARK                            x       y       z     vdW  Elec       q    Type
REMARK                         _______ _______ _______ _____ _____    ______ ____
ROOT
ATOM      1  C   LIG    1        0.286   1.274   0.309  0.00  0.00    +0.238 C 
ATOM      2  N   LIG    1        0.257  -0.181   0.143  0.00  0.00    -0.162 N 
ATOM      3  C   LIG    1       -0.859  -0.931   0.211  0.00  0.00    +0.315 C 
ATOM      4  C   LIG    1       -0.429  -2.365  -0.017  0.00  0.00    +0.171 C 
ATOM      5  N   LIG    1        1.028  -2.283  -0.212  0.00  0.00    -0.223 N 
ATOM      6  H   LIG    1        1.633  -3.022  -0.383  0.00  0.00    +0.246 HD
ATOM      7  O   LIG    1       -1.987  -0.537   0.416  0.00  0.00    -0.253 OA
ATOM      8  C   LIG    1        1.363  -0.955  -0.109  0.00  0.00    +0.372 C 
ATOM      9  N   LIG    1        2.573  -0.491  -0.231  0.00  0.00    -0.133 NA
ATOM     10  H   LIG    1        2.738   0.461  -0.143  0.00  0.00    +0.306 HD
ENDROOT
BRANCH   4  11
ATOM     11  C   LIG    1       -1.104  -2.933  -1.266  0.00  0.00    +0.056 C 
BRANCH  11  12
ATOM     12  C   LIG    1       -0.578  -2.206  -2.506  0.00  0.00    -0.007 C 
ATOM     13  C   LIG    1       -1.093  -0.766  -2.509  0.00  0.00    +0.004 C 
ATOM     14  C   LIG    1       -0.567  -0.039  -3.749  0.00  0.00    +0.000 C 
ATOM     15  C   LIG    1       -1.055  -0.758  -5.008  0.00  0.00    +0.000 C 
ATOM     16  C   LIG    1       -0.540  -2.199  -5.004  0.00  0.00    +0.000 C 
ATOM     17  C   LIG    1       -1.066  -2.926  -3.765  0.00  0.00    +0.004 C 
ENDBRANCH  11  12
ENDBRANCH   4  11
BRANCH   4  18
ATOM     18  C   LIG    1       -0.757  -3.223   1.207  0.00  0.00    +0.053 C 
BRANCH  18  19
ATOM     19  C   LIG    1       -0.034  -2.660   2.433  0.00  0.00    +0.007 C 
BRANCH  19  20
ATOM     20  C   LIG    1       -0.362  -3.518   3.656  0.00  0.00    -0.011 C 
ATOM     21  C   LIG    1       -1.854  -3.401   3.976  0.00  0.00    +0.003 C 
ATOM     22  C   LIG    1       -2.182  -4.259   5.200  0.00  0.00    +0.000 C 
ATOM     23  C   LIG    1       -1.364  -3.773   6.398  0.00  0.00    +0.000 C 
ATOM     24  C   LIG    1        0.128  -3.890   6.078  0.00  0.00    +0.000 C 
ATOM     25  C   LIG    1        0.456  -3.032   4.854  0.00  0.00    +0.003 C 
ENDBRANCH  19  20
ENDBRANCH  18  19
ENDBRANCH   4  18
TORSDOF 5
