REMARK  Name = ZINC22000027
REMARK                            x       y       z     vdW  Elec       q    Type
REMARK                         _______ _______ _______ _____ _____    ______ ____
ROOT
ATOM      1  C   LIG    1       -2.113   2.537   8.374  0.00  0.00    +0.121 A 
ATOM      2  C   LIG    1       -0.973   1.746   8.415  0.00  0.00    +0.046 A 
ATOM      3  C   LIG    1       -0.431   1.381   9.631  0.00  0.00    +0.007 A 
ATOM      4  C   LIG    1       -1.028   1.793  10.808  0.00  0.00    -0.046 A 
ATOM      5  C   LIG    1       -2.167   2.576  10.770  0.00  0.00    +0.007 A 
ATOM      6  C   LIG    1       -2.711   2.949   9.556  0.00  0.00    +0.046 A 
ENDROOT
BRANCH   1   7
ATOM      7  O   LIG    1       -2.645   2.902   7.178  0.00  0.00    -0.492 OA
BRANCH   7   8
ATOM      8  C   LIG    1       -1.977   2.441   6.002  0.00  0.00    +0.233 C 
BRANCH   8   9
ATOM      9  C   LIG    1       -2.717   2.949   4.763  0.00  0.00    +0.076 C 
BRANCH   9  13
ATOM     10  C   LIG    1       -0.718   1.572   1.248  0.00  0.00    -0.048 A 
ATOM     11  C   LIG    1       -0.360   2.779   1.819  0.00  0.00    +0.004 A 
ATOM     12  C   LIG    1       -1.010   3.227   2.954  0.00  0.00    +0.004 A 
ATOM     13  C   LIG    1       -2.012   2.463   3.523  0.00  0.00    -0.044 A 
ATOM     14  C   LIG    1       -2.366   1.254   2.955  0.00  0.00    +0.004 A 
ATOM     15  C   LIG    1       -1.719   0.808   1.818  0.00  0.00    +0.004 A 
BRANCH  10  17
ATOM     16  C   LIG    1       -0.753   1.593  -1.232  0.00  0.00    +0.009 C 
ATOM     17  C   LIG    1       -0.013   1.086   0.008  0.00  0.00    +0.032 C 
ENDBRANCH  10  17
ENDBRANCH   9  13
ENDBRANCH   8   9
ENDBRANCH   7   8
ENDBRANCH   1   7
BRANCH   4  18
ATOM     18  C   LIG    1       -0.438   1.388  12.134  0.00  0.00    +0.059 C 
BRANCH  18  19
ATOM     19  C   LIG    1       -1.055   0.062  12.584  0.00  0.00    +0.146 C 
ATOM     20  C   LIG    1       -0.433  -0.425  13.884  0.00  0.00    +0.234 C 
ATOM     21  N   LIG    1        0.205  -1.582  13.809  0.00  0.00    -0.246 N 
ATOM     22  H   LIG    1        0.683  -2.005  14.705  0.00  0.00    +0.158 HD
ATOM     23  C   LIG    1        0.309  -2.296  12.674  0.00  0.00    +0.279 C 
ATOM     24  O   LIG    1        0.871  -3.362  12.508  0.00  0.00    -0.263 OA
ATOM     25  O   LIG    1       -0.515   0.203  14.918  0.00  0.00    -0.274 OA
ATOM     26  S   LIG    1       -0.569  -1.314  11.467  0.00  0.00    -0.054 S 
ENDBRANCH  18  19
ENDBRANCH   4  18
TORSDOF 7
