REMARK  Name = ZINC49090010
REMARK                            x       y       z     vdW  Elec       q    Type
REMARK                         _______ _______ _______ _____ _____    ______ ____
ROOT
ATOM      1  N   LIG    1        3.510   3.360  -0.931  0.00  0.00    -0.269 N 
ATOM      2  C   LIG    1        3.616   4.694  -0.583  0.00  0.00    +0.167 A 
ATOM      3  C   LIG    1        3.409   5.436  -1.754  0.00  0.00    +0.105 A 
ATOM      4  N   LIG    1        3.185   4.519  -2.777  0.00  0.00    -0.303 N 
ATOM      5  H   LIG    1        3.011   4.734  -3.706  0.00  0.00    +0.171 HD
ATOM      6  C   LIG    1        3.461   6.817  -1.683  0.00  0.00    +0.144 A 
ATOM      7  N   LIG    1        3.704   7.388  -0.512  0.00  0.00    -0.218 NA
ATOM      8  C   LIG    1        3.895   6.660   0.576  0.00  0.00    +0.238 A 
ATOM      9  N   LIG    1        3.854   5.336   0.552  0.00  0.00    -0.192 NA
ATOM     10  C   LIG    1        3.257   3.280  -2.252  0.00  0.00    +0.329 A 
ATOM     11  O   LIG    1        3.112   2.245  -2.875  0.00  0.00    -0.246 OA
ENDROOT
BRANCH   1  21
ATOM     12  C   LIG    1       -0.017   1.378   0.010  0.00  0.00    +0.003 A 
ATOM     13  C   LIG    1        1.170   2.085   0.002  0.00  0.00    +0.009 A 
ATOM     14  C   LIG    1        2.383   1.416  -0.015  0.00  0.00    +0.020 A 
ATOM     15  C   LIG    1        2.407   0.034  -0.026  0.00  0.00    +0.161 A 
ATOM     16  O   LIG    1        3.574  -0.663  -0.054  0.00  0.00    -0.489 OA
ATOM     17  C   LIG    1        4.772   0.028   0.303  0.00  0.00    +0.231 C 
ATOM     18  C   LIG    1        4.822   1.346  -0.480  0.00  0.00    +0.071 C 
ATOM     19  C   LIG    1        1.209  -0.677  -0.015  0.00  0.00    +0.165 A 
ATOM     20  F   LIG    1        1.227  -2.028  -0.022  0.00  0.00    -0.202 F 
ATOM     21  C   LIG    1        3.656   2.224  -0.018  0.00  0.00    +0.130 C 
ATOM     22  C   LIG    1        0.002  -0.004   0.002  0.00  0.00    +0.042 A 
ENDBRANCH   1  21
BRANCH   8  23
ATOM     23  N   LIG    1        4.148   7.305   1.786  0.00  0.00    -0.267 N 
ATOM     24  C   LIG    1        4.371   6.707   2.992  0.00  0.00    +0.207 A 
ATOM     25  N   LIG    1        4.572   7.609   3.907  0.00  0.00    -0.235 NA
ATOM     26  C   LIG    1        4.492   8.848   3.354  0.00  0.00    +0.090 A 
ATOM     27  C   LIG    1        4.623  10.140   3.869  0.00  0.00    +0.033 A 
ATOM     28  C   LIG    1        4.500  11.226   3.033  0.00  0.00    +0.040 A 
ATOM     29  C   LIG    1        4.233  11.047   1.681  0.00  0.00    +0.125 A 
ATOM     30  F   LIG    1        4.107  12.123   0.874  0.00  0.00    -0.205 F 
ATOM     31  C   LIG    1        4.096   9.777   1.158  0.00  0.00    +0.066 A 
ATOM     32  C   LIG    1        4.225   8.672   1.986  0.00  0.00    +0.079 A 
ENDBRANCH   8  23
TORSDOF 2
