REMARK  Name = ZINC28238008
REMARK                            x       y       z     vdW  Elec       q    Type
REMARK                         _______ _______ _______ _____ _____    ______ ____
ROOT
ATOM      1  N   LIG    1       -2.194   1.294  -3.604  0.00  0.00    -0.327 N 
ATOM      2  C   LIG    1       -0.784   1.709  -3.626  0.00  0.00    +0.120 C 
ATOM      3  C   LIG    1       -0.062   1.117  -2.413  0.00  0.00    +0.103 C 
ATOM      4  N   LIG    1       -0.723   1.572  -1.182  0.00  0.00    -0.294 NA
ATOM      5  C   LIG    1       -2.133   1.158  -1.160  0.00  0.00    +0.103 C 
ATOM      6  C   LIG    1       -2.855   1.750  -2.373  0.00  0.00    +0.120 C 
ENDROOT
BRANCH   1  10
ATOM      7  C   LIG    1       -4.208   2.674  -6.977  0.00  0.00    +0.000 A 
ATOM      8  C   LIG    1       -4.883   1.931  -6.026  0.00  0.00    +0.002 A 
ATOM      9  C   LIG    1       -4.218   1.471  -4.906  0.00  0.00    +0.023 A 
ATOM     10  C   LIG    1       -2.869   1.757  -4.735  0.00  0.00    +0.030 A 
ATOM     11  C   LIG    1       -2.196   2.509  -5.689  0.00  0.00    +0.023 A 
ATOM     12  C   LIG    1       -2.865   2.961  -6.810  0.00  0.00    +0.002 A 
ENDBRANCH   1  10
BRANCH   4  13
ATOM     13  C   LIG    1       -0.013   1.086   0.008  0.00  0.00    +0.085 C 
ATOM     14  C   LIG    1        1.423   1.615  -0.003  0.00  0.00    +0.021 C 
ATOM     15  C   LIG    1        2.163   1.109   1.237  0.00  0.00    +0.002 C 
ATOM     16  C   LIG    1        1.446   1.602   2.495  0.00  0.00    +0.003 C 
ATOM     17  C   LIG    1        0.011   1.072   2.506  0.00  0.00    +0.033 C 
ATOM     18  C   LIG    1       -0.729   1.579   1.267  0.00  0.00    +0.132 C 
BRANCH  18  19
ATOM     19  O   LIG    1       -0.748   3.008   1.275  0.00  0.00    -0.390 OA
ATOM     20  H   LIG    1       -1.224   3.547   2.107  0.00  0.00    +0.210 HD
ENDBRANCH  18  19
ENDBRANCH   4  13
TORSDOF 3
