REMARK  Name = ZINC40916008
REMARK                            x       y       z     vdW  Elec       q    Type
REMARK                         _______ _______ _______ _____ _____    ______ ____
ROOT
ATOM      1  N   LIG    1        3.611  -1.865  -0.930  0.00  0.00    -0.303 N 
ATOM      2  H   LIG    1        3.392  -2.738  -0.569  0.00  0.00    +0.150 HD
ATOM      3  C   LIG    1        3.825  -1.716  -2.253  0.00  0.00    +0.231 C 
ATOM      4  O   LIG    1        4.099  -0.624  -2.704  0.00  0.00    -0.274 OA
ENDROOT
BRANCH   1   5
ATOM      5  C   LIG    1        3.711  -0.707  -0.038  0.00  0.00    +0.134 C 
BRANCH   5   6
ATOM      6  C   LIG    1        4.044  -1.175   1.356  0.00  0.00    -0.023 A 
ATOM      7  C   LIG    1        3.455  -2.320   1.859  0.00  0.00    +0.007 A 
ATOM      8  C   LIG    1        3.760  -2.749   3.137  0.00  0.00    +0.020 A 
ATOM      9  C   LIG    1        4.654  -2.033   3.913  0.00  0.00    +0.041 A 
ATOM     10 CL   LIG    1        5.037  -2.571   5.518  0.00  0.00    -0.084 Cl
ATOM     11  C   LIG    1        5.243  -0.887   3.408  0.00  0.00    +0.020 A 
ATOM     12  C   LIG    1        4.941  -0.461   2.128  0.00  0.00    +0.007 A 
ENDBRANCH   5   6
BRANCH   5  16
ATOM     13  C   LIG    1       -0.017   1.378   0.010  0.00  0.00    +0.000 A 
ATOM     14  C   LIG    1        1.171   2.086   0.002  0.00  0.00    +0.000 A 
ATOM     15  C   LIG    1        2.377   1.411  -0.013  0.00  0.00    +0.006 A 
ATOM     16  C   LIG    1        2.396   0.029  -0.020  0.00  0.00    -0.023 A 
ATOM     17  C   LIG    1        1.208  -0.679  -0.012  0.00  0.00    +0.006 A 
ATOM     18  C   LIG    1        0.002  -0.004   0.002  0.00  0.00    +0.000 A 
ENDBRANCH   5  16
ENDBRANCH   1   5
BRANCH   3  19
ATOM     19  C   LIG    1        3.722  -2.906  -3.171  0.00  0.00    +0.200 C 
BRANCH  19  20
ATOM     20  N   LIG    1        3.995  -2.486  -4.548  0.00  0.00    -0.303 N 
ATOM     21  H   LIG    1        4.202  -1.558  -4.739  0.00  0.00    +0.150 HD
ATOM     22  C   LIG    1        3.960  -3.389  -5.547  0.00  0.00    +0.244 C 
ATOM     23  O   LIG    1        3.701  -4.553  -5.307  0.00  0.00    -0.270 OA
BRANCH  22  24
ATOM     24  C   LIG    1        4.235  -2.966  -6.937  0.00  0.00    +0.037 A 
ATOM     25  C   LIG    1        4.538  -1.632  -7.215  0.00  0.00    +0.013 A 
ATOM     26  C   LIG    1        4.795  -1.243  -8.514  0.00  0.00    +0.001 A 
ATOM     27  C   LIG    1        4.752  -2.172  -9.539  0.00  0.00    +0.000 A 
ATOM     28  C   LIG    1        4.452  -3.495  -9.269  0.00  0.00    +0.001 A 
ATOM     29  C   LIG    1        4.199  -3.898  -7.974  0.00  0.00    +0.013 A 
ENDBRANCH  22  24
ENDBRANCH  19  20
ENDBRANCH   3  19
TORSDOF 6
