REMARK  Name = ZINC19624717
REMARK                            x       y       z     vdW  Elec       q    Type
REMARK                         _______ _______ _______ _____ _____    ______ ____
ROOT
ATOM      1  C   LIG    1       -2.581   3.830   0.040  0.00  0.00    +0.088 C 
ATOM      2  C   LIG    1       -1.243   3.138   0.030  0.00  0.00    -0.027 A 
ATOM      3  C   LIG    1       -1.216   1.751   0.017  0.00  0.00    +0.005 A 
ATOM      4  C   LIG    1       -0.013   1.076   0.008  0.00  0.00    +0.000 A 
ATOM      5  C   LIG    1        1.175   1.785   0.000  0.00  0.00    +0.000 A 
ATOM      6  C   LIG    1        1.150   3.165   0.009  0.00  0.00    +0.004 A 
ATOM      7  C   LIG    1       -0.059   3.844   0.025  0.00  0.00    -0.041 A 
ATOM      8  C   LIG    1       -0.037   5.351   0.039  0.00  0.00    +0.050 C 
ATOM      9  C   LIG    1       -1.408   5.897  -0.360  0.00  0.00    +0.086 C 
ATOM     10  N   LIG    1       -2.433   5.228   0.457  0.00  0.00    -0.309 NA
ATOM     11  H   LIG    1       -3.392   5.751   0.330  0.00  0.00    +0.123 HD
ENDROOT
BRANCH   1  12
ATOM     12  C   LIG    1       -3.514   3.108   1.015  0.00  0.00    +0.058 C 
BRANCH  12  16
ATOM     13  C   LIG    1       -7.430   4.794   0.750  0.00  0.00    +0.000 A 
ATOM     14  C   LIG    1       -7.078   3.731  -0.062  0.00  0.00    +0.000 A 
ATOM     15  C   LIG    1       -5.811   3.186   0.024  0.00  0.00    +0.004 A 
ATOM     16  C   LIG    1       -4.895   3.703   0.921  0.00  0.00    -0.046 A 
ATOM     17  C   LIG    1       -5.249   4.762   1.737  0.00  0.00    +0.004 A 
ATOM     18  C   LIG    1       -6.514   5.311   1.647  0.00  0.00    +0.000 A 
ENDBRANCH  12  16
ENDBRANCH   1  12
TORSDOF 2
