REMARK  Name = ZINC38145872
REMARK                            x       y       z     vdW  Elec       q    Type
REMARK                         _______ _______ _______ _____ _____    ______ ____
ROOT
ATOM      1  C   LIG    1        1.490   1.190  -1.289  0.00  0.00    +0.024 C 
ATOM      2  C   LIG    1        1.175  -0.277  -0.992  0.00  0.00    +0.131 C 
ATOM      3  C   LIG    1        1.910  -1.127  -1.988  0.00  0.00    +0.201 C 
ATOM      4  O   LIG    1        1.806  -1.083  -3.196  0.00  0.00    -0.284 OA
ATOM      5  S   LIG    1        2.900  -2.147  -1.105  0.00  0.00    -0.069 S 
ATOM      6  C   LIG    1        2.519  -1.640   0.611  0.00  0.00    +0.098 C 
ATOM      7  C   LIG    1        3.773  -1.102   1.304  0.00  0.00    +0.036 C 
ATOM      8  C   LIG    1        1.495  -0.543   0.440  0.00  0.00    +0.164 C 
ATOM      9  O   LIG    1        0.990   0.053   1.361  0.00  0.00    -0.295 OA
ENDROOT
BRANCH   6  10
ATOM     10  C   LIG    1        1.937  -2.793   1.388  0.00  0.00    +0.001 C 
ATOM     11  C   LIG    1        1.096  -3.635   0.796  0.00  0.00    -0.053 C 
ATOM     12  C   LIG    1        0.589  -3.343  -0.593  0.00  0.00    +0.043 C 
BRANCH  11  13
ATOM     13  C   LIG    1        0.661  -4.854   1.496  0.00  0.00    -0.005 C 
ATOM     14  C   LIG    1       -0.179  -5.696   0.905  0.00  0.00    +0.009 C 
ENDBRANCH  11  13
ENDBRANCH   6  10
TORSDOF 2
