REMARK  Name = ZINC13759266
REMARK                            x       y       z     vdW  Elec       q    Type
REMARK                         _______ _______ _______ _____ _____    ______ ____
ROOT
ATOM      1  C   LIG    1       -0.059   4.602   0.036  0.00  0.00    +0.158 C 
ENDROOT
BRANCH   1   4
ATOM      2  C   LIG    1        1.172   1.214  -1.089  0.00  0.00    +0.002 A 
ATOM      3  C   LIG    1        1.158   2.528  -0.659  0.00  0.00    +0.004 A 
ATOM      4  C   LIG    1       -0.045   3.169  -0.433  0.00  0.00    -0.035 A 
ATOM      5  C   LIG    1       -1.236   2.497  -0.636  0.00  0.00    +0.024 A 
ATOM      6  C   LIG    1       -1.223   1.185  -1.072  0.00  0.00    +0.041 A 
ATOM      7 CL   LIG    1       -2.718   0.342  -1.336  0.00  0.00    -0.084 Cl
ATOM      8  C   LIG    1       -0.018   0.541  -1.294  0.00  0.00    +0.020 A 
ENDBRANCH   1   4
BRANCH   1   9
ATOM      9  C   LIG    1       -0.083   5.521  -1.158  0.00  0.00    +0.238 C 
ATOM     10  N   LIG    1       -0.086   4.957  -2.346  0.00  0.00    -0.292 N 
ATOM     11  H   LIG    1       -0.074   3.934  -2.429  0.00  0.00    +0.301 HD
ATOM     12  H   LIG    1       -0.102   5.537  -3.185  0.00  0.00    +0.301 HD
BRANCH   9  13
ATOM     13  N   LIG    1       -0.098   6.879  -0.977  0.00  0.00    -0.254 N 
ATOM     14  H   LIG    1       -0.113   7.470  -1.746  0.00  0.00    +0.288 HD
ATOM     15  H   LIG    1       -0.095   7.248  -0.080  0.00  0.00    +0.288 HD
ENDBRANCH   9  13
ENDBRANCH   1   9
TORSDOF 3
