REMARK  Name = ZINC26820309
REMARK                            x       y       z     vdW  Elec       q    Type
REMARK                         _______ _______ _______ _____ _____    ______ ____
ROOT
ATOM      1  N   LIG    1        0.027  -1.986   1.435  0.00  0.00    -0.299 N 
ATOM      2  H   LIG    1        0.022  -2.531   0.479  0.00  0.00    +0.150 HD
ATOM      3  C   LIG    1        0.057  -2.667   2.598  0.00  0.00    +0.304 C 
ATOM      4  N   LIG    1        0.081  -4.014   2.590  0.00  0.00    -0.269 N 
ATOM      5  H   LIG    1        0.001  -4.560   1.638  0.00  0.00    +0.156 HD
ATOM      6  O   LIG    1        0.063  -2.065   3.654  0.00  0.00    -0.253 OA
ENDROOT
BRANCH   4   7
ATOM      7  C   LIG    1        0.208  -4.718   3.789  0.00  0.00    +0.043 A 
ATOM      8  C   LIG    1       -0.373  -4.236   4.944  0.00  0.00    +0.024 A 
ATOM      9  C   LIG    1       -0.252  -4.930   6.145  0.00  0.00    +0.002 A 
ATOM     10  C   LIG    1        0.441  -6.101   6.216  0.00  0.00    +0.010 A 
ATOM     11  C   LIG    1        1.046  -6.625   5.063  0.00  0.00    +0.002 A 
ATOM     12  C   LIG    1        1.770  -7.828   5.084  0.00  0.00    +0.119 A 
ATOM     13  N   LIG    1        2.306  -8.289   3.978  0.00  0.00    -0.263 NA
ATOM     14  C   LIG    1        2.211  -7.655   2.817  0.00  0.00    +0.111 A 
ATOM     15  C   LIG    1        1.535  -6.479   2.693  0.00  0.00    +0.030 A 
ATOM     16  C   LIG    1        0.924  -5.929   3.833  0.00  0.00    +0.006 A 
ENDBRANCH   4   7
BRANCH   1  17
ATOM     17  C   LIG    1        0.001  -0.522   1.443  0.00  0.00    +0.110 C 
BRANCH  17  18
ATOM     18  C   LIG    1       -0.031  -0.004   0.004  0.00  0.00    +0.054 C 
BRANCH  18  22
ATOM     19  C   LIG    1       -0.106   4.267   0.029  0.00  0.00    +0.000 A 
ATOM     20  C   LIG    1        1.103   3.597   0.006  0.00  0.00    +0.000 A 
ATOM     21  C   LIG    1        1.127   2.215  -0.002  0.00  0.00    +0.004 A 
ATOM     22  C   LIG    1       -0.057   1.503   0.013  0.00  0.00    -0.046 A 
ATOM     23  C   LIG    1       -1.266   2.173   0.030  0.00  0.00    +0.004 A 
ATOM     24  C   LIG    1       -1.291   3.555   0.043  0.00  0.00    +0.000 A 
ENDBRANCH  18  22
ENDBRANCH  17  18
ENDBRANCH   1  17
TORSDOF 4
