REMARK  Name = ZINC22939480
REMARK                            x       y       z     vdW  Elec       q    Type
REMARK                         _______ _______ _______ _____ _____    ______ ____
ROOT
ATOM      1  C   LIG    1        1.341   3.524  -0.005  0.00  0.00    +0.118 C 
ENDROOT
BRANCH   1   5
ATOM      2  C   LIG    1        0.806   5.059  -3.955  0.00  0.00    -0.042 A 
ATOM      3  C   LIG    1        2.072   4.996  -3.404  0.00  0.00    +0.004 A 
ATOM      4  C   LIG    1        2.245   4.499  -2.126  0.00  0.00    +0.006 A 
ATOM      5  C   LIG    1        1.153   4.066  -1.398  0.00  0.00    -0.026 A 
ATOM      6  C   LIG    1       -0.113   4.124  -1.951  0.00  0.00    +0.006 A 
ATOM      7  C   LIG    1       -0.287   4.625  -3.228  0.00  0.00    +0.004 A 
BRANCH   2   9
ATOM      8  C   LIG    1        1.410   4.745  -6.340  0.00  0.00    +0.015 C 
ATOM      9  C   LIG    1        0.617   5.600  -5.349  0.00  0.00    -0.013 C 
ATOM     10  C   LIG    1        1.118   7.045  -5.407  0.00  0.00    +0.015 C 
ATOM     11  C   LIG    1       -0.868   5.560  -5.715  0.00  0.00    +0.015 C 
ENDBRANCH   2   9
ENDBRANCH   1   5
BRANCH   1  12
ATOM     12  N   LIG    1        0.308   4.078   0.880  0.00  0.00    -0.284 NA
ATOM     13  C   LIG    1        0.086   3.206   2.042  0.00  0.00    +0.101 C 
ATOM     14  C   LIG    1       -1.049   3.776   2.895  0.00  0.00    +0.100 C 
ATOM     15  N   LIG    1       -0.702   5.138   3.322  0.00  0.00    -0.295 NA
ATOM     16  C   LIG    1       -0.480   6.011   2.160  0.00  0.00    +0.106 C 
ATOM     17  C   LIG    1        0.656   5.441   1.307  0.00  0.00    +0.097 C 
BRANCH  15  18
ATOM     18  C   LIG    1       -1.735   5.693   4.207  0.00  0.00    +0.119 C 
BRANCH  18  19
ATOM     19  C   LIG    1       -3.014   5.875   3.432  0.00  0.00    -0.033 A 
ATOM     20  C   LIG    1       -3.265   7.070   2.783  0.00  0.00    +0.005 A 
ATOM     21  C   LIG    1       -4.436   7.236   2.069  0.00  0.00    +0.000 A 
ATOM     22  C   LIG    1       -5.362   6.211   2.012  0.00  0.00    +0.000 A 
ATOM     23  C   LIG    1       -5.114   5.018   2.665  0.00  0.00    +0.000 A 
ATOM     24  C   LIG    1       -3.940   4.851   3.376  0.00  0.00    +0.005 A 
ENDBRANCH  18  19
ENDBRANCH  15  18
BRANCH  17  25
ATOM     25  C   LIG    1        0.862   6.325   0.076  0.00  0.00    +0.176 C 
BRANCH  25  26
ATOM     26  O   LIG    1       -0.364   6.421  -0.652  0.00  0.00    -0.393 OA
ATOM     27  H   LIG    1       -0.411   7.019  -1.574  0.00  0.00    +0.209 HD
ENDBRANCH  25  26
ENDBRANCH  17  25
ENDBRANCH   1  12
BRANCH   1  28
ATOM     28  C   LIG    1        1.228   2.022  -0.030  0.00  0.00    -0.022 A 
ATOM     29  C   LIG    1       -0.001   1.425  -0.246  0.00  0.00    +0.006 A 
ATOM     30  C   LIG    1       -0.108   0.047  -0.271  0.00  0.00    +0.004 A 
ATOM     31  C   LIG    1        1.012  -0.738  -0.078  0.00  0.00    +0.045 A 
ATOM     32  C   LIG    1        2.246  -0.142   0.139  0.00  0.00    +0.117 A 
ATOM     33  C   LIG    1        2.351   1.241   0.162  0.00  0.00    +0.051 A 
BRANCH  32  34
ATOM     34  O   LIG    1        3.350  -0.912   0.328  0.00  0.00    -0.507 OA
ATOM     35  H   LIG    1        4.328  -0.439   0.499  0.00  0.00    +0.292 HD
ENDBRANCH  32  34
ENDBRANCH   1  28
TORSDOF 9
