REMARK  Name = ZINC28821767
REMARK                            x       y       z     vdW  Elec       q    Type
REMARK                         _______ _______ _______ _____ _____    ______ ____
ROOT
ATOM      1  C   LIG    1       -1.072   3.259  -2.901  0.00  0.00    -0.017 A 
ATOM      2  C   LIG    1       -2.091   2.490  -3.459  0.00  0.00    +0.008 A 
ATOM      3  C   LIG    1       -2.427   1.278  -2.892  0.00  0.00    +0.001 A 
ATOM      4  C   LIG    1       -1.750   0.823  -1.774  0.00  0.00    +0.003 A 
ATOM      5  C   LIG    1       -0.742   1.585  -1.213  0.00  0.00    -0.049 A 
ATOM      6  C   LIG    1       -0.398   2.799  -1.772  0.00  0.00    +0.012 A 
ENDROOT
BRANCH   1  13
ATOM      7  C   LIG    1       -0.556   3.427  -5.743  0.00  0.00    +0.044 C 
ATOM      8  C   LIG    1       -0.457   4.655  -4.874  0.00  0.00    -0.043 A 
ATOM      9  C   LIG    1       -0.121   5.872  -5.433  0.00  0.00    +0.004 A 
ATOM     10  C   LIG    1       -0.024   6.998  -4.636  0.00  0.00    +0.000 A 
ATOM     11  C   LIG    1       -0.267   6.913  -3.276  0.00  0.00    +0.001 A 
ATOM     12  C   LIG    1       -0.607   5.702  -2.708  0.00  0.00    +0.009 A 
ATOM     13  C   LIG    1       -0.707   4.564  -3.506  0.00  0.00    -0.015 A 
ENDBRANCH   1  13
BRANCH   5  14
ATOM     14  C   LIG    1       -0.013   1.086   0.008  0.00  0.00    +0.015 C 
BRANCH  14  15
ATOM     15  C   LIG    1       -0.729   1.579   1.267  0.00  0.00    -0.082 C 
BRANCH  15  16
ATOM     16  N   LIG    1       -0.018   1.093   2.457  0.00  0.00    +0.378 N 
ATOM     17  H   LIG    1       -0.004  -0.007   2.451  0.00  0.00    -0.090 HD
ATOM     18  H   LIG    1        1.014   1.473   2.449  0.00  0.00    -0.090 HD
ATOM     19  H   LIG    1       -0.533   1.447   3.362  0.00  0.00    -0.090 HD
ENDBRANCH  15  16
ENDBRANCH  14  15
ENDBRANCH   5  14
TORSDOF 4
