REMARK  Name = ZINC19790360
REMARK                            x       y       z     vdW  Elec       q    Type
REMARK                         _______ _______ _______ _____ _____    ______ ____
ROOT
ATOM      1  C   LIG    1        1.908  -3.639  -0.105  0.00  0.00    +0.117 C 
ATOM      2  C   LIG    1        2.330  -4.301  -1.213  0.00  0.00    +0.129 C 
ATOM      3 CL   LIG    1        1.820  -4.014  -2.848  0.00  0.00    -0.076 Cl
ATOM      4  C   LIG    1        3.301  -5.305  -0.762  0.00  0.00    +0.271 C 
ATOM      5  N   LIG    1        3.428  -5.218   0.573  0.00  0.00    -0.201 N 
ATOM      6  O   LIG    1        3.893  -6.088  -1.480  0.00  0.00    -0.268 OA
ATOM      7  C   LIG    1        2.632  -4.241   1.045  0.00  0.00    +0.273 C 
ATOM      8  O   LIG    1        2.523  -3.911   2.207  0.00  0.00    -0.268 OA
ENDROOT
BRANCH   1  13
ATOM      9  C   LIG    1       -1.982  -0.369   1.881  0.00  0.00    +0.105 C 
ATOM     10  N   LIG    1       -0.995  -0.935   0.952  0.00  0.00    -0.302 NA
ATOM     11  C   LIG    1        0.361  -0.849   1.509  0.00  0.00    +0.103 C 
ATOM     12  C   LIG    1        1.375  -1.280   0.443  0.00  0.00    +0.120 C 
ATOM     13  N   LIG    1        0.991  -2.608  -0.057  0.00  0.00    -0.322 N 
ATOM     14  C   LIG    1       -0.395  -2.809  -0.505  0.00  0.00    +0.120 C 
ATOM     15  C   LIG    1       -1.339  -2.319   0.598  0.00  0.00    +0.103 C 
ENDBRANCH   1  13
BRANCH   5  16
ATOM     16  C   LIG    1        4.269  -6.020   1.356  0.00  0.00    +0.046 A 
ATOM     17  C   LIG    1        4.314  -5.844   2.733  0.00  0.00    +0.024 A 
ATOM     18  C   LIG    1        5.143  -6.636   3.503  0.00  0.00    +0.003 A 
ATOM     19  C   LIG    1        5.928  -7.604   2.904  0.00  0.00    +0.020 A 
ATOM     20  C   LIG    1        5.886  -7.783   1.533  0.00  0.00    +0.043 A 
ATOM     21 CL   LIG    1        6.873  -9.000   0.785  0.00  0.00    -0.083 Cl
ATOM     22  C   LIG    1        5.053  -6.996   0.758  0.00  0.00    +0.044 A 
ENDBRANCH   5  16
TORSDOF 2
