REMARK  Name = ZINC27191322
REMARK                            x       y       z     vdW  Elec       q    Type
REMARK                         _______ _______ _______ _____ _____    ______ ____
ROOT
ATOM      1  C   LIG    1       -4.336   2.338  -1.184  0.00  0.00    +0.128 A 
ATOM      2  C   LIG    1       -5.457   3.091  -1.191  0.00  0.00    +0.199 A 
ATOM      3  C   LIG    1       -5.352   4.480  -1.444  0.00  0.00    +0.249 A 
ATOM      4  N   LIG    1       -4.137   5.022  -1.667  0.00  0.00    -0.156 NA
ATOM      5  C   LIG    1       -3.036   4.249  -1.650  0.00  0.00    +0.352 A 
ATOM      6  O   LIG    1       -1.947   4.752  -1.852  0.00  0.00    -0.244 OA
ATOM      7  N   LIG    1       -3.122   2.928  -1.411  0.00  0.00    -0.298 N 
ENDROOT
BRANCH   2   8
ATOM      8  N   LIG    1       -6.778   2.472  -0.943  0.00  0.00    +0.013 N 
ATOM      9  O   LIG    1       -6.859   1.276  -0.726  0.00  0.00    -0.130 OA
BRANCH   8  10
ATOM     10  O   LIG    1       -7.784   3.158  -0.956  0.00  0.00    -0.396 OA
ATOM     11  H   LIG    1       -7.722   4.078  -1.122  0.00  0.00    +0.329 HD
ENDBRANCH   8  10
ENDBRANCH   2   8
BRANCH   3  12
ATOM     12  O   LIG    1       -6.349   5.179  -1.460  0.00  0.00    -0.491 OA
ATOM     13  H   LIG    1       -7.191   4.798  -1.305  0.00  0.00    +0.294 HD
ENDBRANCH   3  12
BRANCH   7  14
ATOM     14  C   LIG    1       -1.905   2.112  -1.398  0.00  0.00    +0.121 C 
BRANCH  14  15
ATOM     15  CA  LIG    1       -1.331   2.074   0.020  0.00  0.00    +0.056 C 
BRANCH  15  16
ATOM     16  N   LIG    1       -1.121   3.446   0.500  0.00  0.00    +0.388 N 
ATOM     17  H1  LIG    1       -0.416   3.964  -0.167  0.00  0.00    -0.089 HD
ATOM     18  H2  LIG    1       -2.081   3.983   0.507  0.00  0.00    -0.089 HD
ATOM     19  H3  LIG    1       -0.708   3.418   1.519  0.00  0.00    -0.089 HD
ENDBRANCH  15  16
BRANCH  15  20
ATOM     20  C   LIG    1       -0.016   1.338   0.009  0.00  0.00    +0.292 C 
ATOM     21  O   LIG    1        1.022   1.956   0.003  0.00  0.00    -0.253 OA
BRANCH  20  22
ATOM     22  OXT LIG    1        0.002  -0.004   0.002  0.00  0.00    -0.482 OA
ATOM     23  HXT LIG    1       -0.803  -0.484   0.007  0.00  0.00    +0.295 HD
ENDBRANCH  20  22
ENDBRANCH  15  20
ENDBRANCH  14  15
ENDBRANCH   7  14
TORSDOF 8
