REMARK  Name = ZINC66103171
REMARK                            x       y       z     vdW  Elec       q    Type
REMARK                         _______ _______ _______ _____ _____    ______ ____
ROOT
ATOM      1  C   LIG    1       -5.174   1.442   3.051  0.00  0.00    +0.030 A 
ATOM      2  C   LIG    1       -4.847   2.313   4.085  0.00  0.00    +0.024 A 
ATOM      3  C   LIG    1       -5.774   2.605   5.068  0.00  0.00    +0.015 A 
ATOM      4  C   LIG    1       -7.030   2.035   5.031  0.00  0.00    +0.063 A 
ATOM      5  C   LIG    1       -7.369   1.159   3.996  0.00  0.00    +0.001 A 
ATOM      6  C   LIG    1       -6.435   0.868   3.000  0.00  0.00    +0.032 A 
ENDROOT
BRANCH   1  11
ATOM      7  C   LIG    1       -1.359  -0.637  -0.052  0.00  0.00    +0.247 C 
ATOM      8  N   LIG    1       -2.267  -0.355   0.904  0.00  0.00    -0.296 N 
ATOM      9  C   LIG    1       -1.895   0.455   2.072  0.00  0.00    +0.126 C 
ATOM     10  C   LIG    1       -2.855   1.648   2.167  0.00  0.00    +0.124 C 
ATOM     11  N   LIG    1       -4.234   1.150   2.060  0.00  0.00    -0.327 N 
ATOM     12  C   LIG    1       -4.606   0.340   0.891  0.00  0.00    +0.124 C 
ATOM     13  C   LIG    1       -3.647  -0.848   0.794  0.00  0.00    +0.126 C 
ATOM     14  O   LIG    1       -1.649  -1.386  -0.961  0.00  0.00    -0.272 OA
BRANCH   7  16
ATOM     15  C   LIG    1        0.842  -0.722   1.087  0.00  0.00    +0.051 C 
ATOM     16  C   LIG    1        0.014  -0.020   0.008  0.00  0.00    +0.136 C 
ATOM     17  C   LIG    1        0.705  -0.180  -1.348  0.00  0.00    +0.051 C 
BRANCH  16  18
ATOM     18  O   LIG    1       -0.100   1.369   0.324  0.00  0.00    -0.380 OA
ATOM     19  H   LIG    1        0.748   1.831   0.379  0.00  0.00    +0.211 HD
ENDBRANCH  16  18
ENDBRANCH   7  16
ENDBRANCH   1  11
BRANCH   5  20
ATOM     20  C   LIG    1       -8.713   0.547   3.954  0.00  0.00    +0.058 C 
ATOM     21  C   LIG    1       -9.043  -0.763   4.276  0.00  0.00    +0.059 C 
ATOM     22  C   LIG    1      -10.508  -0.878   4.071  0.00  0.00    +0.252 C 
ATOM     23  N   LIG    1      -10.973   0.312   3.653  0.00  0.00    -0.248 N 
ATOM     24  H   LIG    1      -11.902   0.501   3.448  0.00  0.00    +0.158 HD
ATOM     25  O   LIG    1      -11.174  -1.877   4.250  0.00  0.00    -0.270 OA
ATOM     26  C   LIG    1       -9.973   1.205   3.566  0.00  0.00    +0.252 C 
ATOM     27  O   LIG    1      -10.088   2.365   3.221  0.00  0.00    -0.270 OA
BRANCH  21  28
ATOM     28  C   LIG    1       -8.129  -1.819   4.728  0.00  0.00    +0.013 A 
ATOM     29  C   LIG    1       -7.569  -1.942   5.970  0.00  0.00    +0.092 A 
ATOM     30  N   LIG    1       -6.780  -3.045   6.008  0.00  0.00    -0.360 N 
ATOM     31  C   LIG    1       -6.793  -3.689   4.788  0.00  0.00    +0.047 A 
ATOM     32  C   LIG    1       -6.168  -4.837   4.312  0.00  0.00    +0.026 A 
ATOM     33  C   LIG    1       -6.389  -5.253   3.016  0.00  0.00    +0.002 A 
ATOM     34  C   LIG    1       -7.221  -4.531   2.174  0.00  0.00    +0.001 A 
ATOM     35  C   LIG    1       -7.845  -3.388   2.625  0.00  0.00    +0.010 A 
ATOM     36  H   LIG    1       -6.278  -3.340   6.784  0.00  0.00    +0.165 HD
ATOM     37  C   LIG    1       -7.638  -2.961   3.934  0.00  0.00    +0.008 A 
ENDBRANCH  21  28
ENDBRANCH   5  20
BRANCH   4  38
ATOM     38  C   LIG    1       -8.036   2.356   6.106  0.00  0.00    +0.418 C 
ATOM     39  F   LIG    1       -8.405   1.179   6.766  0.00  0.00    -0.166 F 
ATOM     40  F   LIG    1       -9.167   2.940   5.527  0.00  0.00    -0.166 F 
ATOM     41  F   LIG    1       -7.469   3.248   7.023  0.00  0.00    -0.166 F 
ENDBRANCH   4  38
TORSDOF 6
