REMARK  Name = ZINC27899841
REMARK                            x       y       z     vdW  Elec       q    Type
REMARK                         _______ _______ _______ _____ _____    ______ ____
ROOT
ATOM      1  C   LIG    1       -0.468   0.836  -5.529  0.00  0.00    +0.185 C 
ATOM      2  C   LIG    1       -0.198  -0.667  -5.557  0.00  0.00    +0.052 C 
ATOM      3  C   LIG    1       -0.271  -1.165  -6.986  0.00  0.00    +0.012 C 
ATOM      4  C   LIG    1        0.010  -2.668  -7.033  0.00  0.00    +0.012 C 
ATOM      5  C   LIG    1       -1.658  -0.888  -7.506  0.00  0.00    -0.020 C 
ATOM      6  C   LIG    1       -2.345   0.159  -7.089  0.00  0.00    -0.044 C 
ATOM      7  C   LIG    1       -3.733   0.340  -7.563  0.00  0.00    -0.000 C 
ATOM      8  C   LIG    1       -4.541   1.157  -6.910  0.00  0.00    -0.023 C 
ATOM      9  C   LIG    1       -4.135   1.964  -5.715  0.00  0.00    +0.012 C 
ATOM     10  C   LIG    1       -3.860   3.404  -6.154  0.00  0.00    +0.012 C 
ATOM     11  C   LIG    1       -2.878   1.397  -5.052  0.00  0.00    +0.007 C 
ATOM     12  C   LIG    1       -1.812   1.179  -6.128  0.00  0.00    +0.063 C 
ENDROOT
BRANCH   1  13
ATOM     13  O   LIG    1       -0.433   1.296  -4.152  0.00  0.00    -0.461 OA
BRANCH  13  14
ATOM     14  C   LIG    1        0.771   1.362  -3.562  0.00  0.00    +0.310 C 
ATOM     15  O   LIG    1        1.750   0.955  -4.141  0.00  0.00    -0.251 OA
BRANCH  14  16
ATOM     16  C   LIG    1        0.900   1.944  -2.178  0.00  0.00    +0.094 C 
ATOM     17  C   LIG    1        1.272   3.425  -2.280  0.00  0.00    +0.019 C 
BRANCH  16  19
ATOM     18  C   LIG    1        1.909   1.555   0.075  0.00  0.00    +0.004 C 
ATOM     19  C   LIG    1        1.992   1.196  -1.410  0.00  0.00    +0.011 C 
ENDBRANCH  16  19
ENDBRANCH  14  16
ENDBRANCH  13  14
ENDBRANCH   1  13
BRANCH  11  20
ATOM     20  C   LIG    1       -2.357   2.382  -4.004  0.00  0.00    +0.008 C 
BRANCH  20  21
ATOM     21  C   LIG    1       -3.538   3.090  -3.337  0.00  0.00    +0.045 C 
BRANCH  21  22
ATOM     22  C   LIG    1       -3.017   4.195  -2.417  0.00  0.00    +0.179 C 
ATOM     23  C   LIG    1       -4.200   4.927  -1.776  0.00  0.00    +0.076 C 
ATOM     24  C   LIG    1       -3.674   5.997  -0.814  0.00  0.00    +0.129 C 
ATOM     25  C   LIG    1       -2.830   5.320   0.272  0.00  0.00    +0.152 C 
ATOM     26  C   LIG    1       -1.787   4.456  -0.402  0.00  0.00    +0.310 C 
ATOM     27  O   LIG    1       -0.624   4.523  -0.083  0.00  0.00    -0.251 OA
ATOM     28  O   LIG    1       -2.194   3.608  -1.370  0.00  0.00    -0.461 OA
BRANCH  24  29
ATOM     29  O   LIG    1       -4.774   6.679  -0.210  0.00  0.00    -0.391 OA
ATOM     30  H   LIG    1       -4.590   7.487   0.514  0.00  0.00    +0.210 HD
ENDBRANCH  24  29
ENDBRANCH  21  22
ENDBRANCH  20  21
ENDBRANCH  11  20
TORSDOF 8
