REMARK  Name = ZINC34371722
REMARK                            x       y       z     vdW  Elec       q    Type
REMARK                         _______ _______ _______ _____ _____    ______ ____
ROOT
ATOM      1  N   LIG    1        3.623  -0.651  -0.037  0.00  0.00    -0.291 N 
ATOM      2  C   LIG    1        4.102  -1.451  -1.057  0.00  0.00    +0.074 A 
ATOM      3  C   LIG    1        3.608  -1.832  -2.297  0.00  0.00    +0.028 A 
ATOM      4  C   LIG    1        4.354  -2.666  -3.103  0.00  0.00    +0.002 A 
ATOM      5  C   LIG    1        5.593  -3.128  -2.682  0.00  0.00    +0.002 A 
ATOM      6  C   LIG    1        6.096  -2.765  -1.466  0.00  0.00    +0.030 A 
ATOM      7  C   LIG    1        5.359  -1.919  -0.630  0.00  0.00    +0.090 A 
ATOM      8  N   LIG    1        5.584  -1.397   0.599  0.00  0.00    -0.225 NA
ATOM      9  C   LIG    1        4.571  -0.646   0.952  0.00  0.00    +0.172 A 
ENDROOT
BRANCH   1  13
ATOM     10  C   LIG    1       -0.017   1.379   0.010  0.00  0.00    +0.000 A 
ATOM     11  C   LIG    1        1.170   2.089   0.002  0.00  0.00    +0.002 A 
ATOM     12  C   LIG    1        2.377   1.419  -0.013  0.00  0.00    +0.026 A 
ATOM     13  C   LIG    1        2.400   0.031  -0.021  0.00  0.00    +0.049 A 
ATOM     14  C   LIG    1        1.206  -0.680  -0.013  0.00  0.00    +0.026 A 
ATOM     15  C   LIG    1        0.002  -0.004   0.002  0.00  0.00    +0.002 A 
ENDBRANCH   1  13
BRANCH   9  16
ATOM     16  C   LIG    1        4.465   0.095   2.228  0.00  0.00    +0.191 A 
ATOM     17  C   LIG    1        5.472   0.117   3.297  0.00  0.00    +0.191 A 
ATOM     18  N   LIG    1        5.029   0.875   4.262  0.00  0.00    -0.033 NA
ATOM     19  O   LIG    1        3.755   1.365   3.882  0.00  0.00    -0.240 OA
ATOM     20  N   LIG    1        3.460   0.847   2.598  0.00  0.00    -0.044 NA
BRANCH  17  21
ATOM     21  N   LIG    1        6.688  -0.553   3.283  0.00  0.00    -0.339 N 
ATOM     22  H   LIG    1        7.292  -0.479   4.038  0.00  0.00    +0.144 HD
ATOM     23  H   LIG    1        6.933  -1.097   2.517  0.00  0.00    +0.144 HD
ENDBRANCH  17  21
ENDBRANCH   9  16
TORSDOF 3
