REMARK  Name = ZINC29224384
REMARK                            x       y       z     vdW  Elec       q    Type
REMARK                         _______ _______ _______ _____ _____    ______ ____
ROOT
ATOM      1  C   LIG    1       -1.298   1.929   0.019  0.00  0.00    +0.102 A 
ATOM      2  C   LIG    1       -1.320   3.329   0.032  0.00  0.00    +0.040 A 
ATOM      3  C   LIG    1       -2.511   3.995   0.035  0.00  0.00    +0.063 A 
ATOM      4 CL   LIG    1       -2.531   5.731   0.044  0.00  0.00    -0.082 Cl
ATOM      5  C   LIG    1       -3.714   3.287   0.037  0.00  0.00    +0.047 A 
ATOM      6  C   LIG    1       -3.708   1.898   0.030  0.00  0.00    +0.070 A 
ATOM      7  C   LIG    1       -2.506   1.213   0.021  0.00  0.00    +0.136 A 
ENDROOT
BRANCH   5   8
ATOM      8  N   LIG    1       -4.923   3.975   0.047  0.00  0.00    -0.357 N 
ATOM      9  H   LIG    1       -4.929   5.075   0.053  0.00  0.00    +0.142 HD
ATOM     10  H   LIG    1       -5.872   3.420   0.049  0.00  0.00    +0.142 HD
ENDBRANCH   5   8
BRANCH   1  11
ATOM     11  C   LIG    1       -0.014   1.211   0.009  0.00  0.00    +0.343 C 
ATOM     12  O   LIG    1        0.002  -0.004   0.002  0.00  0.00    -0.245 OA
BRANCH  11  13
ATOM     13  O   LIG    1        1.144   1.901   0.001  0.00  0.00    -0.458 OA
BRANCH  13  19
ATOM     14  C   LIG    1        6.482   0.247   0.771  0.00  0.00    -0.096 C 
ATOM     15  N   LIG    1        5.161   0.886   0.694  0.00  0.00    +0.378 N 
ATOM     16  H   LIG    1        5.227   1.864   1.193  0.00  0.00    -0.082 HD
ATOM     17  C   LIG    1        4.772   1.121  -0.703  0.00  0.00    -0.076 C 
ATOM     18  C   LIG    1        3.464   1.915  -0.742  0.00  0.00    +0.026 C 
ATOM     19  C   LIG    1        2.372   1.127  -0.015  0.00  0.00    +0.173 C 
ATOM     20  C   LIG    1        2.823   0.853   1.423  0.00  0.00    +0.026 C 
ATOM     21  C   LIG    1        4.149   0.090   1.400  0.00  0.00    -0.076 C 
ENDBRANCH  13  19
ENDBRANCH  11  13
ENDBRANCH   1  11
BRANCH   7  22
ATOM     22  O   LIG    1       -2.494  -0.143   0.014  0.00  0.00    -0.494 OA
ATOM     23  C   LIG    1       -3.762  -0.803   0.016  0.00  0.00    +0.277 C 
ENDBRANCH   7  22
TORSDOF 5
