REMARK  Name = ZINC13985650
REMARK                            x       y       z     vdW  Elec       q    Type
REMARK                         _______ _______ _______ _____ _____    ______ ____
ROOT
ATOM      1  C   LIG    1        0.606  -0.495  -1.250  0.00  0.00    +0.239 C 
ENDROOT
BRANCH   1   3
ATOM      2  C   LIG    1       -0.712   1.206   0.019  0.00  0.00    +0.016 C 
ATOM      3  C   LIG    1       -0.211  -0.239   0.018  0.00  0.00    +0.013 C 
ATOM      4  C   LIG    1       -1.406  -1.194   0.056  0.00  0.00    +0.016 C 
ATOM      5  C   LIG    1        0.668  -0.475   1.248  0.00  0.00    +0.016 C 
ENDBRANCH   1   3
BRANCH   1   6
ATOM      6  N   LIG    1        1.751   0.418  -1.286  0.00  0.00    -0.283 N 
ATOM      7  H   LIG    1        2.280   0.564  -0.486  0.00  0.00    +0.152 HD
ATOM      8  C   LIG    1        2.068   1.056  -2.429  0.00  0.00    +0.220 C 
ATOM      9  O   LIG    1        1.355   0.944  -3.404  0.00  0.00    -0.275 OA
BRANCH   8  10
ATOM     10  C   LIG    1        3.309   1.909  -2.497  0.00  0.00    +0.131 C 
BRANCH  10  11
ATOM     11  C   LIG    1        3.433   2.506  -3.876  0.00  0.00    -0.035 A 
ATOM     12  C   LIG    1        4.120   1.825  -4.863  0.00  0.00    +0.008 A 
ATOM     13  C   LIG    1        4.237   2.368  -6.129  0.00  0.00    +0.049 A 
ATOM     14  C   LIG    1        3.665   3.598  -6.410  0.00  0.00    +0.161 A 
ATOM     15  C   LIG    1        2.973   4.284  -5.417  0.00  0.00    +0.162 A 
ATOM     16  C   LIG    1        2.855   3.731  -4.151  0.00  0.00    +0.053 A 
BRANCH  14  17
ATOM     17  O   LIG    1        3.779   4.134  -7.655  0.00  0.00    -0.491 OA
ATOM     18  C   LIG    1        4.504   3.374  -8.624  0.00  0.00    +0.277 C 
ENDBRANCH  14  17
BRANCH  15  19
ATOM     19  O   LIG    1        2.409   5.491  -5.688  0.00  0.00    -0.491 OA
ATOM     20  C   LIG    1        1.714   6.138  -4.620  0.00  0.00    +0.277 C 
ENDBRANCH  15  19
ENDBRANCH  10  11
ENDBRANCH   8  10
ENDBRANCH   1   6
BRANCH   1  21
ATOM     21  N   LIG    1        1.086  -1.880  -1.250  0.00  0.00    -0.255 N 
ATOM     22  H   LIG    1        1.458  -2.265  -0.441  0.00  0.00    +0.260 HD
BRANCH  21  23
ATOM     23  C   LIG    1        1.009  -2.635  -2.401  0.00  0.00    +0.404 C 
ATOM     24  N   LIG    1        1.537  -3.861  -2.431  0.00  0.00    +0.011 NA
BRANCH  23  25
ATOM     25  N   LIG    1        0.411  -2.143  -3.480  0.00  0.00    -0.242 N 
ATOM     26  H   LIG    1        0.112  -1.221  -3.490  0.00  0.00    +0.265 HD
ATOM     27  C   LIG    1        0.218  -2.928  -4.562  0.00  0.00    +0.109 A 
ATOM     28  C   LIG    1        0.326  -4.317  -4.465  0.00  0.00    +0.043 A 
ATOM     29  C   LIG    1        0.127  -5.110  -5.578  0.00  0.00    +0.005 A 
ATOM     30  C   LIG    1       -0.182  -4.568  -6.809  0.00  0.00    +0.026 A 
ATOM     31  C   LIG    1       -0.304  -3.194  -6.973  0.00  0.00    +0.050 A 
ATOM     32  N   LIG    1       -0.610  -2.652  -8.196  0.00  0.00    -0.361 N 
ATOM     33  H   LIG    1       -0.735  -3.242  -8.973  0.00  0.00    +0.165 HD
ATOM     34  C   LIG    1       -0.742  -1.324  -8.341  0.00  0.00    +0.083 A 
ATOM     35  C   LIG    1       -0.559  -0.464  -7.285  0.00  0.00    +0.018 A 
ATOM     36  C   LIG    1       -0.242  -0.958  -6.027  0.00  0.00    +0.015 A 
ATOM     37  C   LIG    1       -0.114  -2.341  -5.861  0.00  0.00    +0.037 A 
ENDBRANCH  23  25
BRANCH  24  38
ATOM     38  C   LIG    1        2.057  -4.403  -1.303  0.00  0.00    +0.295 C 
ATOM     39  N   LIG    1        2.492  -4.857  -0.358  0.00  0.00    -0.151 NA
ENDBRANCH  24  38
ENDBRANCH  21  23
ENDBRANCH   1  21
TORSDOF 10
