REMARK  Name = ZINC71319188
REMARK                            x       y       z     vdW  Elec       q    Type
REMARK                         _______ _______ _______ _____ _____    ______ ____
ROOT
ATOM      1  C   LIG    1       -5.888   1.498   0.066  0.00  0.00    +0.003 A 
ATOM      2  C   LIG    1       -6.515   2.082   1.168  0.00  0.00    +0.036 A 
ATOM      3  C   LIG    1       -6.779   3.447   1.129  0.00  0.00    +0.067 A 
ATOM      4  C   LIG    1       -6.411   4.175   0.003  0.00  0.00    +0.135 A 
ATOM      5  N   LIG    1       -5.820   3.589  -1.019  0.00  0.00    -0.261 NA
ATOM      6  C   LIG    1       -5.547   2.300  -1.021  0.00  0.00    +0.119 A 
ENDROOT
BRANCH   1  13
ATOM      7  C   LIG    1       -2.798  -2.398   0.016  0.00  0.00    +0.151 A 
ATOM      8  C   LIG    1       -3.123  -3.746   0.018  0.00  0.00    +0.146 A 
ATOM      9  N   LIG    1       -4.441  -3.853   0.028  0.00  0.00    -0.235 NA
ATOM     10  C   LIG    1       -4.994  -2.641   0.033  0.00  0.00    +0.138 A 
ATOM     11  C   LIG    1       -6.339  -2.227   0.043  0.00  0.00    +0.047 A 
ATOM     12  C   LIG    1       -6.632  -0.898   0.061  0.00  0.00    +0.013 A 
ATOM     13  C   LIG    1       -5.582   0.045   0.055  0.00  0.00    +0.000 A 
ATOM     14  C   LIG    1       -4.287  -0.381   0.040  0.00  0.00    +0.102 A 
ATOM     15  N   LIG    1       -3.997  -1.707   0.031  0.00  0.00    -0.293 N 
BRANCH   7  16
ATOM     16  C   LIG    1       -1.497  -1.839   0.006  0.00  0.00    +0.358 C 
ATOM     17  O   LIG    1       -0.522  -2.567  -0.007  0.00  0.00    -0.243 OA
BRANCH  16  18
ATOM     18  O   LIG    1       -1.339  -0.499   0.012  0.00  0.00    -0.460 OA
BRANCH  18  20
ATOM     19  C   LIG    1       -0.019   1.526   0.010  0.00  0.00    +0.048 C 
ATOM     20  C   LIG    1        0.002  -0.004   0.002  0.00  0.00    +0.229 C 
ENDBRANCH  18  20
ENDBRANCH  16  18
ENDBRANCH   7  16
ENDBRANCH   1  13
BRANCH   3  21
ATOM     21  N   LIG    1       -7.405   4.078   2.207  0.00  0.00    -0.215 N 
ATOM     22  H   LIG    1       -7.663   3.556   3.001  0.00  0.00    +0.174 HD
BRANCH  21  23
ATOM     23  S   LIG    1       -7.714   5.704   2.148  0.00  0.00    +0.072 S 
ATOM     24  O   LIG    1       -8.676   5.898   1.120  0.00  0.00    -0.150 OA
ATOM     25  O   LIG    1       -6.452   6.357   2.144  0.00  0.00    -0.150 OA
BRANCH  23  26
ATOM     26  C   LIG    1       -8.501   6.139   3.663  0.00  0.00    +0.108 A 
ATOM     27  C   LIG    1       -9.879   6.084   3.767  0.00  0.00    +0.029 A 
ATOM     28  C   LIG    1      -10.497   6.425   4.956  0.00  0.00    +0.002 A 
ATOM     29  C   LIG    1       -9.737   6.822   6.040  0.00  0.00    +0.000 A 
ATOM     30  C   LIG    1       -8.360   6.876   5.937  0.00  0.00    +0.002 A 
ATOM     31  C   LIG    1       -7.742   6.530   4.750  0.00  0.00    +0.029 A 
ENDBRANCH  23  26
ENDBRANCH  21  23
ENDBRANCH   3  21
TORSDOF 7
