REMARK  Name = ZINC27647183
REMARK                            x       y       z     vdW  Elec       q    Type
REMARK                         _______ _______ _______ _____ _____    ______ ____
ROOT
ATOM      1  N   LIG    1        1.069   2.036  -0.050  0.00  0.00    -0.269 N 
ATOM      2  H   LIG    1        1.933   1.463   0.317  0.00  0.00    +0.156 HD
ATOM      3  C   LIG    1        0.017   1.394  -0.596  0.00  0.00    +0.306 C 
ATOM      4  N   LIG    1       -0.050   0.049  -0.549  0.00  0.00    -0.289 N 
ATOM      5  C   LIG    1       -1.246  -0.665  -1.019  0.00  0.00    +0.091 C 
ATOM      6  C   LIG    1       -0.801  -1.755  -2.006  0.00  0.00    -0.059 C 
ATOM      7  N   LIG    1        0.215  -2.602  -1.367  0.00  0.00    +0.385 N 
ATOM      8  H   LIG    1       -0.207  -2.977  -0.423  0.00  0.00    -0.081 HD
ATOM      9  C   LIG    1        1.423  -1.831  -1.041  0.00  0.00    -0.059 C 
ATOM     10  C   LIG    1        1.071  -0.745  -0.020  0.00  0.00    +0.091 C 
ATOM     11  O   LIG    1       -0.874   2.028  -1.127  0.00  0.00    -0.252 OA
ENDROOT
BRANCH   1  15
ATOM     12  C   LIG    1        1.047   6.192   0.244  0.00  0.00    +0.000 A 
ATOM     13  C   LIG    1        2.239   5.521   0.040  0.00  0.00    +0.002 A 
ATOM     14  C   LIG    1        2.249   4.143  -0.059  0.00  0.00    +0.023 A 
ATOM     15  C   LIG    1        1.061   3.432   0.049  0.00  0.00    +0.035 A 
ATOM     16  C   LIG    1       -0.134   4.109   0.248  0.00  0.00    +0.023 A 
ATOM     17  C   LIG    1       -0.138   5.487   0.351  0.00  0.00    +0.002 A 
ENDBRANCH   1  15
BRANCH   7  18
ATOM     18  C   LIG    1        0.542  -3.760  -2.210  0.00  0.00    -0.022 C 
BRANCH  18  19
ATOM     19  C   LIG    1       -0.731  -4.381  -2.725  0.00  0.00    +0.026 A 
ATOM     20  C   LIG    1       -1.208  -4.009  -3.980  0.00  0.00    +0.022 A 
ATOM     21  C   LIG    1       -2.357  -4.566  -4.465  0.00  0.00    +0.012 A 
ATOM     22  C   LIG    1       -3.033  -5.502  -3.659  0.00  0.00    +0.000 A 
ATOM     23  C   LIG    1       -4.224  -6.111  -4.088  0.00  0.00    +0.010 A 
ATOM     24  C   LIG    1       -4.848  -7.011  -3.280  0.00  0.00    +0.001 A 
ATOM     25  C   LIG    1       -4.321  -7.337  -2.031  0.00  0.00    +0.002 A 
ATOM     26  C   LIG    1       -3.170  -6.766  -1.584  0.00  0.00    +0.028 A 
ATOM     27  C   LIG    1       -2.496  -5.831  -2.390  0.00  0.00    +0.071 A 
ATOM     28  N   LIG    1       -1.363  -5.254  -1.978  0.00  0.00    -0.254 NA
ENDBRANCH  18  19
ENDBRANCH   7  18
TORSDOF 3
