REMARK  Name = ZINC13817924
REMARK                            x       y       z     vdW  Elec       q    Type
REMARK                         _______ _______ _______ _____ _____    ______ ____
ROOT
ATOM      1  C   LIG    1       -0.018   1.503   0.010  0.00  0.00    +0.024 C 
ATOM      2  C   LIG    1        0.002  -0.004   0.002  0.00  0.00    +0.051 C 
ATOM      3  C   LIG    1        0.005  -0.676  -1.219  0.00  0.00    +0.019 C 
ATOM      4  C   LIG    1        0.024  -2.041  -1.245  0.00  0.00    +0.006 C 
ATOM      5  C   LIG    1        0.040  -2.729  -0.016  0.00  0.00    +0.008 C 
ATOM      6  C   LIG    1        0.060  -4.133   0.034  0.00  0.00    +0.005 C 
ATOM      7  C   LIG    1        0.076  -4.769   1.237  0.00  0.00    +0.002 C 
ATOM      8  C   LIG    1        0.071  -4.049   2.429  0.00  0.00    +0.022 C 
ATOM      9  C   LIG    1        0.051  -2.672   2.421  0.00  0.00    +0.094 C 
ATOM     10  C   LIG    1        0.035  -1.983   1.187  0.00  0.00    +0.076 C 
ATOM     11  N   LIG    1        0.022  -0.648   1.143  0.00  0.00    -0.309 NA
ATOM     12  H   LIG    1        0.022  -0.146   1.973  0.00  0.00    +0.123 HD
ENDROOT
BRANCH   9  13
ATOM     13  N   LIG    1        0.045  -1.962   3.621  0.00  0.00    -0.185 NA
ATOM     14  H   LIG    1       -0.796  -1.386   3.619  0.00  0.00    +0.148 HD
BRANCH  13  15
ATOM     15  S   LIG    1        0.063  -2.776   5.064  0.00  0.00    +0.065 S 
ATOM     16  O   LIG    1        1.319  -3.437   5.142  0.00  0.00    -0.153 OA
ATOM     17  O   LIG    1       -1.172  -3.473   5.152  0.00  0.00    -0.153 OA
BRANCH  15  18
ATOM     18  C   LIG    1        0.051  -1.566   6.344  0.00  0.00    +0.143 A 
ATOM     19  C   LIG    1       -1.008  -0.999   6.973  0.00  0.00    +0.037 A 
ATOM     20  C   LIG    1       -0.778  -0.060   7.960  0.00  0.00    +0.025 A 
ATOM     21  C   LIG    1        0.501   0.267   8.271  0.00  0.00    +0.057 A 
ATOM     22 BR   LIG    1        1.137   1.499   9.557  0.00  0.00    -0.043 Br
ATOM     23  S   LIG    1        1.429  -0.774   7.156  0.00  0.00    -0.062 S 
ENDBRANCH  15  18
ENDBRANCH  13  15
ENDBRANCH   9  13
TORSDOF 3
