REMARK  Name = ZINC16134119
REMARK                            x       y       z     vdW  Elec       q    Type
REMARK                         _______ _______ _______ _____ _____    ______ ____
ROOT
ATOM      1  N   LIG    1        4.786  -3.157  -0.295  0.00  0.00    -0.255 N 
ATOM      2  C   LIG    1        3.809  -2.275  -0.171  0.00  0.00    +0.258 C 
ATOM      3  C   LIG    1        2.434  -2.810  -0.138  0.00  0.00    +0.077 C 
ATOM      4  S   LIG    1        2.753  -4.563  -0.288  0.00  0.00    -0.061 S 
ATOM      5  C   LIG    1        1.252  -2.153  -0.021  0.00  0.00    +0.028 C 
ATOM      6  O   LIG    1        4.033  -1.081  -0.087  0.00  0.00    -0.269 OA
ATOM      7  C   LIG    1        4.534  -4.479  -0.387  0.00  0.00    +0.121 C 
ATOM      8  S   LIG    1        5.652  -5.765  -0.552  0.00  0.00    -0.027 S 
ENDROOT
BRANCH   5   9
ATOM      9  C   LIG    1        1.218  -0.687  -0.086  0.00  0.00    -0.024 A 
ATOM     10  C   LIG    1        0.362   0.034   0.756  0.00  0.00    +0.011 A 
ATOM     11  C   LIG    1        0.334   1.409   0.692  0.00  0.00    +0.046 A 
ATOM     12  C   LIG    1        1.153   2.082  -0.208  0.00  0.00    +0.120 A 
ATOM     13  C   LIG    1        2.005   1.371  -1.047  0.00  0.00    +0.046 A 
ATOM     14  C   LIG    1        2.041  -0.004  -0.990  0.00  0.00    +0.011 A 
BRANCH  12  15
ATOM     15  O   LIG    1        1.122   3.438  -0.268  0.00  0.00    -0.495 OA
ATOM     16  C   LIG    1        1.989   4.066  -1.214  0.00  0.00    +0.277 C 
ENDBRANCH  12  15
ENDBRANCH   5   9
BRANCH   1  17
ATOM     17  C   LIG    1        6.174  -2.689  -0.333  0.00  0.00    +0.115 C 
BRANCH  17  18
ATOM     18  C   LIG    1        6.736  -2.640   1.089  0.00  0.00    +0.030 C 
BRANCH  18  19
ATOM     19  C   LIG    1        8.185  -2.151   1.049  0.00  0.00    +0.122 C 
BRANCH  19  20
ATOM     20  C   LIG    1        8.738  -2.104   2.450  0.00  0.00    +0.307 C 
ATOM     21  O   LIG    1        8.044  -2.428   3.385  0.00  0.00    -0.251 OA
BRANCH  20  22
ATOM     22  O   LIG    1       10.001  -1.701   2.660  0.00  0.00    -0.467 OA
BRANCH  22  23
ATOM     23  C   LIG    1       10.467  -1.681   4.035  0.00  0.00    +0.213 C 
BRANCH  23  24
ATOM     24  C   LIG    1       11.918  -1.198   4.075  0.00  0.00    -0.038 C 
BRANCH  24  26
ATOM     25  C   LIG    1       11.292   1.089   4.563  0.00  0.00    -0.096 C 
ATOM     26  N   LIG    1       11.969   0.199   3.596  0.00  0.00    +0.378 N 
ATOM     27  H   LIG    1       11.487   0.260   2.692  0.00  0.00    -0.082 HD
ATOM     28  C   LIG    1       13.375   0.621   3.419  0.00  0.00    -0.096 C 
ENDBRANCH  24  26
ENDBRANCH  23  24
ENDBRANCH  22  23
ENDBRANCH  20  22
ENDBRANCH  19  20
ENDBRANCH  18  19
ENDBRANCH  17  18
ENDBRANCH   1  17
TORSDOF 10
