REMARK  Name = ZINC14951176
REMARK                            x       y       z     vdW  Elec       q    Type
REMARK                         _______ _______ _______ _____ _____    ______ ____
ROOT
ATOM      1  C   LIG    1       -1.266  -0.762   0.010  0.00  0.00    +0.139 A 
ATOM      2  N   LIG    1       -1.375  -2.124  -0.002  0.00  0.00    -0.337 N 
ATOM      3  C   LIG    1       -2.717  -2.424   0.015  0.00  0.00    +0.074 A 
ATOM      4  C   LIG    1       -3.389  -1.213   0.028  0.00  0.00    +0.097 A 
ATOM      5  H   LIG    1       -0.643  -2.760  -0.017  0.00  0.00    +0.167 HD
ATOM      6  N   LIG    1       -2.469  -0.234   0.024  0.00  0.00    -0.227 NA
ENDROOT
BRANCH   3   7
ATOM      7  C   LIG    1       -3.321  -3.771   0.015  0.00  0.00    +0.001 A 
ATOM      8  C   LIG    1       -4.383  -4.063   0.874  0.00  0.00    +0.013 A 
ATOM      9  C   LIG    1       -4.944  -5.323   0.869  0.00  0.00    +0.039 A 
ATOM     10  C   LIG    1       -4.455  -6.298   0.014  0.00  0.00    +0.123 A 
ATOM     11  F   LIG    1       -5.008  -7.531   0.014  0.00  0.00    -0.205 F 
ATOM     12  C   LIG    1       -3.402  -6.014  -0.841  0.00  0.00    +0.039 A 
ATOM     13  C   LIG    1       -2.837  -4.756  -0.849  0.00  0.00    +0.013 A 
ENDBRANCH   3   7
BRANCH   1  19
ATOM     14  C   LIG    1       -0.017   1.392   0.010  0.00  0.00    +0.015 A 
ATOM     15  C   LIG    1        1.168   2.095   0.002  0.00  0.00    +0.046 A 
ATOM     16  C   LIG    1        2.380   1.417  -0.013  0.00  0.00    +0.117 A 
ATOM     17  C   LIG    1        2.404   0.029  -0.022  0.00  0.00    +0.046 A 
ATOM     18  C   LIG    1        1.223  -0.682  -0.014  0.00  0.00    +0.015 A 
ATOM     19  C   LIG    1        0.002  -0.004   0.002  0.00  0.00    +0.018 A 
BRANCH  16  20
ATOM     20  O   LIG    1        3.546   2.114  -0.021  0.00  0.00    -0.507 OA
ATOM     21  H   LIG    1        3.893   2.312   0.860  0.00  0.00    +0.292 HD
ENDBRANCH  16  20
ENDBRANCH   1  19
BRANCH   4  22
ATOM     22  C   LIG    1       -4.858  -1.030   0.043  0.00  0.00    +0.005 A 
ATOM     23  C   LIG    1       -5.700  -1.917  -0.637  0.00  0.00    +0.030 A 
ATOM     24  C   LIG    1       -7.063  -1.710  -0.596  0.00  0.00    +0.111 A 
ATOM     25  N   LIG    1       -7.574  -0.692   0.071  0.00  0.00    -0.263 NA
ATOM     26  C   LIG    1       -6.815   0.167   0.726  0.00  0.00    +0.111 A 
ATOM     27  C   LIG    1       -5.443   0.031   0.743  0.00  0.00    +0.030 A 
ENDBRANCH   4  22
TORSDOF 4
