REMARK  Name = ZINC16155529
REMARK                            x       y       z     vdW  Elec       q    Type
REMARK                         _______ _______ _______ _____ _____    ______ ____
ROOT
ATOM      1  C   LIG    1       -0.017   1.375   0.010  0.00  0.00    +0.001 A 
ATOM      2  C   LIG    1        1.172   2.089   0.002  0.00  0.00    +0.002 A 
ATOM      3  C   LIG    1        2.385   1.433  -0.013  0.00  0.00    +0.026 A 
ATOM      4  C   LIG    1        2.424   0.044  -0.021  0.00  0.00    +0.051 A 
ATOM      5  C   LIG    1        1.220  -0.677  -0.013  0.00  0.00    +0.031 A 
ATOM      6  C   LIG    1        1.597  -2.105  -0.025  0.00  0.00    +0.154 A 
ATOM      7  C   LIG    1        2.993  -2.137  -0.039  0.00  0.00    +0.219 A 
ATOM      8  N   LIG    1        3.467  -0.867  -0.036  0.00  0.00    -0.324 N 
ATOM      9  H   LIG    1        4.408  -0.629  -0.044  0.00  0.00    +0.169 HD
ATOM     10  C   LIG    1        0.002  -0.004   0.002  0.00  0.00    +0.012 A 
ENDROOT
BRANCH   6  11
ATOM     11  N   LIG    1        0.768  -3.156  -0.023  0.00  0.00    -0.141 NA
ATOM     12  N   LIG    1        1.246  -4.354  -0.034  0.00  0.00    -0.124 NA
BRANCH  12  13
ATOM     13  C   LIG    1        0.412  -5.412  -0.032  0.00  0.00    +0.178 C 
ATOM     14  N   LIG    1        0.920  -6.688  -0.044  0.00  0.00    -0.377 N 
ATOM     15  H   LIG    1        0.320  -7.449  -0.042  0.00  0.00    +0.158 HD
ATOM     16  H   LIG    1        1.880  -6.827  -0.054  0.00  0.00    +0.158 HD
BRANCH  13  17
ATOM     17  S   LIG    1       -1.231  -5.174  -0.014  0.00  0.00    -0.104 S 
ATOM     18  H   LIG    1       -1.495  -3.840  -0.004  0.00  0.00    +0.110 HD
ENDBRANCH  13  17
ENDBRANCH  12  13
ENDBRANCH   6  11
BRANCH   7  19
ATOM     19  O   LIG    1        3.750  -3.255  -0.052  0.00  0.00    -0.492 OA
ATOM     20  H   LIG    1        3.962  -3.576  -0.939  0.00  0.00    +0.294 HD
ENDBRANCH   7  19
TORSDOF 4
