REMARK  Name = ZINC22463202
REMARK                            x       y       z     vdW  Elec       q    Type
REMARK                         _______ _______ _______ _____ _____    ______ ____
ROOT
ATOM      1  C   LIG    1        0.713  -0.491   1.192  0.00  0.00    -0.064 C 
ENDROOT
BRANCH   1   3
ATOM      2  C   LIG    1       -0.018   1.465   0.010  0.00  0.00    -0.096 C 
ATOM      3  N   LIG    1        0.002  -0.004   0.002  0.00  0.00    +0.379 N 
ATOM      4  H   LIG    1        0.474  -0.330  -0.828  0.00  0.00    -0.082 HD
BRANCH   3   5
ATOM      5  C   LIG    1       -1.376  -0.512   0.012  0.00  0.00    -0.076 C 
BRANCH   5   6
ATOM      6  C   LIG    1       -2.078  -0.110  -1.286  0.00  0.00    +0.023 C 
BRANCH   6   7
ATOM      7  C   LIG    1       -3.513  -0.640  -1.275  0.00  0.00    +0.230 C 
BRANCH   7   8
ATOM      8  O   LIG    1       -4.169  -0.264  -2.488  0.00  0.00    -0.461 OA
BRANCH   8   9
ATOM      9  C   LIG    1       -5.450  -0.655  -2.638  0.00  0.00    +0.339 C 
ATOM     10  O   LIG    1       -5.995  -1.298  -1.763  0.00  0.00    -0.245 OA
BRANCH   9  11
ATOM     11  C   LIG    1       -6.189  -0.303  -3.864  0.00  0.00    +0.066 A 
ATOM     12  C   LIG    1       -5.562   0.431  -4.874  0.00  0.00    +0.064 A 
ATOM     13  C   LIG    1       -6.258   0.759  -6.022  0.00  0.00    +0.166 A 
ATOM     14  C   LIG    1       -7.583   0.359  -6.173  0.00  0.00    +0.204 A 
ATOM     15  C   LIG    1       -8.211  -0.372  -5.168  0.00  0.00    +0.166 A 
ATOM     16  C   LIG    1       -7.518  -0.709  -4.021  0.00  0.00    +0.064 A 
BRANCH  15  17
ATOM     17  O   LIG    1       -9.505  -0.761  -5.319  0.00  0.00    -0.491 OA
ATOM     18  C   LIG    1      -10.087  -1.508  -4.249  0.00  0.00    +0.277 C 
ENDBRANCH  15  17
BRANCH  14  19
ATOM     19  O   LIG    1       -8.265   0.684  -7.303  0.00  0.00    -0.488 OA
ATOM     20  C   LIG    1       -8.202  -0.243  -8.388  0.00  0.00    +0.277 C 
ENDBRANCH  14  19
BRANCH  13  21
ATOM     21  O   LIG    1       -5.648   1.474  -7.005  0.00  0.00    -0.491 OA
ATOM     22  C   LIG    1       -4.287   1.852  -6.784  0.00  0.00    +0.277 C 
ENDBRANCH  13  21
ENDBRANCH   9  11
ENDBRANCH   8   9
ENDBRANCH   7   8
ENDBRANCH   6   7
ENDBRANCH   5   6
ENDBRANCH   3   5
ENDBRANCH   1   3
BRANCH   1  23
ATOM     23  C   LIG    1        2.180  -0.066   1.119  0.00  0.00    +0.065 C 
BRANCH  23  24
ATOM     24  N   LIG    1        2.891  -0.552   2.309  0.00  0.00    -0.307 NA
ATOM     25  C   LIG    1        2.396   0.108   3.525  0.00  0.00    +0.104 C 
BRANCH  24  26
ATOM     26  C   LIG    1        4.342  -0.373   2.166  0.00  0.00    +0.087 C 
BRANCH  26  27
ATOM     27  C   LIG    1        5.061  -1.108   3.299  0.00  0.00    +0.056 C 
BRANCH  27  28
ATOM     28  C   LIG    1        6.572  -0.921   3.150  0.00  0.00    +0.234 C 
BRANCH  28  29
ATOM     29  O   LIG    1        7.244  -1.608   4.208  0.00  0.00    -0.461 OA
BRANCH  29  30
ATOM     30  C   LIG    1        8.589  -1.543   4.222  0.00  0.00    +0.339 C 
ATOM     31  O   LIG    1        9.177  -0.919   3.361  0.00  0.00    -0.245 OA
BRANCH  30  32
ATOM     32  C   LIG    1        9.350  -2.228   5.284  0.00  0.00    +0.066 A 
ATOM     33  C   LIG    1        8.676  -2.950   6.273  0.00  0.00    +0.064 A 
ATOM     34  C   LIG    1        9.391  -3.591   7.267  0.00  0.00    +0.166 A 
ATOM     35  C   LIG    1       10.781  -3.517   7.285  0.00  0.00    +0.204 A 
ATOM     36  C   LIG    1       11.455  -2.798   6.301  0.00  0.00    +0.166 A 
ATOM     37  C   LIG    1       10.745  -2.160   5.301  0.00  0.00    +0.064 A 
BRANCH  36  38
ATOM     38  O   LIG    1       12.813  -2.727   6.322  0.00  0.00    -0.491 OA
ATOM     39  C   LIG    1       13.439  -1.972   5.282  0.00  0.00    +0.277 C 
ENDBRANCH  36  38
BRANCH  35  40
ATOM     40  O   LIG    1       11.481  -4.148   8.263  0.00  0.00    -0.488 OA
ATOM     41  C   LIG    1       11.880  -5.497   8.009  0.00  0.00    +0.277 C 
ENDBRANCH  35  40
BRANCH  34  42
ATOM     42  O   LIG    1        8.736  -4.294   8.229  0.00  0.00    -0.491 OA
ATOM     43  C   LIG    1        7.309  -4.328   8.151  0.00  0.00    +0.277 C 
ENDBRANCH  34  42
ENDBRANCH  30  32
ENDBRANCH  29  30
ENDBRANCH  28  29
ENDBRANCH  27  28
ENDBRANCH  26  27
ENDBRANCH  24  26
ENDBRANCH  23  24
ENDBRANCH   1  23
TORSDOF 21
