REMARK  Name = ZINC26961992
REMARK                            x       y       z     vdW  Elec       q    Type
REMARK                         _______ _______ _______ _____ _____    ______ ____
ROOT
ATOM      1  C   LIG    1       -1.859  -0.894   1.225  0.00  0.00    +0.120 A 
ATOM      2  C   LIG    1       -1.263  -0.535   2.425  0.00  0.00    +0.053 A 
ATOM      3  C   LIG    1       -2.040  -0.524   3.589  0.00  0.00    +0.005 A 
ATOM      4  C   LIG    1       -3.395  -0.880   3.485  0.00  0.00    +0.030 A 
ATOM      5  C   LIG    1       -3.905  -1.224   2.255  0.00  0.00    +0.113 A 
ATOM      6  N   LIG    1       -3.143  -1.217   1.175  0.00  0.00    -0.240 NA
ENDROOT
BRANCH   3   7
ATOM      7  C   LIG    1       -1.453  -0.151   4.888  0.00  0.00    +0.075 A 
ATOM      8  C   LIG    1       -1.586  -0.830   6.084  0.00  0.00    +0.098 A 
ATOM      9  N   LIG    1       -0.894  -0.153   7.019  0.00  0.00    -0.221 NA
ATOM     10  C   LIG    1       -0.339   0.906   6.476  0.00  0.00    +0.167 A 
ATOM     11  N   LIG    1       -0.653   0.948   5.152  0.00  0.00    -0.332 N 
ATOM     12  H   LIG    1       -0.371   1.622   4.514  0.00  0.00    +0.168 HD
BRANCH   8  13
ATOM     13  C   LIG    1       -2.353  -2.079   6.299  0.00  0.00    +0.003 A 
ATOM     14  C   LIG    1       -2.269  -3.120   5.373  0.00  0.00    +0.013 A 
ATOM     15  C   LIG    1       -2.985  -4.281   5.578  0.00  0.00    +0.039 A 
ATOM     16  C   LIG    1       -3.787  -4.415   6.701  0.00  0.00    +0.123 A 
ATOM     17  F   LIG    1       -4.486  -5.554   6.897  0.00  0.00    -0.205 F 
ATOM     18  C   LIG    1       -3.874  -3.384   7.622  0.00  0.00    +0.039 A 
ATOM     19  C   LIG    1       -3.157  -2.221   7.430  0.00  0.00    +0.013 A 
ENDBRANCH   8  13
BRANCH  10  20
ATOM     20  S   LIG    1        0.660   2.083   7.325  0.00  0.00    -0.091 S 
ATOM     21  C   LIG    1        0.706   1.470   9.032  0.00  0.00    +0.093 C 
ENDBRANCH  10  20
ENDBRANCH   3   7
BRANCH   1  22
ATOM     22  N   LIG    1       -1.101  -0.909   0.059  0.00  0.00    -0.322 N 
ATOM     23  H   LIG    1       -1.512  -1.156  -0.784  0.00  0.00    +0.148 HD
BRANCH  22  25
ATOM     24  C   LIG    1        0.468   0.966   0.006  0.00  0.00    +0.033 C 
ATOM     25  C   LIG    1        0.320  -0.553   0.104  0.00  0.00    +0.099 C 
BRANCH  25  26
ATOM     26  C   LIG    1        1.037  -1.204  -1.051  0.00  0.00    -0.028 A 
ATOM     27  C   LIG    1        0.439  -1.255  -2.296  0.00  0.00    +0.005 A 
ATOM     28  C   LIG    1        1.097  -1.851  -3.355  0.00  0.00    +0.000 A 
ATOM     29  C   LIG    1        2.354  -2.396  -3.169  0.00  0.00    +0.000 A 
ATOM     30  C   LIG    1        2.953  -2.344  -1.924  0.00  0.00    +0.000 A 
ATOM     31  C   LIG    1        2.296  -1.744  -0.866  0.00  0.00    +0.005 A 
ENDBRANCH  25  26
ENDBRANCH  22  25
ENDBRANCH   1  22
TORSDOF 6
