REMARK  Name = ZINC40955326
REMARK                            x       y       z     vdW  Elec       q    Type
REMARK                         _______ _______ _______ _____ _____    ______ ____
ROOT
ATOM      1  S   LIG    1        2.726  -2.792  -0.038  0.00  0.00    +0.101 S 
ATOM      2  O   LIG    1        3.357  -2.508   1.203  0.00  0.00    -0.146 OA
ATOM      3  O   LIG    1        3.334  -2.496  -1.288  0.00  0.00    -0.146 OA
ENDROOT
BRANCH   1   9
ATOM      4  C   LIG    1       -0.016   1.359   0.009  0.00  0.00    +0.007 A 
ATOM      5  C   LIG    1        1.187   2.070   0.002  0.00  0.00    +0.041 A 
ATOM      6  C   LIG    1        2.378   1.405  -0.013  0.00  0.00    +0.095 A 
ATOM      7  N   LIG    1        2.411   0.039  -0.021  0.00  0.00    -0.327 N 
ATOM      8  C   LIG    1        1.239  -0.682  -0.013  0.00  0.00    +0.154 A 
ATOM      9  N   LIG    1        1.272  -2.000  -0.020  0.00  0.00    -0.111 NA
ATOM     10  H   LIG    1        3.264  -0.424  -0.031  0.00  0.00    +0.169 HD
ATOM     11  C   LIG    1        0.002  -0.004   0.002  0.00  0.00    +0.048 A 
BRANCH   6  12
ATOM     12  N   LIG    1        3.557   2.117  -0.021  0.00  0.00    -0.345 N 
ATOM     13  H   LIG    1        4.407   1.649  -0.032  0.00  0.00    +0.144 HD
ATOM     14  H   LIG    1        3.538   3.087  -0.016  0.00  0.00    +0.144 HD
ENDBRANCH   6  12
ENDBRANCH   1   9
BRANCH   1  15
ATOM     15  C   LIG    1        2.378  -4.519  -0.043  0.00  0.00    +0.113 A 
ATOM     16  C   LIG    1        2.248  -5.199   1.154  0.00  0.00    +0.029 A 
ATOM     17  C   LIG    1        1.976  -6.552   1.156  0.00  0.00    +0.010 A 
ATOM     18  C   LIG    1        1.832  -7.233  -0.052  0.00  0.00    -0.018 A 
ATOM     19  C   LIG    1        1.964  -6.542  -1.256  0.00  0.00    +0.010 A 
ATOM     20  C   LIG    1        2.231  -5.188  -1.245  0.00  0.00    +0.029 A 
BRANCH  18  21
ATOM     21  C   LIG    1        1.540  -8.687  -0.057  0.00  0.00    -0.018 A 
ATOM     22  C   LIG    1        1.403  -9.374   1.150  0.00  0.00    +0.010 A 
ATOM     23  C   LIG    1        1.132 -10.724   1.147  0.00  0.00    +0.019 A 
ATOM     24  C   LIG    1        0.994 -11.405  -0.065  0.00  0.00    +0.052 A 
ATOM     25  C   LIG    1        1.130 -10.716  -1.273  0.00  0.00    +0.019 A 
ATOM     26  C   LIG    1        1.396  -9.365  -1.267  0.00  0.00    +0.010 A 
BRANCH  24  27
ATOM     27  C   LIG    1        0.712 -12.809  -0.070  0.00  0.00    +0.099 C 
ATOM     28  N   LIG    1        0.489 -13.923  -0.073  0.00  0.00    -0.191 NA
ENDBRANCH  24  27
ENDBRANCH  18  21
ENDBRANCH   1  15
TORSDOF 5
