REMARK  Name = ZINC25720507
REMARK                            x       y       z     vdW  Elec       q    Type
REMARK                         _______ _______ _______ _____ _____    ______ ____
ROOT
ATOM      1  CA  LIG    1       -1.766   3.245   0.029  0.00  0.00    +0.230 C 
ENDROOT
BRANCH   1   3
ATOM      2  C   LIG    1       -0.017   1.406   0.010  0.00  0.00    +0.119 A 
ATOM      3  C   LIG    1       -1.301   1.812   0.018  0.00  0.00    +0.166 A 
ATOM      4  O   LIG    1       -2.098   0.737   0.017  0.00  0.00    -0.379 OA
ATOM      5  N   LIG    1       -1.282  -0.421   0.006  0.00  0.00    -0.184 N 
ATOM      6  H   LIG    1       -1.588  -1.341   0.003  0.00  0.00    +0.211 HD
ATOM      7  C   LIG    1        0.002  -0.004   0.002  0.00  0.00    +0.280 A 
ATOM      8  O   LIG    1        0.994  -0.715  -0.012  0.00  0.00    -0.265 OA
ENDBRANCH   1   3
BRANCH   1   9
ATOM      9  N   LIG    1       -2.667   3.460   1.169  0.00  0.00    -0.312 NA
ATOM     10  H1  LIG    1       -2.181   3.327   2.044  0.00  0.00    +0.119 HD
ATOM     11  H2  LIG    1       -3.475   2.858   1.109  0.00  0.00    +0.119 HD
ENDBRANCH   1   9
BRANCH   1  12
ATOM     12  C   LIG    1       -2.498   3.546  -1.254  0.00  0.00    +0.329 C 
ATOM     13  O   LIG    1       -3.704   3.726  -1.239  0.00  0.00    -0.249 OA
BRANCH  12  14
ATOM     14  OXT LIG    1       -1.885   3.608  -2.305  0.00  0.00    -0.479 OA
ATOM     15  HXT LIG    1       -0.958   3.469  -2.317  0.00  0.00    +0.295 HD
ENDBRANCH  12  14
ENDBRANCH   1  12
TORSDOF 4
