REMARK  Name = ZINC13983453
REMARK                            x       y       z     vdW  Elec       q    Type
REMARK                         _______ _______ _______ _____ _____    ______ ____
ROOT
ATOM      1  C   LIG    1        2.622   0.263   1.205  0.00  0.00    -0.020 A 
ATOM      2  C   LIG    1        2.130  -0.847   1.778  0.00  0.00    +0.087 A 
ATOM      3  N   LIG    1        2.954  -1.909   1.522  0.00  0.00    -0.359 N 
ATOM      4  C   LIG    1        4.023  -1.498   0.757  0.00  0.00    +0.065 A 
ATOM      5  C   LIG    1        5.130  -2.153   0.226  0.00  0.00    +0.065 A 
ATOM      6 CL   LIG    1        5.350  -3.853   0.500  0.00  0.00    -0.081 Cl
ATOM      7  C   LIG    1        6.052  -1.448  -0.518  0.00  0.00    +0.022 A 
ATOM      8  C   LIG    1        5.887  -0.088  -0.744  0.00  0.00    +0.002 A 
ATOM      9  C   LIG    1        4.808   0.575  -0.232  0.00  0.00    +0.010 A 
ATOM     10  H   LIG    1        2.807  -2.816   1.832  0.00  0.00    +0.165 HD
ATOM     11  C   LIG    1        3.859  -0.121   0.521  0.00  0.00    +0.004 A 
ENDROOT
BRANCH   1  12
ATOM     12  C   LIG    1        2.013   1.641   1.250  0.00  0.00    +0.069 C 
BRANCH  12  16
ATOM     13  C   LIG    1       -1.776   4.138   0.038  0.00  0.00    +0.143 C 
ATOM     14  N   LIG    1       -0.789   3.056   0.025  0.00  0.00    -0.228 N 
ATOM     15  C   LIG    1        0.545   3.248   0.013  0.00  0.00    +0.243 C 
ATOM     16  C   LIG    1        1.158   1.862   0.001  0.00  0.00    +0.165 C 
ATOM     17  N   LIG    1       -0.011   0.966   0.007  0.00  0.00    -0.287 N 
ATOM     18  H   LIG    1        0.002  -0.004   0.002  0.00  0.00    +0.151 HD
ATOM     19  O   LIG    1        1.132   4.309   0.014  0.00  0.00    -0.273 OA
ATOM     20  C   LIG    1       -1.101   1.755   0.016  0.00  0.00    +0.309 C 
ATOM     21  O   LIG    1       -2.240   1.333   0.019  0.00  0.00    -0.252 OA
ENDBRANCH  12  16
ENDBRANCH   1  12
TORSDOF 2
