REMARK  Name = ZINC34867398
REMARK                            x       y       z     vdW  Elec       q    Type
REMARK                         _______ _______ _______ _____ _____    ______ ____
ROOT
ATOM      1  C   LIG    1        6.505  -0.341  -0.461  0.00  0.00    +0.121 A 
ATOM      2  C   LIG    1        7.753   0.271  -0.858  0.00  0.00    +0.098 A 
ATOM      3  C   LIG    1        8.878  -0.465  -0.485  0.00  0.00    +0.106 A 
ATOM      4  S   LIG    1        8.229  -1.796   0.298  0.00  0.00    +0.029 S 
ATOM      5  N   LIG    1        6.595  -1.473   0.186  0.00  0.00    -0.202 NA
ENDROOT
BRANCH   3   6
ATOM      6  N   LIG    1       10.212  -0.166  -0.709  0.00  0.00    -0.262 N 
ATOM      7  H   LIG    1       10.454   0.646  -1.181  0.00  0.00    +0.157 HD
ATOM      8  C   LIG    1       11.173  -1.003  -0.271  0.00  0.00    +0.302 C 
ATOM      9  N   LIG    1       12.471  -0.712  -0.489  0.00  0.00    -0.313 N 
ATOM     10  H   LIG    1       13.162  -1.315  -0.173  0.00  0.00    +0.146 HD
ATOM     11  H   LIG    1       12.713   0.100  -0.961  0.00  0.00    +0.146 HD
ATOM     12  O   LIG    1       10.869  -2.021   0.321  0.00  0.00    -0.253 OA
ENDBRANCH   3   6
BRANCH   2  13
ATOM     13  C   LIG    1        7.829   1.542  -1.585  0.00  0.00    +0.246 C 
ATOM     14  N   LIG    1        7.824   1.549  -2.933  0.00  0.00    -0.325 N 
ATOM     15  H   LIG    1        7.874   2.389  -3.414  0.00  0.00    +0.145 HD
ATOM     16  H   LIG    1        7.769   0.713  -3.422  0.00  0.00    +0.145 HD
ATOM     17  O   LIG    1        7.896   2.591  -0.972  0.00  0.00    -0.270 OA
ENDBRANCH   2  13
BRANCH   1  18
ATOM     18  S   LIG    1        4.949   0.403  -0.821  0.00  0.00    -0.096 S 
BRANCH  18  28
ATOM     19  C   LIG    1       -0.117   1.040  -0.350  0.00  0.00    +0.000 A 
ATOM     20  C   LIG    1        1.030   1.783  -0.143  0.00  0.00    +0.000 A 
ATOM     21  C   LIG    1        2.258   1.156  -0.126  0.00  0.00    +0.005 A 
ATOM     22  C   LIG    1        2.355  -0.218  -0.323  0.00  0.00    -0.031 A 
ATOM     23  C   LIG    1        1.217  -0.952  -0.548  0.00  0.00    -0.043 A 
ATOM     24  C   LIG    1        1.242  -2.431  -0.827  0.00  0.00    +0.035 C 
ATOM     25  C   LIG    1        2.066  -3.172   0.229  0.00  0.00    +0.005 C 
ATOM     26  C   LIG    1        3.495  -3.295  -0.293  0.00  0.00    +0.002 C 
ATOM     27  C   LIG    1        3.840  -2.068  -1.140  0.00  0.00    +0.019 C 
ATOM     28  C   LIG    1        3.736  -0.824  -0.260  0.00  0.00    +0.083 C 
ATOM     29  C   LIG    1       -0.023  -0.322  -0.550  0.00  0.00    +0.004 A 
ENDBRANCH  18  28
ENDBRANCH   1  18
TORSDOF 4
