REMARK  Name = ZINC36413737
REMARK                            x       y       z     vdW  Elec       q    Type
REMARK                         _______ _______ _______ _____ _____    ______ ____
ROOT
ATOM      1  C   LIG    1       -0.051   1.359   0.085  0.00  0.00    +0.003 A 
ATOM      2  C   LIG    1        1.124   2.085   0.041  0.00  0.00    +0.008 A 
ATOM      3  C   LIG    1        2.349   1.424  -0.025  0.00  0.00    -0.016 A 
ATOM      4  C   LIG    1        2.385   0.032  -0.045  0.00  0.00    +0.034 A 
ATOM      5  C   LIG    1        1.202  -0.689  -0.001  0.00  0.00    +0.049 A 
ATOM      6  C   LIG    1       -0.016  -0.022   0.065  0.00  0.00    +0.026 A 
ENDROOT
BRANCH   5   7
ATOM      7  N   LIG    1        1.233  -2.088  -0.022  0.00  0.00    -0.300 N 
ATOM      8  C   LIG    1        0.550  -2.731  -0.982  0.00  0.00    +0.110 A 
ATOM      9  C   LIG    1        0.528  -4.106  -1.075  0.00  0.00    +0.100 A 
ATOM     10  C   LIG    1        1.281  -4.896  -0.087  0.00  0.00    +0.203 A 
ATOM     11  C   LIG    1        2.017  -4.150   0.949  0.00  0.00    +0.065 A 
ATOM     12  C   LIG    1        2.760  -4.810   1.930  0.00  0.00    +0.017 A 
ATOM     13  C   LIG    1        3.437  -4.040   2.860  0.00  0.00    +0.021 A 
ATOM     14  C   LIG    1        3.341  -2.659   2.795  0.00  0.00    +0.113 A 
ATOM     15  N   LIG    1        2.630  -2.059   1.864  0.00  0.00    -0.237 NA
ATOM     16  O   LIG    1        1.296  -6.114  -0.124  0.00  0.00    -0.286 OA
ATOM     17  C   LIG    1        1.968  -2.745   0.940  0.00  0.00    +0.149 A 
BRANCH   9  18
ATOM     18  C   LIG    1       -0.234  -4.773  -2.143  0.00  0.00    +0.249 C 
ATOM     19  N   LIG    1       -0.345  -6.116  -2.153  0.00  0.00    -0.308 N 
ATOM     20  H   LIG    1        0.007  -6.638  -1.415  0.00  0.00    +0.149 HD
ATOM     21  O   LIG    1       -0.763  -4.112  -3.016  0.00  0.00    -0.270 OA
BRANCH  19  22
ATOM     22  C   LIG    1       -0.998  -6.788  -3.279  0.00  0.00    +0.073 C 
ATOM     23  C   LIG    1       -1.978  -7.918  -2.956  0.00  0.00    +0.024 C 
ATOM     24  C   LIG    1       -0.609  -8.242  -3.557  0.00  0.00    +0.024 C 
ENDBRANCH  19  22
ENDBRANCH   9  18
ENDBRANCH   5   7
BRANCH   3  25
ATOM     25  C   LIG    1        3.612   2.202  -0.072  0.00  0.00    -0.015 A 
ATOM     26  C   LIG    1        4.837   1.542  -0.144  0.00  0.00    +0.009 A 
ATOM     27  C   LIG    1        6.009   2.269  -0.189  0.00  0.00    +0.007 A 
ATOM     28  C   LIG    1        5.971   3.651  -0.163  0.00  0.00    -0.008 A 
ATOM     29  C   LIG    1        4.756   4.314  -0.092  0.00  0.00    +0.127 A 
ATOM     30  F   LIG    1        4.725   5.664  -0.067  0.00  0.00    -0.205 F 
ATOM     31  C   LIG    1        3.576   3.594  -0.052  0.00  0.00    +0.047 A 
BRANCH  28  32
ATOM     32  C   LIG    1        7.254   4.439  -0.212  0.00  0.00    +0.036 C 
ATOM     33  C   LIG    1        8.546   3.670  -0.495  0.00  0.00    +0.024 C 
ATOM     34  C   LIG    1        8.268   4.209   0.911  0.00  0.00    +0.106 C 
BRANCH  34  35
ATOM     35  C   LIG    1        9.076   5.394   1.373  0.00  0.00    +0.308 C 
ATOM     36  O   LIG    1        9.304   5.550   2.561  0.00  0.00    -0.251 OA
BRANCH  35  37
ATOM     37  O   LIG    1        9.501   6.197   0.560  0.00  0.00    -0.480 OA
ATOM     38  H   LIG    1        9.325   6.077  -0.352  0.00  0.00    +0.295 HD
ENDBRANCH  35  37
ENDBRANCH  34  35
ENDBRANCH  28  32
ENDBRANCH   3  25
TORSDOF 7
