REMARK  Name = ZINC29464717
REMARK                            x       y       z     vdW  Elec       q    Type
REMARK                         _______ _______ _______ _____ _____    ______ ____
ROOT
ATOM      1  C   LIG    1        0.711  11.396   0.074  0.00  0.00    +0.252 C 
ATOM      2  N   LIG    1        0.404  10.307  -0.658  0.00  0.00    -0.281 N 
ATOM      3  H   LIG    1        0.754  10.227  -1.698  0.00  0.00    +0.155 HD
ATOM      4  O   LIG    1        0.417  11.438   1.254  0.00  0.00    -0.270 OA
ENDROOT
BRANCH   1   7
ATOM      5  C   LIG    1        2.391  13.553  -2.493  0.00  0.00    +0.003 A 
ATOM      6  C   LIG    1        1.748  12.486  -1.907  0.00  0.00    +0.024 A 
ATOM      7  C   LIG    1        1.404  12.534  -0.553  0.00  0.00    +0.083 A 
ATOM      8  C   LIG    1        1.725  13.668   0.207  0.00  0.00    +0.174 A 
ATOM      9  C   LIG    1        2.378  14.736  -0.392  0.00  0.00    +0.202 A 
ATOM     10  C   LIG    1        2.710  14.678  -1.741  0.00  0.00    +0.166 A 
BRANCH   8  11
ATOM     11  O   LIG    1        1.399  13.721   1.524  0.00  0.00    -0.503 OA
ATOM     12  H   LIG    1        1.651  14.611   2.118  0.00  0.00    +0.292 HD
ENDBRANCH   8  11
BRANCH   9  13
ATOM     13  O   LIG    1        2.693  15.839   0.340  0.00  0.00    -0.501 OA
ATOM     14  H   LIG    1        3.210  16.685  -0.136  0.00  0.00    +0.292 HD
ENDBRANCH   9  13
BRANCH  10  15
ATOM     15  O   LIG    1        3.350  15.723  -2.326  0.00  0.00    -0.503 OA
ATOM     16  H   LIG    1        3.603  16.614  -1.733  0.00  0.00    +0.292 HD
ENDBRANCH  10  15
BRANCH   5  17
ATOM     17  C   LIG    1        2.756  13.498  -3.954  0.00  0.00    +0.074 C 
BRANCH  17  23
ATOM     18  C   LIG    1        0.575  13.800  -5.143  0.00  0.00    -0.041 A 
ATOM     19  C   LIG    1       -0.316  14.568  -5.869  0.00  0.00    +0.004 A 
ATOM     20  C   LIG    1        0.004  15.872  -6.198  0.00  0.00    +0.000 A 
ATOM     21  C   LIG    1        1.214  16.408  -5.801  0.00  0.00    +0.000 A 
ATOM     22  C   LIG    1        2.103  15.641  -5.071  0.00  0.00    +0.004 A 
ATOM     23  C   LIG    1        1.785  14.336  -4.746  0.00  0.00    -0.040 A 
BRANCH  18  25
ATOM     24  C   LIG    1       -1.085  12.359  -3.993  0.00  0.00    +0.012 C 
ATOM     25  C   LIG    1        0.226  12.379  -4.783  0.00  0.00    +0.013 C 
ATOM     26  C   LIG    1        0.062  11.555  -6.062  0.00  0.00    +0.012 C 
ENDBRANCH  18  25
ENDBRANCH  17  23
ENDBRANCH   5  17
ENDBRANCH   1   7
BRANCH   2  27
ATOM     27  C   LIG    1       -0.360   9.279  -0.097  0.00  0.00    +0.034 A 
ATOM     28  C   LIG    1       -0.132   7.960  -0.468  0.00  0.00    +0.025 A 
ATOM     29  C   LIG    1       -0.888   6.947   0.089  0.00  0.00    +0.029 A 
ATOM     30  C   LIG    1       -1.872   7.245   1.015  0.00  0.00    +0.094 A 
ATOM     31  C   LIG    1       -2.105   8.558   1.382  0.00  0.00    +0.029 A 
ATOM     32  C   LIG    1       -1.349   9.575   0.833  0.00  0.00    +0.025 A 
BRANCH  30  33
ATOM     33  S   LIG    1       -2.834   5.950   1.723  0.00  0.00    +0.025 S 
ATOM     34  O   LIG    1       -4.162   6.443   1.829  0.00  0.00    -0.164 OA
ATOM     35  O   LIG    1       -2.516   4.767   1.002  0.00  0.00    -0.164 OA
BRANCH  33  36
ATOM     36  C   LIG    1       -2.253   5.709   3.369  0.00  0.00    +0.097 A 
ATOM     37  C   LIG    1       -2.560   6.631   4.352  0.00  0.00    +0.027 A 
ATOM     38  C   LIG    1       -2.100   6.445   5.642  0.00  0.00    +0.002 A 
ATOM     39  C   LIG    1       -1.336   5.334   5.950  0.00  0.00    +0.000 A 
ATOM     40  C   LIG    1       -1.033   4.410   4.968  0.00  0.00    +0.006 A 
ATOM     41  C   LIG    1       -1.494   4.596   3.678  0.00  0.00    -0.017 A 
BRANCH  41  42
ATOM     42  C   LIG    1       -1.163   3.589   2.607  0.00  0.00    -0.011 C 
ATOM     43  C   LIG    1       -2.446   2.894   2.146  0.00  0.00    +0.015 C 
ATOM     44  C   LIG    1       -0.514   4.301   1.419  0.00  0.00    +0.015 C 
ATOM     45  C   LIG    1       -0.193   2.547   3.168  0.00  0.00    +0.015 C 
ENDBRANCH  41  42
ENDBRANCH  33  36
ENDBRANCH  30  33
ENDBRANCH   2  27
TORSDOF 11
