REMARK  Name = ZINC00058172
REMARK                            x       y       z     vdW  Elec       q    Type
REMARK                         _______ _______ _______ _____ _____    ______ ____
ROOT
ATOM      1  C   LIG    1       -0.017   1.396   0.010  0.00  0.00    +0.012 A 
ATOM      2  C   LIG    1        1.167   2.100   0.002  0.00  0.00    +0.050 A 
ATOM      3  C   LIG    1        2.380   1.425  -0.013  0.00  0.00    +0.158 A 
ATOM      4  C   LIG    1        2.408   0.030  -0.021  0.00  0.00    +0.159 A 
ATOM      5  C   LIG    1        1.227  -0.684  -0.014  0.00  0.00    +0.057 A 
ATOM      6  C   LIG    1        0.002  -0.004   0.002  0.00  0.00    -0.021 A 
ENDROOT
BRANCH   3   7
ATOM      7  O   LIG    1        3.544   2.125  -0.022  0.00  0.00    -0.503 OA
ATOM      8  H   LIG    1        3.890   2.324   0.859  0.00  0.00    +0.292 HD
ENDBRANCH   3   7
BRANCH   4   9
ATOM      9  O   LIG    1        3.599  -0.626  -0.037  0.00  0.00    -0.503 OA
ATOM     10  H   LIG    1        3.952  -0.820   0.842  0.00  0.00    +0.292 HD
ENDBRANCH   4   9
BRANCH   6  11
ATOM     11  C   LIG    1       -1.258  -0.758   0.011  0.00  0.00    +0.015 C 
ATOM     12  C   LIG    1       -2.441  -0.099   0.026  0.00  0.00    +0.092 C 
BRANCH  12  13
ATOM     13  C   LIG    1       -3.654  -0.825   0.034  0.00  0.00    +0.330 C 
ATOM     14  O   LIG    1       -3.635  -2.050   0.027  0.00  0.00    -0.246 OA
BRANCH  13  15
ATOM     15  O   LIG    1       -4.724  -0.228   0.048  0.00  0.00    -0.478 OA
ATOM     16  H   LIG    1       -4.738   0.708   0.053  0.00  0.00    +0.295 HD
ENDBRANCH  13  15
ENDBRANCH  12  13
ENDBRANCH   6  11
TORSDOF 5
