REMARK  Name = ZINC34885047
REMARK                            x       y       z     vdW  Elec       q    Type
REMARK                         _______ _______ _______ _____ _____    ______ ____
ROOT
ATOM      1  C   LIG    1        0.157  -3.175   2.896  0.00  0.00    +0.144 C 
ATOM      2  C   LIG    1        0.135  -1.937   3.534  0.00  0.00    +0.073 C 
ATOM      3  C   LIG    1        0.246  -1.903   4.922  0.00  0.00    +0.129 C 
ATOM      4  N   LIG    1        0.369  -3.046   5.591  0.00  0.00    -0.282 NA
ATOM      5  H   LIG    1       -0.412  -3.086   6.245  0.00  0.00    +0.125 HD
ATOM      6  C   LIG    1        0.386  -4.210   4.949  0.00  0.00    +0.148 C 
ATOM      7  N   LIG    1        0.278  -4.279   3.627  0.00  0.00    -0.280 NA
ATOM      8  H   LIG    1        0.290  -5.145   3.189  0.00  0.00    +0.125 HD
ENDROOT
BRANCH   3   9
ATOM      9  N   LIG    1        0.229  -0.693   5.599  0.00  0.00    -0.285 NA
ATOM     10  C   LIG    1        0.561  -0.624   7.030  0.00  0.00    +0.101 C 
ATOM     11  C   LIG    1        1.625   0.461   7.231  0.00  0.00    +0.099 C 
ATOM     12  N   LIG    1        1.153   1.721   6.641  0.00  0.00    -0.303 NA
ATOM     13  C   LIG    1        2.066   2.826   6.961  0.00  0.00    +0.105 C 
ATOM     14  C   LIG    1        0.969   1.593   5.189  0.00  0.00    +0.099 C 
ATOM     15  C   LIG    1       -0.115   0.556   4.903  0.00  0.00    +0.101 C 
ENDBRANCH   3   9
BRANCH   1  16
ATOM     16  N   LIG    1        0.049  -3.255   1.515  0.00  0.00    -0.314 N 
ATOM     17  H   LIG    1       -0.286  -4.066   1.101  0.00  0.00    +0.149 HD
BRANCH  16  24
ATOM     18  C   LIG    1        0.737  -0.267  -2.421  0.00  0.00    +0.065 C 
ATOM     19  C   LIG    1        0.744  -0.814  -1.017  0.00  0.00    +0.033 A 
ATOM     20  N   LIG    1        1.243  -0.216   0.034  0.00  0.00    -0.303 N 
ATOM     21  H   LIG    1        1.672   0.654   0.042  0.00  0.00    +0.186 HD
ATOM     22  N   LIG    1        1.050  -1.044   1.147  0.00  0.00    -0.287 N 
ATOM     23  H   LIG    1        1.320  -0.850   2.058  0.00  0.00    +0.188 HD
ATOM     24  C   LIG    1        0.422  -2.171   0.723  0.00  0.00    +0.114 A 
ATOM     25  C   LIG    1        0.222  -2.047  -0.618  0.00  0.00    +0.065 A 
ENDBRANCH  16  24
ENDBRANCH   1  16
BRANCH   6  26
ATOM     26  C   LIG    1        0.524  -5.455   5.724  0.00  0.00    +0.008 C 
ATOM     27  C   LIG    1        0.631  -5.404   7.062  0.00  0.00    +0.006 C 
BRANCH  27  28
ATOM     28  C   LIG    1        0.769  -6.650   7.838  0.00  0.00    -0.025 A 
ATOM     29  C   LIG    1        0.795  -7.885   7.184  0.00  0.00    +0.008 A 
ATOM     30  C   LIG    1        0.925  -9.046   7.917  0.00  0.00    +0.001 A 
ATOM     31  C   LIG    1        1.028  -8.991   9.295  0.00  0.00    +0.000 A 
ATOM     32  C   LIG    1        1.003  -7.772   9.950  0.00  0.00    +0.001 A 
ATOM     33  C   LIG    1        0.880  -6.602   9.230  0.00  0.00    +0.008 A 
ENDBRANCH  27  28
ENDBRANCH   6  26
TORSDOF 5
