REMARK  Name = ZINC18230030
REMARK                            x       y       z     vdW  Elec       q    Type
REMARK                         _______ _______ _______ _____ _____    ______ ____
ROOT
ATOM      1  C   LIG    1       -0.002   1.364  -0.385  0.00  0.00    +0.001 A 
ATOM      2  C   LIG    1        1.184   2.076  -0.336  0.00  0.00    +0.002 A 
ATOM      3  C   LIG    1        2.392   1.423  -0.194  0.00  0.00    +0.024 A 
ATOM      4  C   LIG    1        2.428   0.036  -0.099  0.00  0.00    +0.042 A 
ATOM      5  C   LIG    1        1.225  -0.682  -0.149  0.00  0.00    +0.010 A 
ATOM      6  C   LIG    1        1.587  -2.110  -0.024  0.00  0.00    +0.069 C 
ATOM      7  C   LIG    1        3.049  -2.125   0.097  0.00  0.00    +0.251 C 
ATOM      8  O   LIG    1        3.747  -3.116   0.219  0.00  0.00    -0.270 OA
ATOM      9  C   LIG    1        0.728  -3.201  -0.021  0.00  0.00    +0.074 C 
ATOM     10  C   LIG    1       -0.746  -3.154   0.091  0.00  0.00    +0.133 C 
ATOM     11  C   LIG    1       -1.181  -4.570   0.043  0.00  0.00    +0.026 A 
ATOM     12  C   LIG    1       -2.431  -5.178   0.101  0.00  0.00    +0.012 A 
ATOM     13  C   LIG    1       -2.528  -6.553   0.031  0.00  0.00    +0.001 A 
ATOM     14  C   LIG    1       -1.385  -7.324  -0.097  0.00  0.00    +0.002 A 
ATOM     15  C   LIG    1       -0.141  -6.731  -0.155  0.00  0.00    +0.024 A 
ATOM     16  C   LIG    1       -0.023  -5.346  -0.087  0.00  0.00    +0.041 A 
ATOM     17  N   LIG    1       -1.500  -2.095   0.206  0.00  0.00    -0.085 NA
ATOM     18  N   LIG    1        1.091  -4.517  -0.128  0.00  0.00    -0.312 N 
ATOM     19  H   LIG    1        2.005  -4.829  -0.218  0.00  0.00    +0.152 HD
ATOM     20  N   LIG    1        3.484  -0.854   0.047  0.00  0.00    -0.281 N 
ATOM     21  H   LIG    1        4.416  -0.592   0.106  0.00  0.00    +0.155 HD
ATOM     22  C   LIG    1        0.013  -0.013  -0.292  0.00  0.00    +0.010 A 
ENDROOT
BRANCH  17  23
ATOM     23  O   LIG    1       -2.906  -2.234   0.303  0.00  0.00    -0.409 OA
ATOM     24  H   LIG    1       -3.380  -1.395   0.385  0.00  0.00    +0.328 HD
ENDBRANCH  17  23
TORSDOF 1
