REMARK  Name = ZINC56965892
REMARK                            x       y       z     vdW  Elec       q    Type
REMARK                         _______ _______ _______ _____ _____    ______ ____
ROOT
ATOM      1  C   LIG    1       -2.189  -4.378   0.015  0.00  0.00    +0.103 C 
ENDROOT
BRANCH   1   2
ATOM      2  N   LIG    1       -3.454  -5.125   0.016  0.00  0.00    -0.298 NA
ATOM      3  C   LIG    1       -4.196  -4.906  -1.233  0.00  0.00    +0.103 C 
ATOM      4  C   LIG    1       -5.582  -5.550  -1.120  0.00  0.00    +0.120 C 
ATOM      5  N   LIG    1       -5.412  -6.959  -0.736  0.00  0.00    -0.327 N 
ATOM      6  C   LIG    1       -4.567  -7.267   0.429  0.00  0.00    +0.120 C 
ATOM      7  C   LIG    1       -3.221  -6.556   0.254  0.00  0.00    +0.103 C 
BRANCH   5   8
ATOM      8  C   LIG    1       -6.038  -7.980  -1.457  0.00  0.00    +0.030 A 
ATOM      9  C   LIG    1       -5.777  -9.309  -1.151  0.00  0.00    +0.024 A 
ATOM     10  C   LIG    1       -6.397 -10.315  -1.865  0.00  0.00    +0.022 A 
ATOM     11  C   LIG    1       -7.277 -10.000  -2.886  0.00  0.00    +0.041 A 
ATOM     12 CL   LIG    1       -8.053 -11.268  -3.783  0.00  0.00    -0.084 Cl
ATOM     13  C   LIG    1       -7.538  -8.676  -3.193  0.00  0.00    +0.022 A 
ATOM     14  C   LIG    1       -6.925  -7.666  -2.478  0.00  0.00    +0.024 A 
ENDBRANCH   5   8
ENDBRANCH   1   2
BRANCH   1  15
ATOM     15  C   LIG    1       -2.482  -2.877   0.015  0.00  0.00    +0.120 C 
BRANCH  15  17
ATOM     16  C   LIG    1       -1.233  -0.785   0.014  0.00  0.00    +0.244 C 
ATOM     17  N   LIG    1       -1.220  -2.133   0.014  0.00  0.00    -0.310 N 
ATOM     18  H   LIG    1       -0.376  -2.610   0.013  0.00  0.00    +0.149 HD
ATOM     19  O   LIG    1       -2.292  -0.187   0.015  0.00  0.00    -0.270 OA
BRANCH  16  26
ATOM     20  C   LIG    1        0.029   1.362   0.012  0.00  0.00    +0.016 A 
ATOM     21  C   LIG    1        1.219   2.058   0.012  0.00  0.00    +0.039 A 
ATOM     22  C   LIG    1        2.425   1.373   0.011  0.00  0.00    +0.123 A 
ATOM     23  F   LIG    1        3.589   2.059   0.010  0.00  0.00    -0.205 F 
ATOM     24  C   LIG    1        2.441  -0.014   0.011  0.00  0.00    +0.039 A 
ATOM     25  C   LIG    1        1.257  -0.719   0.011  0.00  0.00    +0.016 A 
ATOM     26  C   LIG    1        0.039  -0.034   0.013  0.00  0.00    +0.037 A 
ENDBRANCH  16  26
ENDBRANCH  15  17
ENDBRANCH   1  15
TORSDOF 5
