REMARK  Name = ZINC36330844
REMARK                            x       y       z     vdW  Elec       q    Type
REMARK                         _______ _______ _______ _____ _____    ______ ____
ROOT
ATOM      1  N   LIG    1        2.221  -6.010  -3.815  0.00  0.00    -0.281 N 
ATOM      2  C   LIG    1        3.241  -6.673  -3.235  0.00  0.00    +0.307 C 
ATOM      3  N   LIG    1        4.244  -5.988  -2.651  0.00  0.00    -0.267 N 
ATOM      4  H   LIG    1        4.266  -5.019  -2.705  0.00  0.00    +0.156 HD
ATOM      5  O   LIG    1        3.256  -7.888  -3.238  0.00  0.00    -0.252 OA
ENDROOT
BRANCH   3   6
ATOM      6  C   LIG    1        5.257  -6.675  -1.967  0.00  0.00    +0.070 A 
ATOM      7  C   LIG    1        5.684  -7.915  -2.421  0.00  0.00    +0.029 A 
ATOM      8  C   LIG    1        6.683  -8.590  -1.746  0.00  0.00    +0.040 A 
ATOM      9  C   LIG    1        7.257  -8.032  -0.616  0.00  0.00    +0.126 A 
ATOM     10  F   LIG    1        8.233  -8.695   0.042  0.00  0.00    -0.205 F 
ATOM     11  C   LIG    1        6.833  -6.795  -0.160  0.00  0.00    +0.078 A 
ATOM     12  C   LIG    1        5.838  -6.112  -0.836  0.00  0.00    +0.147 A 
ATOM     13  F   LIG    1        5.428  -4.903  -0.395  0.00  0.00    -0.203 F 
ENDBRANCH   3   6
BRANCH   1  14
ATOM     14  C   LIG    1        2.203  -4.545  -3.812  0.00  0.00    +0.110 C 
BRANCH  14  15
ATOM     15  C   LIG    1        1.478  -4.047  -2.560  0.00  0.00    +0.019 C 
BRANCH  15  16
ATOM     16  C   LIG    1        1.459  -2.517  -2.557  0.00  0.00    +0.002 C 
BRANCH  16  17
ATOM     17  C   LIG    1        0.733  -2.019  -1.305  0.00  0.00    +0.000 C 
BRANCH  17  18
ATOM     18  C   LIG    1        0.715  -0.489  -1.301  0.00  0.00    -0.000 C 
BRANCH  18  20
ATOM     19  C   LIG    1       -0.030   1.539  -0.046  0.00  0.00    +0.004 C 
ATOM     20  C   LIG    1       -0.011   0.009  -0.050  0.00  0.00    -0.003 C 
ENDBRANCH  18  20
ENDBRANCH  17  18
ENDBRANCH  16  17
ENDBRANCH  15  16
ENDBRANCH  14  15
ENDBRANCH   1  14
BRANCH   1  21
ATOM     21  C   LIG    1        1.130  -6.754  -4.450  0.00  0.00    +0.144 C 
BRANCH  21  22
ATOM     22  C   LIG    1        1.465  -6.998  -5.899  0.00  0.00    -0.030 A 
ATOM     23  C   LIG    1        1.091  -6.076  -6.859  0.00  0.00    +0.005 A 
ATOM     24  C   LIG    1        1.398  -6.299  -8.188  0.00  0.00    +0.004 A 
ATOM     25  C   LIG    1        2.079  -7.444  -8.557  0.00  0.00    -0.047 A 
ATOM     26  C   LIG    1        2.453  -8.366  -7.597  0.00  0.00    +0.004 A 
ATOM     27  C   LIG    1        2.150  -8.140  -6.267  0.00  0.00    +0.005 A 
BRANCH  25  28
ATOM     28  C   LIG    1        2.412  -7.688 -10.006  0.00  0.00    +0.041 C 
BRANCH  28  29
ATOM     29  C   LIG    1        3.780  -7.081 -10.324  0.00  0.00    -0.034 C 
ATOM     30  C   LIG    1        3.744  -5.575 -10.056  0.00  0.00    +0.011 C 
ATOM     31  C   LIG    1        4.118  -7.329 -11.796  0.00  0.00    +0.011 C 
ATOM     32  C   LIG    1        4.845  -7.732  -9.439  0.00  0.00    +0.011 C 
ENDBRANCH  28  29
ENDBRANCH  25  28
ENDBRANCH  21  22
ENDBRANCH   1  21
TORSDOF 11
