REMARK  Name = ZINC20477323
REMARK                            x       y       z     vdW  Elec       q    Type
REMARK                         _______ _______ _______ _____ _____    ______ ____
ROOT
ATOM      1  N   LIG    1        0.744  -7.061   2.721  0.00  0.00    +0.382 N 
ATOM      2  H   LIG    1        0.656  -6.574   3.704  0.00  0.00    -0.081 HD
ATOM      3  C   LIG    1        1.993  -6.598   2.103  0.00  0.00    -0.077 C 
ATOM      4  C   LIG    1        1.991  -5.069   2.029  0.00  0.00    -0.000 C 
ATOM      5  C   LIG    1        0.788  -4.605   1.203  0.00  0.00    +0.051 C 
ATOM      6  C   LIG    1       -0.496  -5.140   1.842  0.00  0.00    -0.000 C 
ATOM      7  C   LIG    1       -0.422  -6.667   1.921  0.00  0.00    -0.077 C 
ENDROOT
BRANCH   5   8
ATOM      8  N   LIG    1        0.748  -3.136   1.178  0.00  0.00    -0.303 NA
ATOM      9  H   LIG    1        0.228  -2.768   2.074  0.00  0.00    +0.123 HD
BRANCH   8  10
ATOM     10  C   LIG    1        0.038  -2.650  -0.013  0.00  0.00    +0.171 C 
BRANCH  10  11
ATOM     11  C   LIG    1        0.018  -1.178  -0.004  0.00  0.00    -0.082 C 
ATOM     12  C   LIG    1        0.002  -0.004   0.002  0.00  0.00    -0.065 C 
BRANCH  12  13
ATOM     13  C   LIG    1       -0.017   1.428   0.010  0.00  0.00    +0.025 A 
ATOM     14  C   LIG    1       -1.233   2.112   0.019  0.00  0.00    +0.017 A 
ATOM     15  C   LIG    1       -1.245   3.492   0.032  0.00  0.00    +0.001 A 
ATOM     16  C   LIG    1       -0.055   4.197   0.025  0.00  0.00    +0.000 A 
ATOM     17  C   LIG    1        1.154   3.524   0.009  0.00  0.00    +0.001 A 
ATOM     18  C   LIG    1        1.180   2.145   0.002  0.00  0.00    +0.017 A 
ENDBRANCH  12  13
ENDBRANCH  10  11
ENDBRANCH   8  10
ENDBRANCH   5   8
BRANCH   1  19
ATOM     19  C   LIG    1        0.769  -8.514   2.935  0.00  0.00    -0.043 C 
BRANCH  19  23
ATOM     20  C   LIG    1       -2.567  -9.657   5.345  0.00  0.00    +0.000 A 
ATOM     21  C   LIG    1       -2.687  -9.629   3.968  0.00  0.00    +0.000 A 
ATOM     22  C   LIG    1       -1.607  -9.259   3.188  0.00  0.00    +0.002 A 
ATOM     23  C   LIG    1       -0.408  -8.917   3.785  0.00  0.00    -0.064 A 
ATOM     24  C   LIG    1       -0.287  -8.951   5.162  0.00  0.00    +0.002 A 
ATOM     25  C   LIG    1       -1.368  -9.316   5.942  0.00  0.00    +0.000 A 
ENDBRANCH  19  23
ENDBRANCH   1  19
TORSDOF 6
