REMARK  Name = ZINC40891759
REMARK                            x       y       z     vdW  Elec       q    Type
REMARK                         _______ _______ _______ _____ _____    ______ ____
ROOT
ATOM      1  N   LIG    1        0.226   2.759  -7.144  0.00  0.00    -0.227 N 
ATOM      2  C   LIG    1        0.287   3.036  -8.483  0.00  0.00    +0.131 A 
ATOM      3  C   LIG    1        0.653   4.362  -8.605  0.00  0.00    +0.067 A 
ATOM      4  C   LIG    1        0.811   4.877  -7.320  0.00  0.00    +0.166 A 
ATOM      5  N   LIG    1        0.553   3.931  -6.452  0.00  0.00    -0.162 NA
ENDROOT
BRANCH   1  10
ATOM      6  C   LIG    1        0.101  -0.862  -6.511  0.00  0.00    -0.028 A 
ATOM      7  C   LIG    1       -0.770  -0.910  -5.438  0.00  0.00    +0.005 A 
ATOM      8  C   LIG    1       -1.311   0.257  -4.930  0.00  0.00    +0.002 A 
ATOM      9  C   LIG    1       -0.982   1.474  -5.493  0.00  0.00    +0.028 A 
ATOM     10  C   LIG    1       -0.108   1.526  -6.571  0.00  0.00    +0.067 A 
ATOM     11  C   LIG    1        0.437   0.352  -7.075  0.00  0.00    +0.033 A 
BRANCH   6  12
ATOM     12  C   LIG    1        0.687  -2.136  -7.062  0.00  0.00    +0.139 C 
BRANCH  12  14
ATOM     13  C   LIG    1        2.646  -3.538  -6.694  0.00  0.00    +0.199 C 
ATOM     14  N   LIG    1        1.941  -2.438  -6.366  0.00  0.00    -0.313 N 
ATOM     15  H   LIG    1        2.263  -1.845  -5.669  0.00  0.00    +0.149 HD
ATOM     16  O   LIG    1        2.243  -4.279  -7.566  0.00  0.00    -0.278 OA
BRANCH  13  18
ATOM     17  C   LIG    1        4.924  -2.700  -6.188  0.00  0.00    -0.005 C 
ATOM     18  C   LIG    1        3.936  -3.848  -5.978  0.00  0.00    +0.010 C 
BRANCH  18  19
ATOM     19  N   LIG    1        4.507  -5.090  -6.515  0.00  0.00    +0.385 N 
ATOM     20  H   LIG    1        4.689  -4.978  -7.501  0.00  0.00    -0.089 HD
ATOM     21  H   LIG    1        3.855  -5.848  -6.377  0.00  0.00    -0.089 HD
ATOM     22  H   LIG    1        5.371  -5.298  -6.036  0.00  0.00    -0.089 HD
ENDBRANCH  18  19
ENDBRANCH  13  18
ENDBRANCH  12  14
ENDBRANCH   6  12
ENDBRANCH   1  10
BRANCH   2  23
ATOM     23  C   LIG    1        0.014   2.099  -9.584  0.00  0.00    +0.267 A 
ATOM     24  N   LIG    1       -0.440   0.870  -9.466  0.00  0.00    -0.105 NA
ATOM     25  N   LIG    1       -0.559   0.345 -10.634  0.00  0.00    -0.107 NA
ATOM     26  C   LIG    1       -0.186   1.216 -11.546  0.00  0.00    +0.250 A 
ATOM     27  O   LIG    1        0.178   2.344 -10.901  0.00  0.00    -0.414 OA
BRANCH  26  28
ATOM     28  C   LIG    1       -0.173   1.002 -13.005  0.00  0.00    +0.054 A 
ATOM     29  C   LIG    1        0.255   2.016 -13.866  0.00  0.00    +0.014 A 
ATOM     30  C   LIG    1        0.258   1.791 -15.231  0.00  0.00    +0.003 A 
ATOM     31  C   LIG    1       -0.150   0.594 -15.765  0.00  0.00    +0.029 A 
ATOM     32  C   LIG    1       -0.590  -0.456 -14.931  0.00  0.00    +0.079 A 
ATOM     33  N   LIG    1       -1.026  -1.692 -15.253  0.00  0.00    -0.247 NA
ATOM     34  C   LIG    1       -1.382  -2.559 -14.351  0.00  0.00    +0.157 A 
ATOM     35  S   LIG    1       -1.179  -1.748 -12.890  0.00  0.00    -0.075 S 
ATOM     36  C   LIG    1       -0.581  -0.211 -13.540  0.00  0.00    +0.051 A 
ENDBRANCH  26  28
ENDBRANCH   2  23
BRANCH   4  37
ATOM     37  C   LIG    1        1.207   6.291  -6.984  0.00  0.00    +0.436 C 
ATOM     38  F   LIG    1        2.021   6.802  -8.002  0.00  0.00    -0.164 F 
ATOM     39  F   LIG    1        1.910   6.304  -5.774  0.00  0.00    -0.164 F 
ATOM     40  F   LIG    1        0.059   7.081  -6.865  0.00  0.00    -0.164 F 
ENDBRANCH   4  37
TORSDOF 8
