REMARK  Name = ZINC17003003
REMARK                            x       y       z     vdW  Elec       q    Type
REMARK                         _______ _______ _______ _____ _____    ______ ____
ROOT
ATOM      1  C   LIG    1        0.006   0.965   2.478  0.00  0.00    +0.024 C 
ATOM      2  C   LIG    1        1.251   1.867   2.662  0.00  0.00    +0.007 C 
ATOM      3  C   LIG    1        0.999   3.146   1.817  0.00  0.00    +0.005 C 
ATOM      4  C   LIG    1       -0.507   3.082   1.527  0.00  0.00    -0.001 C 
ATOM      5  C   LIG    1       -1.022   3.952   0.419  0.00  0.00    -0.003 C 
ATOM      6  C   LIG    1        0.060   4.468  -0.517  0.00  0.00    +0.008 C 
ATOM      7  C   LIG    1       -0.571   4.937  -1.834  0.00  0.00    +0.032 C 
ATOM      8  C   LIG    1       -2.000   5.349  -1.560  0.00  0.00    -0.060 C 
ATOM      9  C   LIG    1       -2.389   6.608  -1.711  0.00  0.00    +0.046 C 
ATOM     10  C   LIG    1       -3.765   7.013  -1.432  0.00  0.00    +0.156 C 
ATOM     11  C   LIG    1       -4.758   6.015  -0.894  0.00  0.00    +0.080 C 
ATOM     12  C   LIG    1       -4.019   4.880  -0.182  0.00  0.00    +0.019 C 
ATOM     13  O   LIG    1       -4.108   8.161  -1.630  0.00  0.00    -0.293 OA
ATOM     14  C   LIG    1       -2.965   4.278  -1.102  0.00  0.00    -0.007 C 
ATOM     15  C   LIG    1       -3.622   3.626  -2.319  0.00  0.00    +0.016 C 
ATOM     16  C   LIG    1       -2.130   3.231  -0.353  0.00  0.00    +0.002 C 
ATOM     17  C   LIG    1       -2.993   2.421   0.607  0.00  0.00    +0.005 C 
ATOM     18  C   LIG    1       -2.202   1.255   1.215  0.00  0.00    +0.007 C 
ATOM     19  C   LIG    1       -0.728   1.579   1.266  0.00  0.00    -0.024 C 
ATOM     20  C   LIG    1       -0.013   1.086   0.008  0.00  0.00    +0.012 C 
ENDROOT
BRANCH   1  22
ATOM     21  C   LIG    1        1.152  -1.069   3.361  0.00  0.00    +0.038 C 
ATOM     22  C   LIG    1        0.425  -0.468   2.157  0.00  0.00    +0.115 C 
BRANCH  22  23
ATOM     23  O   LIG    1       -0.735  -1.248   1.862  0.00  0.00    -0.392 OA
ATOM     24  H   LIG    1       -1.374  -1.293   2.587  0.00  0.00    +0.210 HD
ENDBRANCH  22  23
ENDBRANCH   1  22
TORSDOF 2
