REMARK  Name = ZINC28114997
REMARK                            x       y       z     vdW  Elec       q    Type
REMARK                         _______ _______ _______ _____ _____    ______ ____
ROOT
ATOM      1  C   LIG    1       -1.740   5.440   0.047  0.00  0.00    -0.096 C 
ATOM      2  N   LIG    1       -1.531   3.986   0.037  0.00  0.00    +0.378 N 
ATOM      3  H   LIG    1       -2.518   3.501   0.044  0.00  0.00    -0.082 HD
ATOM      4  C   LIG    1       -0.832   3.562  -1.183  0.00  0.00    -0.079 C 
ATOM      5  C   LIG    1       -0.762   2.034  -1.228  0.00  0.00    -0.015 C 
ATOM      6  C   LIG    1       -0.019   1.526   0.010  0.00  0.00    -0.009 C 
ATOM      7  C   LIG    1       -0.738   2.021   1.268  0.00  0.00    -0.015 C 
ATOM      8  C   LIG    1       -0.810   3.549   1.240  0.00  0.00    -0.079 C 
ENDROOT
BRANCH   6   9
ATOM      9  C   LIG    1        0.002  -0.004   0.002  0.00  0.00    +0.060 C 
BRANCH   9  10
ATOM     10  C   LIG    1        0.835  -0.501   1.155  0.00  0.00    +0.059 A 
ATOM     11  C   LIG    1        0.431  -1.361   2.110  0.00  0.00    +0.107 A 
ATOM     12  N   LIG    1        1.494  -1.544   2.954  0.00  0.00    -0.351 N 
ATOM     13  H   LIG    1        1.401  -2.219   3.817  0.00  0.00    +0.166 HD
ATOM     14  C   LIG    1        2.507  -0.782   2.490  0.00  0.00    +0.196 A 
ATOM     15  N   LIG    1        2.106  -0.161   1.414  0.00  0.00    -0.241 NA
ENDBRANCH   9  10
ENDBRANCH   6   9
TORSDOF 2
