REMARK  Name = ZINC28711886
REMARK                            x       y       z     vdW  Elec       q    Type
REMARK                         _______ _______ _______ _____ _____    ______ ____
ROOT
ATOM      1  C   LIG    1       -1.271  -0.766   0.011  0.00  0.00    -0.018 A 
ATOM      2  C   LIG    1       -2.490  -0.091   0.021  0.00  0.00    +0.010 A 
ATOM      3  C   LIG    1       -3.671  -0.805   0.028  0.00  0.00    +0.029 A 
ATOM      4  C   LIG    1       -3.647  -2.188   0.026  0.00  0.00    +0.105 A 
ATOM      5  C   LIG    1       -2.439  -2.863   0.016  0.00  0.00    +0.029 A 
ATOM      6  C   LIG    1       -1.252  -2.159   0.003  0.00  0.00    +0.010 A 
ENDROOT
BRANCH   1  12
ATOM      7  C   LIG    1       -0.017   1.389   0.010  0.00  0.00    +0.009 A 
ATOM      8  C   LIG    1        1.170   2.093   0.002  0.00  0.00    +0.013 A 
ATOM      9  C   LIG    1        2.377   1.418  -0.013  0.00  0.00    +0.055 A 
ATOM     10  C   LIG    1        2.402   0.035  -0.021  0.00  0.00    +0.013 A 
ATOM     11  C   LIG    1        1.221  -0.679  -0.013  0.00  0.00    +0.009 A 
ATOM     12  C   LIG    1        0.002  -0.004   0.002  0.00  0.00    -0.018 A 
BRANCH   9  13
ATOM     13  C   LIG    1        3.671   2.192  -0.023  0.00  0.00    +0.417 C 
ATOM     14  F   LIG    1        3.478   3.414  -0.674  0.00  0.00    -0.166 F 
ATOM     15  F   LIG    1        4.651   1.454  -0.696  0.00  0.00    -0.166 F 
ATOM     16  F   LIG    1        4.084   2.424   1.293  0.00  0.00    -0.166 F 
ENDBRANCH   9  13
ENDBRANCH   1  12
BRANCH   4  17
ATOM     17  S   LIG    1       -5.159  -3.093   0.035  0.00  0.00    +0.056 S 
ATOM     18  O   LIG    1       -6.143  -2.233   0.595  0.00  0.00    -0.153 OA
ATOM     19  O   LIG    1       -4.864  -4.371   0.582  0.00  0.00    -0.153 OA
BRANCH  17  20
ATOM     20  N   LIG    1       -5.590  -3.342  -1.544  0.00  0.00    -0.204 NA
ATOM     21  H   LIG    1       -5.338  -2.697  -2.223  0.00  0.00    +0.144 HD
ATOM     22  H   LIG    1       -6.096  -4.132  -1.790  0.00  0.00    +0.144 HD
ENDBRANCH  17  20
ENDBRANCH   4  17
TORSDOF 4
