REMARK  Name = ZINC25999184
REMARK                            x       y       z     vdW  Elec       q    Type
REMARK                         _______ _______ _______ _____ _____    ______ ____
ROOT
ATOM      1  C   LIG    1       -0.013   1.086   0.008  0.00  0.00    +0.137 C 
ATOM      2  C   LIG    1        1.426   1.633  -0.003  0.00  0.00    -0.012 C 
ATOM      3  C   LIG    1        1.568   2.472  -1.289  0.00  0.00    +0.134 C 
ATOM      4  C   LIG    1        0.116   2.881  -1.639  0.00  0.00    +0.172 C 
ATOM      5  C   LIG    1       -0.694   1.612  -1.272  0.00  0.00    +0.172 C 
ENDROOT
BRANCH   2   6
ATOM      6  N   LIG    1        2.386   0.521  -0.017  0.00  0.00    +0.383 N 
ATOM      7  H   LIG    1        2.242  -0.099   0.880  0.00  0.00    -0.089 HD
ATOM      8  H   LIG    1        2.225  -0.091  -0.916  0.00  0.00    -0.089 HD
ATOM      9  H   LIG    1        3.411   0.922  -0.024  0.00  0.00    -0.089 HD
ENDBRANCH   2   6
BRANCH   1  11
ATOM     10  C   LIG    1       -1.724   0.672   1.634  0.00  0.00    +0.194 C 
ATOM     11  O   LIG    1       -0.708   1.559   1.163  0.00  0.00    -0.379 OA
ENDBRANCH   1  11
BRANCH   3  12
ATOM     12  O   LIG    1        2.134   1.685  -2.340  0.00  0.00    -0.391 OA
ATOM     13  H   LIG    1        2.304   2.132  -3.330  0.00  0.00    +0.210 HD
ENDBRANCH   3  12
BRANCH   4  14
ATOM     14  O   LIG    1       -0.006   3.173  -3.033  0.00  0.00    -0.387 OA
ATOM     15  H   LIG    1       -0.978   3.481  -3.447  0.00  0.00    +0.210 HD
ENDBRANCH   4  14
BRANCH   5  16
ATOM     16  O   LIG    1       -0.608   0.643  -2.319  0.00  0.00    -0.387 OA
ATOM     17  H   LIG    1       -1.045   0.859  -3.305  0.00  0.00    +0.210 HD
ENDBRANCH   5  16
TORSDOF 5
