REMARK  Name = ZINC49034914
REMARK                            x       y       z     vdW  Elec       q    Type
REMARK                         _______ _______ _______ _____ _____    ______ ____
ROOT
ATOM      1  N   LIG    1        2.447  -4.495  -3.487  0.00  0.00    -0.188 N 
ATOM      2  C   LIG    1        1.989  -4.775  -4.792  0.00  0.00    +0.076 A 
ATOM      3  C   LIG    1        0.669  -4.652  -5.242  0.00  0.00    +0.027 A 
ATOM      4  C   LIG    1        0.337  -4.955  -6.544  0.00  0.00    +0.002 A 
ATOM      5  C   LIG    1        1.315  -5.388  -7.422  0.00  0.00    +0.002 A 
ATOM      6  C   LIG    1        2.617  -5.513  -6.991  0.00  0.00    +0.027 A 
ATOM      7  C   LIG    1        2.967  -5.208  -5.671  0.00  0.00    +0.081 A 
ATOM      8  N   LIG    1        4.262  -5.298  -5.117  0.00  0.00    -0.155 N 
ATOM      9  S   LIG    1        4.083  -4.812  -3.532  0.00  0.00    +0.133 S 
ATOM     10  O   LIG    1        4.325  -5.943  -2.708  0.00  0.00    -0.134 OA
ATOM     11  O   LIG    1        4.765  -3.574  -3.381  0.00  0.00    -0.134 OA
ENDROOT
BRANCH   8  12
ATOM     12  C   LIG    1        5.438  -5.701  -5.758  0.00  0.00    +0.093 A 
ATOM     13  C   LIG    1        6.188  -4.782  -6.479  0.00  0.00    +0.028 A 
ATOM     14  C   LIG    1        7.349  -5.184  -7.112  0.00  0.00    +0.002 A 
ATOM     15  C   LIG    1        7.765  -6.500  -7.027  0.00  0.00    +0.003 A 
ATOM     16  C   LIG    1        7.022  -7.419  -6.310  0.00  0.00    +0.040 A 
ATOM     17  C   LIG    1        5.862  -7.023  -5.670  0.00  0.00    +0.146 A 
ATOM     18  F   LIG    1        5.138  -7.920  -4.964  0.00  0.00    -0.203 F 
ENDBRANCH   8  12
BRANCH   1  19
ATOM     19  C   LIG    1        1.659  -4.024  -2.346  0.00  0.00    +0.135 C 
BRANCH  19  20
ATOM     20  C   LIG    1        1.533  -2.500  -2.407  0.00  0.00    +0.050 C 
BRANCH  20  21
ATOM     21  C   LIG    1        0.710  -2.008  -1.215  0.00  0.00    +0.099 C 
BRANCH  21  22
ATOM     22  O   LIG    1       -0.626  -2.502  -1.322  0.00  0.00    -0.394 OA
ATOM     23  H   LIG    1       -1.087  -2.218  -2.124  0.00  0.00    +0.210 HD
ENDBRANCH  21  22
BRANCH  21  24
ATOM     24  C   LIG    1        0.690  -0.478  -1.207  0.00  0.00    -0.051 C 
BRANCH  24  26
ATOM     25  C   LIG    1       -0.018   1.465   0.010  0.00  0.00    -0.100 C 
ATOM     26  N   LIG    1        0.002  -0.004   0.002  0.00  0.00    +0.379 N 
ATOM     27  H   LIG    1       -0.945  -0.353   0.009  0.00  0.00    -0.086 HD
ATOM     28  H   LIG    1        0.490  -0.338   0.820  0.00  0.00    -0.086 HD
ENDBRANCH  24  26
ENDBRANCH  21  24
ENDBRANCH  20  21
ENDBRANCH  19  20
ENDBRANCH   1  19
TORSDOF 7
