REMARK  Name = ZINC13829431
REMARK                            x       y       z     vdW  Elec       q    Type
REMARK                         _______ _______ _______ _____ _____    ______ ____
ROOT
ATOM      1  C   LIG    1       -2.000  -0.016  -1.096  0.00  0.00    +0.079 C 
ENDROOT
BRANCH   1   2
ATOM      2  C   LIG    1       -3.470  -0.345  -1.039  0.00  0.00    -0.025 A 
ATOM      3  C   LIG    1       -4.049  -0.708   0.160  0.00  0.00    +0.005 A 
ATOM      4  C   LIG    1       -5.399  -1.012   0.218  0.00  0.00    +0.002 A 
ATOM      5  C   LIG    1       -6.174  -0.954  -0.922  0.00  0.00    +0.028 A 
ATOM      6  C   LIG    1       -5.602  -0.590  -2.136  0.00  0.00    +0.066 A 
ATOM      7  N   LIG    1       -6.390  -0.535  -3.281  0.00  0.00    -0.316 N 
ATOM      8  H   LIG    1       -7.335  -0.750  -3.230  0.00  0.00    +0.169 HD
ATOM      9  C   LIG    1       -5.847  -0.165  -4.459  0.00  0.00    +0.314 A 
ATOM     10  O   LIG    1       -6.532  -0.109  -5.460  0.00  0.00    -0.262 OA
ATOM     11  C   LIG    1       -4.393   0.162  -4.522  0.00  0.00    +0.314 A 
ATOM     12  O   LIG    1       -3.882   0.486  -5.575  0.00  0.00    -0.262 OA
ATOM     13  N   LIG    1       -3.651   0.093  -3.398  0.00  0.00    -0.316 N 
ATOM     14  H   LIG    1       -2.705   0.304  -3.429  0.00  0.00    +0.169 HD
ATOM     15  C   LIG    1       -4.242  -0.278  -2.193  0.00  0.00    +0.068 A 
ENDBRANCH   1   2
BRANCH   1  16
ATOM     16  N   LIG    1       -1.343  -0.496   0.127  0.00  0.00    +0.396 N 
ATOM     17  H   LIG    1       -0.385  -0.180   0.140  0.00  0.00    -0.083 HD
ATOM     18  H   LIG    1       -1.828  -0.134   0.934  0.00  0.00    -0.083 HD
BRANCH  16  20
ATOM     19  C   LIG    1       -0.520  -2.515  -0.988  0.00  0.00    -0.009 C 
ATOM     20  C   LIG    1       -1.374  -1.965   0.155  0.00  0.00    -0.042 C 
BRANCH  20  21
ATOM     21  C   LIG    1       -0.826  -2.453   1.472  0.00  0.00    -0.062 A 
ATOM     22  C   LIG    1        0.267  -1.827   2.040  0.00  0.00    +0.003 A 
ATOM     23  C   LIG    1        0.769  -2.274   3.248  0.00  0.00    +0.015 A 
ATOM     24  C   LIG    1        0.178  -3.349   3.887  0.00  0.00    +0.018 A 
ATOM     25 BR   LIG    1        0.865  -3.962   5.539  0.00  0.00    -0.050 Br
ATOM     26  C   LIG    1       -0.916  -3.975   3.318  0.00  0.00    +0.015 A 
ATOM     27  C   LIG    1       -1.421  -3.524   2.113  0.00  0.00    +0.003 A 
ENDBRANCH  20  21
ENDBRANCH  16  20
ENDBRANCH   1  16
BRANCH   1  28
ATOM     28  P   LIG    1       -1.786   1.789  -1.233  0.00  0.00    +0.319 P 
ATOM     29  O   LIG    1       -2.580   2.497  -0.083  0.00  0.00    -0.260 OA
BRANCH  28  30
ATOM     30  O   LIG    1       -2.330   2.276  -2.619  0.00  0.00    -0.325 OA
ATOM     31  H   LIG    1       -3.271   2.055  -2.693  0.00  0.00    +0.220 HD
ENDBRANCH  28  30
BRANCH  28  32
ATOM     32  O   LIG    1       -0.265   2.145  -1.113  0.00  0.00    -0.325 OA
ATOM     33  H   LIG    1        0.071   1.844  -0.255  0.00  0.00    +0.220 HD
ENDBRANCH  28  32
ENDBRANCH   1  28
TORSDOF 7
