REMARK  Name = ZINC28766363
REMARK                            x       y       z     vdW  Elec       q    Type
REMARK                         _______ _______ _______ _____ _____    ______ ____
ROOT
ATOM      1  C   LIG    1       -2.865   0.374   7.276  0.00  0.00    +0.055 C 
ENDROOT
BRANCH   1   2
ATOM      2  C   LIG    1       -2.800   1.875   6.988  0.00  0.00    +0.137 C 
BRANCH   2   3
ATOM      3  O   LIG    1       -4.024   2.299   6.385  0.00  0.00    -0.390 OA
ATOM      4  H   LIG    1       -4.249   1.822   5.574  0.00  0.00    +0.210 HD
ENDBRANCH   2   3
BRANCH   2   5
ATOM      5  C   LIG    1       -1.637   2.162   6.036  0.00  0.00    +0.106 C 
BRANCH   5   7
ATOM      6  C   LIG    1       -0.785   1.108   4.011  0.00  0.00    +0.251 C 
ATOM      7  N   LIG    1       -1.841   1.433   4.782  0.00  0.00    -0.307 N 
ATOM      8  H   LIG    1       -2.737   1.184   4.506  0.00  0.00    +0.149 HD
ATOM      9  O   LIG    1        0.336   1.419   4.356  0.00  0.00    -0.272 OA
BRANCH   6  10
ATOM     10  C   LIG    1       -0.995   0.358   2.721  0.00  0.00    +0.324 C 
BRANCH  10  11
ATOM     11  O   LIG    1        0.267   0.133   2.090  0.00  0.00    -0.482 OA
BRANCH  11  19
ATOM     12  C   LIG    1        0.029   1.666  -0.271  0.00  0.00    +0.047 C 
ATOM     13  C   LIG    1        0.140   0.163  -0.286  0.00  0.00    -0.009 A 
ATOM     14  C   LIG    1        0.134  -0.518  -1.487  0.00  0.00    +0.007 A 
ATOM     15  C   LIG    1        0.236  -1.897  -1.502  0.00  0.00    +0.001 A 
ATOM     16  C   LIG    1        0.344  -2.597  -0.314  0.00  0.00    +0.007 A 
ATOM     17  C   LIG    1        0.351  -1.920   0.890  0.00  0.00    -0.009 A 
ATOM     18  C   LIG    1        0.470  -2.683   2.184  0.00  0.00    +0.047 C 
ATOM     19  C   LIG    1        0.255  -0.536   0.907  0.00  0.00    +0.127 A 
ENDBRANCH  11  19
ENDBRANCH  10  11
ENDBRANCH   6  10
ENDBRANCH   5   7
BRANCH   5  20
ATOM     20  C   LIG    1       -1.571   3.663   5.748  0.00  0.00    +0.060 C 
BRANCH  20  21
ATOM     21  C   LIG    1       -0.354   3.961   4.911  0.00  0.00    -0.046 A 
ATOM     22  C   LIG    1        0.850   4.255   5.522  0.00  0.00    +0.004 A 
ATOM     23  C   LIG    1        1.966   4.529   4.754  0.00  0.00    +0.000 A 
ATOM     24  C   LIG    1        1.878   4.508   3.374  0.00  0.00    +0.000 A 
ATOM     25  C   LIG    1        0.673   4.214   2.763  0.00  0.00    +0.000 A 
ATOM     26  C   LIG    1       -0.442   3.936   3.531  0.00  0.00    +0.004 A 
ENDBRANCH  20  21
ENDBRANCH   5  20
ENDBRANCH   2   5
ENDBRANCH   1   2
BRANCH   1  27
ATOM     27  C   LIG    1       -3.900   0.109   8.372  0.00  0.00    +0.080 C 
BRANCH  27  28
ATOM     28  N   LIG    1       -5.242   0.390   7.855  0.00  0.00    -0.311 N 
ATOM     29  H   LIG    1       -5.455   0.195   6.929  0.00  0.00    +0.149 HD
ATOM     30  C   LIG    1       -6.179   0.918   8.666  0.00  0.00    +0.234 C 
ATOM     31  O   LIG    1       -5.889   1.242   9.798  0.00  0.00    -0.274 OA
BRANCH  30  32
ATOM     32  C   LIG    1       -7.588   1.107   8.166  0.00  0.00    +0.166 C 
BRANCH  32  33
ATOM     33  N   LIG    1       -8.453   1.502   9.280  0.00  0.00    -0.273 N 
ATOM     34  C   LIG    1       -9.591   0.657   9.647  0.00  0.00    +0.119 C 
ATOM     35  C   LIG    1       -9.773   0.676  11.166  0.00  0.00    +0.115 C 
ATOM     36  C   LIG    1       -9.703   2.101  11.655  0.00  0.00    +0.222 C 
ATOM     37  N   LIG    1       -8.886   2.981  11.048  0.00  0.00    -0.240 N 
ATOM     38  H   LIG    1       -8.797   3.877  11.408  0.00  0.00    +0.159 HD
ATOM     39  O   LIG    1      -10.382   2.454  12.596  0.00  0.00    -0.275 OA
ATOM     40  C   LIG    1       -8.188   2.633   9.954  0.00  0.00    +0.309 C 
ATOM     41  O   LIG    1       -7.298   3.362   9.563  0.00  0.00    -0.252 OA
ENDBRANCH  32  33
BRANCH  32  42
ATOM     42  C   LIG    1       -7.607   2.197   7.093  0.00  0.00    +0.012 C 
ATOM     43  C   LIG    1       -9.056   2.520   6.720  0.00  0.00    +0.009 C 
ATOM     44  C   LIG    1       -6.859   1.706   5.853  0.00  0.00    +0.009 C 
ENDBRANCH  32  42
ENDBRANCH  30  32
ENDBRANCH  27  28
BRANCH  27  45
ATOM     45  C   LIG    1       -3.817  -1.355   8.808  0.00  0.00    +0.057 C 
BRANCH  45  46
ATOM     46  C   LIG    1       -4.748  -1.586   9.970  0.00  0.00    -0.046 A 
ATOM     47  C   LIG    1       -4.295  -1.409  11.265  0.00  0.00    +0.004 A 
ATOM     48  C   LIG    1       -5.149  -1.621  12.331  0.00  0.00    +0.000 A 
ATOM     49  C   LIG    1       -6.456  -2.009  12.103  0.00  0.00    +0.000 A 
ATOM     50  C   LIG    1       -6.909  -2.185  10.809  0.00  0.00    +0.000 A 
ATOM     51  C   LIG    1       -6.056  -1.969   9.742  0.00  0.00    +0.004 A 
ENDBRANCH  45  46
ENDBRANCH  27  45
ENDBRANCH   1  27
TORSDOF 16
