REMARK  Name = ZINC15987659
REMARK                            x       y       z     vdW  Elec       q    Type
REMARK                         _______ _______ _______ _____ _____    ______ ____
ROOT
ATOM      1  C   LIG    1       -1.965  -4.731   2.085  0.00  0.00    +0.196 C 
ENDROOT
BRANCH   1   2
ATOM      2  N   LIG    1       -1.950  -6.195   2.031  0.00  0.00    -0.274 N 
ATOM      3  H   LIG    1       -1.156  -6.667   1.690  0.00  0.00    +0.258 HD
BRANCH   2   4
ATOM      4  C   LIG    1       -3.025  -6.896   2.447  0.00  0.00    +0.411 C 
ATOM      5  N   LIG    1       -3.011  -8.242   2.398  0.00  0.00    +0.094 NA
BRANCH   4   6
ATOM      6  N   LIG    1       -4.112  -6.250   2.914  0.00  0.00    -0.287 N 
ATOM      7  H   LIG    1       -4.885  -6.754   3.214  0.00  0.00    +0.255 HD
ATOM      8  H   LIG    1       -4.122  -5.280   2.950  0.00  0.00    +0.255 HD
ENDBRANCH   4   6
BRANCH   5   9
ATOM      9  N   LIG    1       -1.971  -8.860   1.951  0.00  0.00    +0.176 N 
ATOM     10  O   LIG    1       -0.922  -8.176   1.544  0.00  0.00    -0.095 OA
BRANCH   9  11
ATOM     11  O   LIG    1       -1.957 -10.177   1.903  0.00  0.00    -0.370 OA
ATOM     12  H   LIG    1       -2.703 -10.664   2.192  0.00  0.00    +0.332 HD
ENDBRANCH   9  11
ENDBRANCH   5   9
ENDBRANCH   2   4
ENDBRANCH   1   2
BRANCH   1  13
ATOM     13  C   LIG    1       -0.636  -4.188   1.558  0.00  0.00    +0.039 C 
BRANCH  13  14
ATOM     14  C   LIG    1       -0.651  -2.659   1.615  0.00  0.00    +0.033 C 
BRANCH  14  15
ATOM     15  C   LIG    1        0.679  -2.115   1.088  0.00  0.00    +0.161 C 
BRANCH  15  16
ATOM     16  N   LIG    1        1.766  -2.526   1.987  0.00  0.00    -0.318 NA
ATOM     17  H   LIG    1        1.869  -3.530   1.994  0.00  0.00    +0.119 HD
ATOM     18  H   LIG    1        1.618  -2.171   2.920  0.00  0.00    +0.119 HD
ENDBRANCH  15  16
BRANCH  15  19
ATOM     19  C   LIG    1        0.618  -0.611   1.029  0.00  0.00    +0.324 C 
ATOM     20  O   LIG    1        1.124   0.049   1.905  0.00  0.00    -0.249 OA
BRANCH  19  22
ATOM     21  C   LIG    1       -0.017   1.425   0.010  0.00  0.00    +0.280 C 
ATOM     22  O   LIG    1        0.002  -0.004   0.002  0.00  0.00    -0.467 OA
ENDBRANCH  19  22
ENDBRANCH  15  19
ENDBRANCH  14  15
ENDBRANCH  13  14
ENDBRANCH   1  13
TORSDOF 11
