REMARK  Name = ZINC33909278
REMARK                            x       y       z     vdW  Elec       q    Type
REMARK                         _______ _______ _______ _____ _____    ______ ____
ROOT
ATOM      1  C   LIG    1       -1.602  -1.800   2.673  0.00  0.00    +0.218 A 
ATOM      2  N   LIG    1       -1.566  -0.988   3.710  0.00  0.00    -0.195 NA
ATOM      3  C   LIG    1       -2.174  -1.555   4.753  0.00  0.00    +0.170 A 
ATOM      4  C   LIG    1       -2.624  -2.811   4.345  0.00  0.00    +0.150 A 
ATOM      5  C   LIG    1       -3.304  -3.620   5.262  0.00  0.00    +0.245 A 
ATOM      6  N   LIG    1       -3.506  -3.179   6.498  0.00  0.00    -0.156 NA
ATOM      7  C   LIG    1       -3.077  -1.982   6.888  0.00  0.00    +0.353 A 
ATOM      8  O   LIG    1       -3.287  -1.619   8.034  0.00  0.00    -0.244 OA
ATOM      9  N   LIG    1       -2.417  -1.159   6.051  0.00  0.00    -0.278 N 
ATOM     10  C   LIG    1       -1.960   0.153   6.517  0.00  0.00    +0.155 C 
ATOM     11  N   LIG    1       -2.254  -2.944   3.015  0.00  0.00    -0.301 N 
ENDROOT
BRANCH   1  12
ATOM     12  N   LIG    1       -1.069  -1.529   1.433  0.00  0.00    -0.206 N 
ATOM     13  H   LIG    1       -1.143  -2.183   0.720  0.00  0.00    +0.177 HD
BRANCH  12  16
ATOM     14  C   LIG    1        0.826   1.225  -0.216  0.00  0.00    +0.068 C 
ATOM     15  C   LIG    1       -0.010  -0.010   0.007  0.00  0.00    +0.063 C 
ATOM     16  N   LIG    1       -0.418  -0.310   1.202  0.00  0.00    -0.184 NA
BRANCH  15  17
ATOM     17  C   LIG    1       -0.363  -0.876  -1.133  0.00  0.00    -0.002 A 
ATOM     18  C   LIG    1       -1.633  -1.455  -1.207  0.00  0.00    +0.012 A 
ATOM     19  C   LIG    1       -1.956  -2.264  -2.276  0.00  0.00    +0.033 A 
ATOM     20  C   LIG    1       -1.028  -2.503  -3.274  0.00  0.00    +0.122 A 
ATOM     21  C   LIG    1        0.232  -1.933  -3.207  0.00  0.00    +0.033 A 
ATOM     22  C   LIG    1        0.567  -1.117  -2.147  0.00  0.00    +0.012 A 
BRANCH  20  23
ATOM     23  N   LIG    1       -1.383  -3.373  -4.418  0.00  0.00    +0.006 N 
ATOM     24  O   LIG    1       -2.482  -3.873  -4.479  0.00  0.00    -0.130 OA
BRANCH  23  25
ATOM     25  O   LIG    1       -0.573  -3.584  -5.291  0.00  0.00    -0.396 OA
ATOM     26  H   LIG    1        0.279  -3.197  -5.243  0.00  0.00    +0.329 HD
ENDBRANCH  23  25
ENDBRANCH  20  23
ENDBRANCH  15  17
ENDBRANCH  12  16
ENDBRANCH   1  12
BRANCH   5  27
ATOM     27  O   LIG    1       -3.751  -4.843   4.893  0.00  0.00    -0.491 OA
ATOM     28  H   LIG    1       -3.606  -5.150   4.020  0.00  0.00    +0.294 HD
ENDBRANCH   5  27
BRANCH  11  29
ATOM     29  C   LIG    1       -2.513  -4.096   2.147  0.00  0.00    +0.160 C 
BRANCH  29  30
ATOM     30  C   LIG    1       -1.370  -5.072   2.253  0.00  0.00    -0.028 A 
ATOM     31  C   LIG    1       -0.285  -4.961   1.404  0.00  0.00    +0.005 A 
ATOM     32  C   LIG    1        0.763  -5.857   1.501  0.00  0.00    +0.000 A 
ATOM     33  C   LIG    1        0.728  -6.862   2.449  0.00  0.00    +0.000 A 
ATOM     34  C   LIG    1       -0.357  -6.973   3.299  0.00  0.00    +0.000 A 
ATOM     35  C   LIG    1       -1.403  -6.075   3.205  0.00  0.00    +0.005 A 
ENDBRANCH  29  30
ENDBRANCH  11  29
TORSDOF 8
