REMARK  Name = ZINC26498986
REMARK                            x       y       z     vdW  Elec       q    Type
REMARK                         _______ _______ _______ _____ _____    ______ ____
ROOT
ATOM      1  C   LIG    1        0.002  -0.004   0.002  0.00  0.00    +0.121 A 
ATOM      2  C   LIG    1       -0.017   1.383   0.010  0.00  0.00    +0.049 A 
ATOM      3  C   LIG    1        1.170   2.087   0.002  0.00  0.00    +0.049 A 
ATOM      4  C   LIG    1        2.386   1.412  -0.014  0.00  0.00    +0.126 A 
ATOM      5  C   LIG    1        2.404   0.027  -0.019  0.00  0.00    +0.030 A 
ATOM      6  C   LIG    1        3.702  -0.732  -0.029  0.00  0.00    +0.144 C 
ATOM      7  C   LIG    1        3.971  -1.332   1.332  0.00  0.00    +0.249 C 
ATOM      8  N   LIG    1        4.011  -2.667   1.135  0.00  0.00    -0.238 N 
ATOM      9  H   LIG    1        4.196  -3.342   1.983  0.00  0.00    +0.159 HD
ATOM     10  C   LIG    1        3.806  -2.982  -0.150  0.00  0.00    +0.307 C 
ATOM     11  O   LIG    1        3.796  -4.121  -0.573  0.00  0.00    -0.252 OA
ATOM     12  O   LIG    1        4.120  -0.740   2.379  0.00  0.00    -0.273 OA
ATOM     13  C   LIG    1        4.855   0.175  -0.447  0.00  0.00    +0.081 C 
ATOM     14  C   LIG    1        4.748   1.487   0.342  0.00  0.00    +0.232 C 
ATOM     15  N   LIG    1        3.611  -1.894  -0.921  0.00  0.00    -0.281 N 
ATOM     16  H   LIG    1        3.417  -1.750  -1.994  0.00  0.00    +0.152 HD
ATOM     17  O   LIG    1        3.534   2.140  -0.029  0.00  0.00    -0.492 OA
ATOM     18  C   LIG    1        1.212  -0.678  -0.011  0.00  0.00    +0.055 A 
ENDROOT
BRANCH   1  20
ATOM     19  C   LIG    1       -2.375   0.059   0.021  0.00  0.00    +0.277 C 
ATOM     20  O   LIG    1       -1.165  -0.701   0.007  0.00  0.00    -0.495 OA
ENDBRANCH   1  20
TORSDOF 1
