REMARK  Name = ZINC26688210
REMARK                            x       y       z     vdW  Elec       q    Type
REMARK                         _______ _______ _______ _____ _____    ______ ____
ROOT
ATOM      1  C   LIG    1        1.249  -0.419  -0.012  0.00  0.00    +0.100 A 
ATOM      2  C   LIG    1        2.100   0.777  -0.014  0.00  0.00    +0.022 A 
ATOM      3  C   LIG    1        1.245   1.863   0.000  0.00  0.00    +0.123 A 
ATOM      4  N   LIG    1       -0.017   1.393   0.010  0.00  0.00    -0.239 N 
ATOM      5  N   LIG    1        0.002  -0.004   0.002  0.00  0.00    -0.166 NA
ENDROOT
BRANCH   2   6
ATOM      6  C   LIG    1        3.567   0.813  -0.028  0.00  0.00    +0.032 C 
ATOM      7  C   LIG    1        4.217   2.006  -0.028  0.00  0.00    +0.077 C 
ATOM      8  C   LIG    1        5.664   2.287  -0.035  0.00  0.00    +0.258 C 
ATOM      9  N   LIG    1        6.022   3.560  -0.038  0.00  0.00    -0.254 N 
ATOM     10  C   LIG    1        5.105   4.549  -0.022  0.00  0.00    +0.121 C 
ATOM     11  S   LIG    1        5.366   6.241  -0.015  0.00  0.00    -0.027 S 
ATOM     12  O   LIG    1        6.489   1.391  -0.042  0.00  0.00    -0.269 OA
ATOM     13  S   LIG    1        3.554   3.665  -0.011  0.00  0.00    -0.061 S 
BRANCH   9  14
ATOM     14  C   LIG    1        7.446   3.903  -0.051  0.00  0.00    +0.140 C 
BRANCH  14  15
ATOM     15  C   LIG    1        7.957   4.013   1.387  0.00  0.00    +0.217 C 
BRANCH  15  16
ATOM     16  S   LIG    1        9.720   4.439   1.371  0.00  0.00    +0.081 S 
ATOM     17  O   LIG    1        9.902   5.757   0.873  0.00  0.00    -0.147 OA
ATOM     18  O   LIG    1       10.480   3.357   0.851  0.00  0.00    -0.147 OA
BRANCH  16  19
ATOM     19  O   LIG    1       10.116   4.521   2.839  0.00  0.00    -0.254 OA
ATOM     20  H   LIG    1       10.017   3.648   3.250  0.00  0.00    +0.244 HD
ENDBRANCH  16  19
ENDBRANCH  15  16
ENDBRANCH  14  15
ENDBRANCH   9  14
ENDBRANCH   2   6
BRANCH   1  25
ATOM     21  C   LIG    1        3.036  -5.892  -0.058  0.00  0.00    +0.044 C 
ATOM     22  C   LIG    1        2.568  -4.460  -0.046  0.00  0.00    -0.050 A 
ATOM     23  C   LIG    1        1.427  -4.113   0.655  0.00  0.00    +0.004 A 
ATOM     24  C   LIG    1        0.994  -2.803   0.670  0.00  0.00    +0.010 A 
ATOM     25  C   LIG    1        1.709  -1.828  -0.024  0.00  0.00    +0.003 A 
ATOM     26  C   LIG    1        2.856  -2.184  -0.733  0.00  0.00    +0.010 A 
ATOM     27  C   LIG    1        3.282  -3.496  -0.736  0.00  0.00    +0.004 A 
ENDBRANCH   1  25
BRANCH   4  28
ATOM     28  C   LIG    1       -1.173   2.185   0.020  0.00  0.00    +0.065 A 
ATOM     29  C   LIG    1       -1.068   3.569   0.032  0.00  0.00    +0.028 A 
ATOM     30  C   LIG    1       -2.209   4.347   0.037  0.00  0.00    +0.002 A 
ATOM     31  C   LIG    1       -3.456   3.748   0.040  0.00  0.00    +0.000 A 
ATOM     32  C   LIG    1       -3.563   2.369   0.034  0.00  0.00    +0.002 A 
ATOM     33  C   LIG    1       -2.426   1.586   0.023  0.00  0.00    +0.028 A 
ENDBRANCH   4  28
TORSDOF 7
