REMARK  Name = ZINC34022720
REMARK                            x       y       z     vdW  Elec       q    Type
REMARK                         _______ _______ _______ _____ _____    ______ ____
ROOT
ATOM      1  C   LIG    1        0.021  -0.641  -1.389  0.00  0.00    +0.082 C 
ATOM      2  C   LIG    1        1.344  -0.344  -2.029  0.00  0.00    +0.025 C 
ATOM      3  C   LIG    1        1.805   1.106  -1.774  0.00  0.00    +0.033 C 
ATOM      4  C   LIG    1        2.674   1.425  -2.973  0.00  0.00    -0.030 C 
ATOM      5  C   LIG    1        2.452   0.583  -3.948  0.00  0.00    -0.023 C 
ATOM      6  C   LIG    1        1.379  -0.402  -3.554  0.00  0.00    +0.048 C 
ATOM      7  C   LIG    1        0.090   0.036  -4.192  0.00  0.00    -0.017 A 
ATOM      8  C   LIG    1        0.091   0.318  -5.550  0.00  0.00    +0.038 A 
ATOM      9  C   LIG    1       -1.065   0.734  -6.179  0.00  0.00    +0.122 A 
ATOM     10  C   LIG    1       -2.237   0.875  -5.457  0.00  0.00    +0.034 A 
ATOM     11  C   LIG    1       -2.248   0.592  -4.106  0.00  0.00    +0.025 A 
ATOM     12  C   LIG    1       -1.084   0.166  -3.472  0.00  0.00    +0.031 A 
ATOM     13  N   LIG    1       -1.126  -0.158  -2.130  0.00  0.00    -0.340 N 
ATOM     14  H   LIG    1       -1.963  -0.028  -1.657  0.00  0.00    +0.146 HD
ENDROOT
BRANCH   1  16
ATOM     15  C   LIG    1       -1.199  -0.533   0.789  0.00  0.00    +0.015 C 
ATOM     16  C   LIG    1        0.002  -0.004   0.002  0.00  0.00    +0.007 C 
ATOM     17  C   LIG    1       -0.107   1.516  -0.134  0.00  0.00    +0.015 C 
BRANCH  16  18
ATOM     18  C   LIG    1        1.293  -0.359   0.743  0.00  0.00    +0.164 C 
BRANCH  18  19
ATOM     19  O   LIG    1        1.276   0.236   2.042  0.00  0.00    -0.394 OA
ATOM     20  H   LIG    1        2.065   0.052   2.569  0.00  0.00    +0.209 HD
ENDBRANCH  18  19
ENDBRANCH  16  18
ENDBRANCH   1  16
BRANCH   9  21
ATOM     21  N   LIG    1       -1.052   1.031  -7.629  0.00  0.00    +0.006 N 
ATOM     22  O   LIG    1       -0.029   0.909  -8.261  0.00  0.00    -0.130 OA
BRANCH  21  23
ATOM     23  O   LIG    1       -2.064   1.395  -8.181  0.00  0.00    -0.396 OA
ATOM     24  H   LIG    1       -2.857   1.490  -7.691  0.00  0.00    +0.329 HD
ENDBRANCH  21  23
ENDBRANCH   9  21
TORSDOF 5
