REMARK  Name = ZINC13779334
REMARK                            x       y       z     vdW  Elec       q    Type
REMARK                         _______ _______ _______ _____ _____    ______ ____
ROOT
ATOM      1  C   LIG    1        1.278   2.058   0.001  0.00  0.00    +0.100 C 
ATOM      2  C   LIG    1        1.665   1.485   1.366  0.00  0.00    +0.015 C 
ATOM      3  C   LIG    1        2.154   0.053   1.225  0.00  0.00    +0.005 C 
ATOM      4  C   LIG    1        1.071  -0.907   0.761  0.00  0.00    +0.045 C 
ATOM      5  C   LIG    1        0.627  -0.575  -0.665  0.00  0.00    +0.233 C 
ATOM      6  N   LIG    1       -0.429   0.447  -0.607  0.00  0.00    -0.279 N 
ATOM      7  H   LIG    1       -1.469   0.162  -0.826  0.00  0.00    +0.303 HD
ATOM      8  C   LIG    1       -0.148   1.656  -0.305  0.00  0.00    +0.239 C 
ENDROOT
BRANCH   8   9
ATOM      9  N   LIG    1       -1.143   2.597  -0.264  0.00  0.00    -0.254 N 
ATOM     10  H   LIG    1       -0.905   3.640  -0.009  0.00  0.00    +0.288 HD
ATOM     11  H   LIG    1       -2.182   2.308  -0.485  0.00  0.00    +0.288 HD
ENDBRANCH   8   9
BRANCH   1  13
ATOM     12  C   LIG    1        3.406   2.438  -1.253  0.00  0.00    +0.005 C 
ATOM     13  C   LIG    1        2.212   1.499  -1.075  0.00  0.00    +0.012 C 
ENDBRANCH   1  13
TORSDOF 2
