REMARK  Name = ZINC33966683
REMARK                            x       y       z     vdW  Elec       q    Type
REMARK                         _______ _______ _______ _____ _____    ______ ____
ROOT
ATOM      1  C   LIG    1       -0.016   1.362   0.009  0.00  0.00    +0.001 A 
ATOM      2  C   LIG    1        1.170   2.083   0.002  0.00  0.00    +0.002 A 
ATOM      3  C   LIG    1        2.386   1.436  -0.013  0.00  0.00    +0.026 A 
ATOM      4  C   LIG    1        2.430   0.046  -0.021  0.00  0.00    +0.047 A 
ATOM      5  C   LIG    1        1.225  -0.682  -0.013  0.00  0.00    +0.000 A 
ATOM      6  C   LIG    1        1.599  -2.095  -0.025  0.00  0.00    +0.037 A 
ATOM      7  C   LIG    1        2.955  -2.145  -0.039  0.00  0.00    +0.068 A 
ATOM      8  N   LIG    1        3.463  -0.866  -0.037  0.00  0.00    -0.353 N 
ATOM      9  H   LIG    1        4.406  -0.640  -0.045  0.00  0.00    +0.166 HD
ATOM     10  C   LIG    1        0.002  -0.004   0.002  0.00  0.00    +0.010 A 
ENDROOT
BRANCH   7  11
ATOM     11  C   LIG    1        3.762  -3.382  -0.053  0.00  0.00    +0.116 A 
ATOM     12  C   LIG    1        5.044  -3.574  -0.742  0.00  0.00    +0.029 A 
ATOM     13  C   LIG    1        5.854  -2.753  -1.530  0.00  0.00    +0.012 A 
ATOM     14  C   LIG    1        7.022  -3.244  -2.038  0.00  0.00    +0.001 A 
ATOM     15  C   LIG    1        7.412  -4.552  -1.779  0.00  0.00    +0.002 A 
ATOM     16  C   LIG    1        6.636  -5.373  -1.011  0.00  0.00    +0.028 A 
ATOM     17  C   LIG    1        5.439  -4.898  -0.479  0.00  0.00    +0.066 A 
ATOM     18  N   LIG    1        4.464  -5.457   0.308  0.00  0.00    -0.276 N 
ATOM     19  H   LIG    1        4.470  -6.366   0.647  0.00  0.00    +0.189 HD
ATOM     20  N   LIG    1        3.466  -4.509   0.551  0.00  0.00    -0.171 NA
ENDBRANCH   7  11
TORSDOF 1
