REMARK  Name = ZINC14946462
REMARK                            x       y       z     vdW  Elec       q    Type
REMARK                         _______ _______ _______ _____ _____    ______ ____
ROOT
ATOM      1  C   LIG    1        2.401   0.032  -0.021  0.00  0.00    +0.021 A 
ATOM      2  C   LIG    1        2.420   1.395  -0.014  0.00  0.00    +0.013 A 
ATOM      3  C   LIG    1        1.212   2.104   0.002  0.00  0.00    +0.021 A 
ATOM      4  C   LIG    1       -0.017   1.401   0.010  0.00  0.00    +0.074 A 
ATOM      5  N   LIG    1       -1.167   2.077   0.019  0.00  0.00    -0.251 NA
ATOM      6  C   LIG    1       -1.216   3.399   0.031  0.00  0.00    +0.049 A 
ATOM      7  C   LIG    1       -0.056   4.154   0.028  0.00  0.00    +0.023 A 
ATOM      8  C   LIG    1       -0.063   5.659   0.049  0.00  0.00    +0.148 C 
ATOM      9  C   LIG    1       -1.433   6.196  -0.361  0.00  0.00    +0.036 C 
ATOM     10  C   LIG    1       -2.499   5.490   0.485  0.00  0.00    +0.009 C 
ATOM     11  C   LIG    1       -2.584   4.033   0.038  0.00  0.00    +0.056 C 
ATOM     12  C   LIG    1        0.002  -0.004   0.002  0.00  0.00    +0.048 A 
ATOM     13  C   LIG    1        1.182   3.517   0.011  0.00  0.00    +0.041 A 
ATOM     14  C   LIG    1        1.194  -0.664  -0.013  0.00  0.00    +0.043 A 
ATOM     15 CL   LIG    1        1.209  -2.400  -0.021  0.00  0.00    -0.083 Cl
ENDROOT
BRANCH  13  16
ATOM     16  N   LIG    1        2.357   4.251   0.004  0.00  0.00    -0.357 N 
ATOM     17  H   LIG    1        2.324   5.220   0.011  0.00  0.00    +0.142 HD
ATOM     18  H   LIG    1        3.214   3.796  -0.007  0.00  0.00    +0.142 HD
ENDBRANCH  13  16
BRANCH   8  19
ATOM     19  O   LIG    1        0.245   6.113   1.369  0.00  0.00    -0.387 OA
ATOM     20  H   LIG    1        0.259   7.076   1.460  0.00  0.00    +0.210 HD
ENDBRANCH   8  19
TORSDOF 2
