REMARK  Name = ZINC17744492
REMARK                            x       y       z     vdW  Elec       q    Type
REMARK                         _______ _______ _______ _____ _____    ______ ____
ROOT
ATOM      1  C   LIG    1       -0.019   1.533   0.011  0.00  0.00    +0.032 C 
ATOM      2  C   LIG    1        1.412   2.054  -0.000  0.00  0.00    +0.115 C 
ATOM      3  N   LIG    1        2.183   1.610  -1.139  0.00  0.00    -0.368 N 
ATOM      4  H   LIG    1        2.943   2.165  -1.377  0.00  0.00    +0.161 HD
ATOM      5  C   LIG    1        1.993   0.575  -1.876  0.00  0.00    +0.125 C 
ATOM      6  S   LIG    1        0.634  -0.521  -1.625  0.00  0.00    -0.093 S 
ATOM      7  C   LIG    1        0.002  -0.004   0.002  0.00  0.00    +0.079 C 
ENDROOT
BRANCH   5   8
ATOM      8  N   LIG    1        2.879   0.314  -2.896  0.00  0.00    -0.339 N 
ATOM      9  H   LIG    1        2.750  -0.463  -3.463  0.00  0.00    +0.144 HD
ATOM     10  H   LIG    1        3.631   0.906  -3.049  0.00  0.00    +0.144 HD
ENDBRANCH   5   8
TORSDOF 1
