REMARK  Name = ZINC28377067
REMARK                            x       y       z     vdW  Elec       q    Type
REMARK                         _______ _______ _______ _____ _____    ______ ____
ROOT
ATOM      1  C   LIG    1        2.382   1.417  -0.014  0.00  0.00    +0.002 A 
ATOM      2  C   LIG    1        2.405   0.033  -0.021  0.00  0.00    +0.007 A 
ATOM      3  C   LIG    1        1.223  -0.671  -0.013  0.00  0.00    -0.001 A 
ATOM      4  C   LIG    1        0.002  -0.004   0.002  0.00  0.00    +0.058 A 
ATOM      5  N   LIG    1       -1.187  -0.735   0.009  0.00  0.00    -0.268 N 
ATOM      6  H   LIG    1       -2.154  -0.211   0.021  0.00  0.00    +0.156 HD
ATOM      7  C   LIG    1       -1.222  -2.074   0.001  0.00  0.00    +0.305 C 
ATOM      8  N   LIG    1       -0.112  -2.836  -0.013  0.00  0.00    -0.290 N 
ATOM      9  H   LIG    1       -0.178  -3.934  -0.020  0.00  0.00    +0.151 HD
ATOM     10  O   LIG    1       -2.306  -2.626   0.006  0.00  0.00    -0.252 OA
ATOM     11  C   LIG    1       -0.017   1.385   0.010  0.00  0.00    +0.063 A 
ATOM     12 CL   LIG    1       -1.530   2.234   0.021  0.00  0.00    -0.082 Cl
ATOM     13  C   LIG    1        1.202  -2.179  -0.019  0.00  0.00    +0.063 C 
ATOM     14  C   LIG    1        1.969  -2.662   1.208  0.00  0.00    +0.031 C 
ATOM     15  C   LIG    1        2.021  -4.191   1.218  0.00  0.00    +0.002 C 
ATOM     16  C   LIG    1        2.746  -4.683  -0.036  0.00  0.00    +0.000 C 
ATOM     17  C   LIG    1        2.007  -4.182  -1.279  0.00  0.00    +0.002 C 
ATOM     18  C   LIG    1        1.955  -2.653  -1.258  0.00  0.00    +0.031 C 
ATOM     19  C   LIG    1        1.173   2.089   0.002  0.00  0.00    +0.022 A 
ENDROOT
TORSDOF 0
