REMARK  Name = ZINC33359231
REMARK                            x       y       z     vdW  Elec       q    Type
REMARK                         _______ _______ _______ _____ _____    ______ ____
ROOT
ATOM      1  N   LIG    1        4.004  -3.719  -1.437  0.00  0.00    -0.287 NA
ENDROOT
BRANCH   1   2
ATOM      2  C   LIG    1        5.053  -2.838  -1.966  0.00  0.00    +0.106 C 
ATOM      3  C   LIG    1        5.859  -2.261  -0.805  0.00  0.00    +0.025 C 
ATOM      4  C   LIG    1        6.804  -1.187  -1.357  0.00  0.00    +0.007 C 
ATOM      5  C   LIG    1        5.965   0.013  -1.793  0.00  0.00    +0.037 C 
ATOM      6  C   LIG    1        4.841  -0.427  -2.691  0.00  0.00    -0.025 A 
ATOM      7  C   LIG    1        4.211   0.539  -3.469  0.00  0.00    +0.007 A 
ATOM      8  C   LIG    1        3.171   0.155  -4.300  0.00  0.00    +0.020 A 
ATOM      9  C   LIG    1        2.796  -1.174  -4.326  0.00  0.00    +0.111 A 
ATOM     10  N   LIG    1        3.416  -2.061  -3.578  0.00  0.00    -0.258 NA
ATOM     11  C   LIG    1        4.417  -1.734  -2.771  0.00  0.00    +0.062 A 
ENDBRANCH   1   2
BRANCH   1  12
ATOM     12  C   LIG    1        3.328  -3.101  -0.288  0.00  0.00    +0.159 C 
BRANCH  12  19
ATOM     13  C   LIG    1       -0.667   0.973  -2.223  0.00  0.00    +0.002 A 
ATOM     14  C   LIG    1        0.434   1.815  -2.154  0.00  0.00    +0.002 A 
ATOM     15  C   LIG    1        1.649   1.342  -1.747  0.00  0.00    +0.030 A 
ATOM     16  C   LIG    1        1.790  -0.003  -1.395  0.00  0.00    +0.089 A 
ATOM     17  C   LIG    1        0.676  -0.856  -1.464  0.00  0.00    +0.066 A 
ATOM     18  N   LIG    1        1.122  -2.099  -1.061  0.00  0.00    -0.341 N 
ATOM     19  C   LIG    1        2.445  -1.979  -0.768  0.00  0.00    +0.122 A 
ATOM     20  H   LIG    1        0.591  -2.908  -0.999  0.00  0.00    +0.167 HD
ATOM     21  N   LIG    1        2.836  -0.753  -0.963  0.00  0.00    -0.231 NA
ATOM     22  C   LIG    1       -0.551  -0.357  -1.880  0.00  0.00    +0.028 A 
ENDBRANCH  12  19
ENDBRANCH   1  12
BRANCH   1  23
ATOM     23  C   LIG    1        4.551  -5.035  -1.081  0.00  0.00    +0.085 C 
BRANCH  23  24
ATOM     24  C   LIG    1        5.033  -5.746  -2.347  0.00  0.00    +0.013 C 
BRANCH  24  25
ATOM     25  C   LIG    1        5.485  -7.165  -1.994  0.00  0.00    -0.018 C 
BRANCH  25  26
ATOM     26  C   LIG    1        6.082  -7.833  -3.234  0.00  0.00    -0.086 C 
BRANCH  26  27
ATOM     27  N   LIG    1        6.406  -9.233  -2.928  0.00  0.00    +0.378 N 
ATOM     28  H   LIG    1        6.800  -9.674  -3.746  0.00  0.00    -0.090 HD
ATOM     29  H   LIG    1        5.566  -9.721  -2.655  0.00  0.00    -0.090 HD
ATOM     30  H   LIG    1        7.075  -9.266  -2.173  0.00  0.00    -0.090 HD
ENDBRANCH  26  27
ENDBRANCH  25  26
ENDBRANCH  24  25
ENDBRANCH  23  24
ENDBRANCH   1  23
TORSDOF 8
