REMARK  Name = ZINC26671979
REMARK                            x       y       z     vdW  Elec       q    Type
REMARK                         _______ _______ _______ _____ _____    ______ ____
ROOT
ATOM      1  C   LIG    1        1.706  -6.048  -0.040  0.00  0.00    +0.279 C 
ATOM      2  N   LIG    1        0.796  -7.021  -0.046  0.00  0.00    -0.208 N 
ATOM      3  H   LIG    1       -0.162  -6.872  -0.045  0.00  0.00    +0.315 HD
ATOM      4  C   LIG    1        1.367  -8.226  -0.054  0.00  0.00    +0.287 C 
ATOM      5  C   LIG    1        2.841  -8.052  -0.054  0.00  0.00    +0.078 A 
ATOM      6  C   LIG    1        3.918  -8.917  -0.059  0.00  0.00    +0.017 A 
ATOM      7  C   LIG    1        5.211  -8.407  -0.072  0.00  0.00    +0.001 A 
ATOM      8  C   LIG    1        5.423  -7.044  -0.066  0.00  0.00    +0.001 A 
ATOM      9  C   LIG    1        4.346  -6.165  -0.056  0.00  0.00    +0.016 A 
ATOM     10  N   LIG    1        0.724  -9.387  -0.062  0.00  0.00    -0.269 N 
ATOM     11  H   LIG    1        1.224 -10.218  -0.068  0.00  0.00    +0.304 HD
ATOM     12  C   LIG    1        3.058  -6.661  -0.051  0.00  0.00    +0.076 A 
ENDROOT
BRANCH   1  13
ATOM     13  N   LIG    1        1.447  -4.746  -0.032  0.00  0.00    -0.232 N 
ATOM     14  H   LIG    1        2.176  -4.106  -0.032  0.00  0.00    +0.292 HD
BRANCH  13  15
ATOM     15  C   LIG    1        0.059  -4.275  -0.021  0.00  0.00    +0.259 C 
BRANCH  15  20
ATOM     16  C   LIG    1       -0.018   1.503   0.010  0.00  0.00    +0.044 C 
ATOM     17  C   LIG    1        0.002  -0.004   0.002  0.00  0.00    -0.050 A 
ATOM     18  C   LIG    1        0.006  -0.689  -1.199  0.00  0.00    +0.004 A 
ATOM     19  C   LIG    1        0.025  -2.071  -1.206  0.00  0.00    +0.007 A 
ATOM     20  C   LIG    1        0.040  -2.768  -0.013  0.00  0.00    -0.008 A 
ATOM     21  C   LIG    1        0.037  -2.084   1.188  0.00  0.00    +0.007 A 
ATOM     22  C   LIG    1        0.023  -0.702   1.195  0.00  0.00    +0.004 A 
ENDBRANCH  15  20
ENDBRANCH  13  15
ENDBRANCH   1  13
BRANCH  10  23
ATOM     23  C   LIG    1       -0.741  -9.413  -0.062  0.00  0.00    +0.269 C 
BRANCH  23  24
ATOM     24  C   LIG    1       -1.233 -10.014  -1.353  0.00  0.00    -0.007 A 
ATOM     25  C   LIG    1       -1.473  -9.202  -2.446  0.00  0.00    +0.008 A 
ATOM     26  C   LIG    1       -1.924  -9.753  -3.631  0.00  0.00    +0.004 A 
ATOM     27  C   LIG    1       -2.135 -11.116  -3.723  0.00  0.00    -0.050 A 
ATOM     28  C   LIG    1       -2.628 -11.716  -5.014  0.00  0.00    +0.044 C 
ATOM     29  C   LIG    1       -1.894 -11.928  -2.631  0.00  0.00    +0.004 A 
ATOM     30  C   LIG    1       -1.439 -11.378  -1.447  0.00  0.00    +0.008 A 
ENDBRANCH  23  24
ENDBRANCH  10  23
TORSDOF 5
