REMARK  Name = ZINC43102258
REMARK                            x       y       z     vdW  Elec       q    Type
REMARK                         _______ _______ _______ _____ _____    ______ ____
ROOT
ATOM      1  C   LIG    1        4.666   1.727   4.077  0.00  0.00    +0.159 C 
ENDROOT
BRANCH   1   4
ATOM      2  N   LIG    1        4.451   0.315   2.057  0.00  0.00    -0.302 N 
ATOM      3  H   LIG    1        4.689   1.092   1.527  0.00  0.00    +0.150 HD
ATOM      4  C   LIG    1        4.378   0.412   3.400  0.00  0.00    +0.234 C 
ATOM      5  O   LIG    1        4.080  -0.559   4.062  0.00  0.00    -0.274 OA
BRANCH   2   6
ATOM      6  C   LIG    1        4.171  -0.963   1.399  0.00  0.00    +0.163 C 
BRANCH   6   7
ATOM      7  C   LIG    1        5.422  -1.804   1.383  0.00  0.00    +0.231 C 
ATOM      8  N   LIG    1        5.402  -3.031   0.824  0.00  0.00    -0.328 N 
ATOM      9  H   LIG    1        6.207  -3.572   0.814  0.00  0.00    +0.145 HD
ATOM     10  H   LIG    1        4.583  -3.372   0.432  0.00  0.00    +0.145 HD
ATOM     11  O   LIG    1        6.446  -1.378   1.874  0.00  0.00    -0.274 OA
ENDBRANCH   6   7
BRANCH   6  12
ATOM     12  C   LIG    1        3.711  -0.707  -0.038  0.00  0.00    +0.067 C 
BRANCH  12  16
ATOM     13  C   LIG    1       -0.017   1.378   0.010  0.00  0.00    +0.000 A 
ATOM     14  C   LIG    1        1.171   2.086   0.002  0.00  0.00    +0.000 A 
ATOM     15  C   LIG    1        2.377   1.411  -0.013  0.00  0.00    +0.004 A 
ATOM     16  C   LIG    1        2.396   0.029  -0.020  0.00  0.00    -0.045 A 
ATOM     17  C   LIG    1        1.208  -0.679  -0.012  0.00  0.00    +0.004 A 
ATOM     18  C   LIG    1        0.002  -0.004   0.002  0.00  0.00    +0.000 A 
ENDBRANCH  12  16
ENDBRANCH   6  12
ENDBRANCH   2   6
ENDBRANCH   1   4
BRANCH   1  19
ATOM     19  N   LIG    1        4.078   1.724   5.419  0.00  0.00    -0.304 N 
ATOM     20  H   LIG    1        3.410   2.386   5.657  0.00  0.00    +0.149 HD
ATOM     21  C   LIG    1        4.464   0.801   6.322  0.00  0.00    +0.220 C 
ATOM     22  O   LIG    1        5.299  -0.027   6.024  0.00  0.00    -0.275 OA
BRANCH  21  23
ATOM     23  C   LIG    1        3.860   0.798   7.702  0.00  0.00    +0.048 C 
ATOM     24  C   LIG    1        2.346   0.600   7.596  0.00  0.00    +0.019 C 
ATOM     25  C   LIG    1        1.732   0.597   8.997  0.00  0.00    -0.009 C 
ATOM     26  C   LIG    1        2.340  -0.543   9.818  0.00  0.00    +0.007 C 
ATOM     27  C   LIG    1        3.853  -0.345   9.924  0.00  0.00    -0.009 C 
ATOM     28  C   LIG    1        4.145   0.991  10.612  0.00  0.00    +0.007 C 
ATOM     29  C   LIG    1        3.538   2.130   9.791  0.00  0.00    -0.009 C 
ATOM     30  C   LIG    1        2.025   1.932   9.685  0.00  0.00    +0.007 C 
ATOM     31  C   LIG    1        4.152   2.134   8.390  0.00  0.00    +0.019 C 
ATOM     32  C   LIG    1        4.467  -0.342   8.523  0.00  0.00    +0.019 C 
ENDBRANCH  21  23
ENDBRANCH   1  19
BRANCH   1  33
ATOM     33  C   LIG    1        6.179   1.925   4.184  0.00  0.00    +0.035 C 
BRANCH  33  34
ATOM     34  C   LIG    1        6.472   3.313   4.757  0.00  0.00    +0.039 C 
BRANCH  34  35
ATOM     35  C   LIG    1        7.986   3.512   4.864  0.00  0.00    +0.196 C 
BRANCH  35  36
ATOM     36  N   LIG    1        8.266   4.841   5.413  0.00  0.00    -0.279 N 
ATOM     37  H   LIG    1        7.535   5.434   5.644  0.00  0.00    +0.258 HD
BRANCH  36  38
ATOM     38  C   LIG    1        9.560   5.244   5.599  0.00  0.00    +0.341 C 
ATOM     39  N   LIG    1        9.815   6.452   6.099  0.00  0.00    -0.292 N 
ATOM     40  H   LIG    1       10.733   6.738   6.231  0.00  0.00    +0.255 HD
ATOM     41  H   LIG    1        9.084   7.046   6.330  0.00  0.00    +0.255 HD
BRANCH  38  42
ATOM     42  N   LIG    1       10.564   4.429   5.282  0.00  0.00    -0.292 N 
ATOM     43  H   LIG    1       11.482   4.715   5.415  0.00  0.00    +0.255 HD
ATOM     44  H   LIG    1       10.378   3.549   4.919  0.00  0.00    +0.255 HD
ENDBRANCH  38  42
ENDBRANCH  36  38
ENDBRANCH  35  36
ENDBRANCH  34  35
ENDBRANCH  33  34
ENDBRANCH   1  33
TORSDOF 13
