REMARK  Name = ZINC22454198
REMARK                            x       y       z     vdW  Elec       q    Type
REMARK                         _______ _______ _______ _____ _____    ______ ____
ROOT
ATOM      1  C   LIG    1        3.862   0.578   1.382  0.00  0.00    +0.248 C 
ATOM      2  N   LIG    1        3.632   1.879   1.647  0.00  0.00    -0.262 N 
ATOM      3  C   LIG    1        4.678   2.720   2.021  0.00  0.00    +0.064 A 
ATOM      4  C   LIG    1        5.416   2.445   3.164  0.00  0.00    +0.027 A 
ATOM      5  C   LIG    1        6.427   3.299   3.557  0.00  0.00    +0.002 A 
ATOM      6  C   LIG    1        6.710   4.435   2.816  0.00  0.00    +0.001 A 
ATOM      7  C   LIG    1        5.997   4.715   1.671  0.00  0.00    +0.015 A 
ATOM      8  C   LIG    1        4.982   3.850   1.249  0.00  0.00    +0.063 A 
ATOM      9  C   LIG    1        4.286   4.104  -0.018  0.00  0.00    +0.258 A 
ATOM     10  N   LIG    1        2.999   3.893  -0.252  0.00  0.00    -0.319 N 
ATOM     11  H   LIG    1        2.686   4.090  -1.149  0.00  0.00    +0.169 HD
ATOM     12  C   LIG    1        2.049   3.421   0.648  0.00  0.00    +0.085 A 
ATOM     13  C   LIG    1        0.770   3.971   0.641  0.00  0.00    +0.031 A 
ATOM     14  C   LIG    1       -0.177   3.458   1.494  0.00  0.00    +0.022 A 
ATOM     15  C   LIG    1        0.167   2.417   2.333  0.00  0.00    +0.113 A 
ATOM     16  N   LIG    1        1.391   1.927   2.338  0.00  0.00    -0.236 NA
ATOM     17  O   LIG    1        4.950   4.547  -0.934  0.00  0.00    -0.267 OA
ATOM     18  C   LIG    1        2.341   2.406   1.546  0.00  0.00    +0.164 A 
ATOM     19  O   LIG    1        4.965   0.107   1.564  0.00  0.00    -0.271 OA
ENDROOT
BRANCH   1  20
ATOM     20  C   LIG    1        2.749  -0.293   0.857  0.00  0.00    +0.184 C 
BRANCH  20  26
ATOM     21  C   LIG    1        2.152  -2.606   0.469  0.00  0.00    +0.041 C 
ATOM     22  C   LIG    1        2.714  -4.027   0.378  0.00  0.00    +0.017 C 
ATOM     23  C   LIG    1        3.669  -4.119  -0.815  0.00  0.00    +0.003 C 
ATOM     24  C   LIG    1        4.783  -3.081  -0.647  0.00  0.00    +0.015 C 
ATOM     25  C   LIG    1        4.162  -1.688  -0.527  0.00  0.00    +0.085 C 
ATOM     26  N   LIG    1        3.257  -1.652   0.629  0.00  0.00    -0.293 NA
BRANCH  21  27
ATOM     27  C   LIG    1        1.213  -2.505   1.671  0.00  0.00    -0.060 C 
BRANCH  27  28
ATOM     28  N   LIG    1        1.917  -2.947   2.882  0.00  0.00    +0.380 N 
ATOM     29  H   LIG    1        2.320  -3.858   2.723  0.00  0.00    -0.082 HD
BRANCH  28  31
ATOM     30  C   LIG    1        3.736  -2.465   4.450  0.00  0.00    -0.017 C 
ATOM     31  C   LIG    1        2.985  -1.990   3.204  0.00  0.00    -0.082 C 
ENDBRANCH  28  31
BRANCH  28  32
ATOM     32  C   LIG    1        0.969  -3.018   4.002  0.00  0.00    -0.082 C 
ATOM     33  C   LIG    1       -0.053  -4.125   3.735  0.00  0.00    -0.017 C 
ENDBRANCH  28  32
ENDBRANCH  27  28
ENDBRANCH  21  27
ENDBRANCH  20  26
ENDBRANCH   1  20
TORSDOF 6
