REMARK  Name = ZINC19793818
REMARK                            x       y       z     vdW  Elec       q    Type
REMARK                         _______ _______ _______ _____ _____    ______ ____
ROOT
ATOM      1  C   LIG    1       -4.102   1.330  -3.979  0.00  0.00    +0.000 A 
ATOM      2  C   LIG    1       -2.804   0.925  -3.729  0.00  0.00    +0.000 A 
ATOM      3  C   LIG    1       -2.332   0.890  -2.433  0.00  0.00    +0.006 A 
ATOM      4  C   LIG    1       -3.153   1.260  -1.377  0.00  0.00    -0.022 A 
ATOM      5  C   LIG    1       -4.446   1.667  -1.627  0.00  0.00    -0.041 A 
ATOM      6  C   LIG    1       -5.373   2.084  -0.515  0.00  0.00    +0.050 C 
ATOM      7  C   LIG    1       -4.831   1.593   0.828  0.00  0.00    +0.086 C 
ATOM      8  N   LIG    1       -3.420   1.994   0.937  0.00  0.00    -0.305 NA
ATOM      9  H   LIG    1       -3.321   3.059   0.680  0.00  0.00    +0.123 HD
ATOM     10  C   LIG    1       -2.594   1.202   0.020  0.00  0.00    +0.121 C 
ATOM     11  C   LIG    1       -4.920   1.700  -2.930  0.00  0.00    +0.004 A 
ENDROOT
BRANCH  10  12
ATOM     12  C   LIG    1       -1.190   1.748   0.017  0.00  0.00    +0.011 A 
ATOM     13  C   LIG    1       -0.013   1.076   0.008  0.00  0.00    +0.013 A 
ATOM     14  C   LIG    1        1.169   1.793   0.001  0.00  0.00    +0.008 A 
ATOM     15  C   LIG    1        1.115   3.148   0.008  0.00  0.00    +0.045 A 
ATOM     16  S   LIG    1       -0.644   3.448   0.027  0.00  0.00    -0.100 S 
ENDBRANCH  10  12
TORSDOF 1
