REMARK  Name = ZINC00008082
REMARK                            x       y       z     vdW  Elec       q    Type
REMARK                         _______ _______ _______ _____ _____    ______ ____
ROOT
ATOM      1  C   LIG    1       -1.200  -0.637   0.010  0.00  0.00    +0.164 A 
ATOM      2  C   LIG    1       -2.349   0.098   0.019  0.00  0.00    +0.079 A 
ATOM      3  C   LIG    1       -3.594  -0.552   0.028  0.00  0.00    +0.093 A 
ATOM      4  C   LIG    1       -3.640  -1.971   0.026  0.00  0.00    +0.094 A 
ATOM      5  N   LIG    1       -4.822  -2.595   0.034  0.00  0.00    -0.244 NA
ATOM      6  C   LIG    1       -5.937  -1.884   0.043  0.00  0.00    +0.090 A 
ATOM      7  C   LIG    1       -5.887  -0.479   0.043  0.00  0.00    +0.139 A 
ATOM      8  C   LIG    1       -2.438  -2.701   0.017  0.00  0.00    +0.079 A 
ATOM      9  N   LIG    1       -4.735   0.148   0.036  0.00  0.00    -0.251 NA
ATOM     10  C   LIG    1       -1.245  -2.041   0.003  0.00  0.00    +0.164 A 
ENDROOT
BRANCH   6  11
ATOM     11  C   LIG    1       -7.249  -2.575   0.051  0.00  0.00    +0.002 A 
ATOM     12  C   LIG    1       -7.309  -3.963   0.160  0.00  0.00    +0.010 A 
ATOM     13  C   LIG    1       -8.533  -4.600   0.168  0.00  0.00    +0.001 A 
ATOM     14  C   LIG    1       -9.699  -3.863   0.067  0.00  0.00    +0.000 A 
ATOM     15  C   LIG    1       -9.646  -2.485  -0.042  0.00  0.00    +0.001 A 
ATOM     16  C   LIG    1       -8.428  -1.837  -0.045  0.00  0.00    +0.010 A 
ENDBRANCH   6  11
BRANCH   1  18
ATOM     17  C   LIG    1       -0.017   1.425   0.010  0.00  0.00    +0.277 C 
ATOM     18  O   LIG    1        0.002  -0.004   0.002  0.00  0.00    -0.491 OA
ENDBRANCH   1  18
BRANCH  10  19
ATOM     19  O   LIG    1       -0.086  -2.749  -0.012  0.00  0.00    -0.491 OA
ATOM     20  C   LIG    1       -0.196  -4.174  -0.019  0.00  0.00    +0.277 C 
ENDBRANCH  10  19
TORSDOF 3
