REMARK  Name = ZINC22446674
REMARK                            x       y       z     vdW  Elec       q    Type
REMARK                         _______ _______ _______ _____ _____    ______ ____
ROOT
ATOM      1  C   LIG    1       -1.607  -2.331   0.293  0.00  0.00    +0.010 A 
ATOM      2  C   LIG    1       -0.319  -2.850   0.289  0.00  0.00    +0.016 A 
ATOM      3  C   LIG    1       -0.127  -4.215   0.190  0.00  0.00    +0.018 A 
ATOM      4  C   LIG    1       -1.217  -5.069   0.093  0.00  0.00    +0.034 A 
ATOM      5  C   LIG    1       -2.511  -4.556   0.092  0.00  0.00    +0.049 A 
ATOM      6  N   LIG    1       -3.629  -5.380  -0.017  0.00  0.00    -0.298 N 
ATOM      7  C   LIG    1       -3.664  -6.725   0.339  0.00  0.00    +0.048 A 
ATOM      8  C   LIG    1       -4.887  -7.301   0.669  0.00  0.00    +0.024 A 
ATOM      9  C   LIG    1       -4.958  -8.635   1.022  0.00  0.00    +0.002 A 
ATOM     10  C   LIG    1       -3.813  -9.409   1.050  0.00  0.00    +0.001 A 
ATOM     11  C   LIG    1       -2.592  -8.847   0.725  0.00  0.00    +0.017 A 
ATOM     12  C   LIG    1       -2.513  -7.508   0.373  0.00  0.00    +0.034 A 
ATOM     13  S   LIG    1       -0.948  -6.806  -0.026  0.00  0.00    -0.086 S 
ATOM     14  C   LIG    1       -2.700  -3.183   0.201  0.00  0.00    +0.039 A 
ENDROOT
BRANCH   1  15
ATOM     15  S   LIG    1       -1.855  -0.592   0.422  0.00  0.00    -0.125 S 
BRANCH  15  17
ATOM     16  C   LIG    1       -0.245   1.610   0.632  0.00  0.00    +0.015 C 
ATOM     17  C   LIG    1       -0.175   0.086   0.515  0.00  0.00    +0.071 C 
ENDBRANCH  15  17
ENDBRANCH   1  15
BRANCH   6  18
ATOM     18  C   LIG    1       -4.859  -4.786  -0.546  0.00  0.00    +0.112 C 
BRANCH  18  19
ATOM     19  C   LIG    1       -5.687  -4.216   0.608  0.00  0.00    +0.035 C 
BRANCH  19  20
ATOM     20  C   LIG    1       -6.972  -3.596   0.055  0.00  0.00    +0.086 C 
BRANCH  20  21
ATOM     21  N   LIG    1       -7.768  -3.049   1.163  0.00  0.00    -0.306 NA
ATOM     22  C   LIG    1       -8.254  -4.122   2.042  0.00  0.00    +0.066 C 
ATOM     23  C   LIG    1       -9.025  -3.508   3.212  0.00  0.00    -0.064 C 
ATOM     24  N   LIG    1      -10.155  -2.725   2.697  0.00  0.00    +0.379 N 
ATOM     25  H   LIG    1      -10.762  -3.325   2.159  0.00  0.00    -0.082 HD
ATOM     26  C   LIG    1      -10.906  -2.150   3.821  0.00  0.00    -0.096 C 
ATOM     27  C   LIG    1       -9.653  -1.642   1.840  0.00  0.00    -0.064 C 
ATOM     28  C   LIG    1       -8.887  -2.241   0.658  0.00  0.00    +0.066 C 
ENDBRANCH  20  21
ENDBRANCH  19  20
ENDBRANCH  18  19
ENDBRANCH   6  18
TORSDOF 6
