REMARK  Name = ZINC42833153
REMARK                            x       y       z     vdW  Elec       q    Type
REMARK                         _______ _______ _______ _____ _____    ______ ____
ROOT
ATOM      1  C   LIG    1       -0.016   1.361   0.009  0.00  0.00    +0.001 A 
ATOM      2  C   LIG    1        1.169   2.084   0.002  0.00  0.00    +0.002 A 
ATOM      3  C   LIG    1        2.386   1.438  -0.013  0.00  0.00    +0.027 A 
ATOM      4  C   LIG    1        2.430   0.048  -0.021  0.00  0.00    +0.056 A 
ATOM      5  C   LIG    1        1.227  -0.684  -0.013  0.00  0.00    +0.006 A 
ATOM      6  C   LIG    1        1.579  -2.054  -0.024  0.00  0.00    +0.012 A 
ATOM      7  C   LIG    1        2.945  -2.139  -0.038  0.00  0.00    +0.146 A 
ATOM      8  N   LIG    1        3.742  -3.229  -0.051  0.00  0.00    -0.194 NA
ATOM      9  C   LIG    1        5.051  -3.140  -0.063  0.00  0.00    +0.224 A 
ATOM     10  C   LIG    1        5.678  -1.811  -0.062  0.00  0.00    +0.060 A 
ATOM     11  C   LIG    1        7.064  -1.656  -0.075  0.00  0.00    +0.015 A 
ATOM     12  C   LIG    1        7.605  -0.388  -0.073  0.00  0.00    +0.001 A 
ATOM     13  C   LIG    1        6.781   0.728  -0.059  0.00  0.00    +0.002 A 
ATOM     14  C   LIG    1        5.408   0.589  -0.047  0.00  0.00    +0.027 A 
ATOM     15  C   LIG    1        4.846  -0.679  -0.049  0.00  0.00    +0.061 A 
ATOM     16  N   LIG    1        3.469  -0.863  -0.036  0.00  0.00    -0.293 N 
ATOM     17  C   LIG    1        0.002  -0.004   0.002  0.00  0.00    +0.010 A 
ENDROOT
BRANCH   9  18
ATOM     18  O   LIG    1        5.813  -4.258  -0.076  0.00  0.00    -0.492 OA
ATOM     19  H   LIG    1        6.747  -4.187  -0.085  0.00  0.00    +0.294 HD
ENDBRANCH   9  18
BRANCH   6  20
ATOM     20  C   LIG    1        0.619  -3.215  -0.020  0.00  0.00    +0.117 C 
BRANCH  20  21
ATOM     21  C   LIG    1        0.284  -3.595  -1.439  0.00  0.00    +0.153 A 
ATOM     22  N   LIG    1       -0.707  -3.112  -2.174  0.00  0.00    -0.242 N 
ATOM     23  H   LIG    1       -1.365  -2.436  -1.891  0.00  0.00    +0.192 HD
ATOM     24  N   LIG    1       -0.655  -3.688  -3.326  0.00  0.00    -0.047 NA
ATOM     25  N   LIG    1        0.333  -4.514  -3.338  0.00  0.00    -0.023 NA
ATOM     26  N   LIG    1        0.929  -4.472  -2.195  0.00  0.00    -0.113 NA
ENDBRANCH  20  21
ENDBRANCH   6  20
TORSDOF 3
