REMARK  Name = ZINC17040529
REMARK                            x       y       z     vdW  Elec       q    Type
REMARK                         _______ _______ _______ _____ _____    ______ ____
ROOT
ATOM      1  N   LIG    1        0.110  -4.176  -0.035  0.00  0.00    -0.157 N 
ATOM      2  C   LIG    1        0.011  -4.899  -1.201  0.00  0.00    +0.383 C 
ATOM      3  N   LIG    1        0.557  -6.100  -1.247  0.00  0.00    -0.012 NA
ATOM      4  C   LIG    1        1.175  -6.620  -0.173  0.00  0.00    +0.384 C 
ATOM      5  N   LIG    1        1.055  -6.093   1.017  0.00  0.00    -0.243 N 
ATOM      6  H   LIG    1        1.541  -6.475   1.764  0.00  0.00    +0.261 HD
ATOM      7  C   LIG    1        0.197  -4.926   1.228  0.00  0.00    +0.199 C 
ATOM      8  C   LIG    1       -1.200  -5.389   1.649  0.00  0.00    +0.093 C 
ATOM      9  C   LIG    1        0.796  -4.036   2.318  0.00  0.00    +0.093 C 
ENDROOT
BRANCH   1  14
ATOM     10  C   LIG    1        0.207   1.496  -0.093  0.00  0.00    +0.044 C 
ATOM     11  C   LIG    1        0.182  -0.011  -0.078  0.00  0.00    -0.050 A 
ATOM     12  C   LIG    1        1.356  -0.723  -0.240  0.00  0.00    +0.006 A 
ATOM     13  C   LIG    1        1.336  -2.104  -0.227  0.00  0.00    +0.040 A 
ATOM     14  C   LIG    1        0.134  -2.777  -0.049  0.00  0.00    +0.098 A 
ATOM     15  C   LIG    1       -1.043  -2.059   0.114  0.00  0.00    +0.040 A 
ATOM     16  C   LIG    1       -1.016  -0.679   0.104  0.00  0.00    +0.006 A 
ENDBRANCH   1  14
BRANCH   2  17
ATOM     17  N   LIG    1       -0.639  -4.385  -2.288  0.00  0.00    -0.251 N 
ATOM     18  H   LIG    1       -0.758  -4.927  -3.083  0.00  0.00    +0.241 HD
ATOM     19  H   LIG    1       -0.981  -3.477  -2.264  0.00  0.00    +0.241 HD
ENDBRANCH   2  17
BRANCH   4  20
ATOM     20  N   LIG    1        1.959  -7.745  -0.331  0.00  0.00    -0.249 N 
ATOM     21  H   LIG    1        2.411  -8.132   0.435  0.00  0.00    +0.241 HD
ATOM     22  H   LIG    1        2.057  -8.148  -1.208  0.00  0.00    +0.241 HD
ENDBRANCH   4  20
TORSDOF 3
