REMARK  Name = ZINC14951170
REMARK                            x       y       z     vdW  Elec       q    Type
REMARK                         _______ _______ _______ _____ _____    ______ ____
ROOT
ATOM      1  C   LIG    1       -2.891  -1.708  -1.611  0.00  0.00    +0.125 C 
ATOM      2  N   LIG    1       -3.609  -2.147  -0.615  0.00  0.00    -0.382 N 
ATOM      3  H   LIG    1       -3.322  -1.986   0.298  0.00  0.00    +0.158 HD
ATOM      4  H   LIG    1       -4.430  -2.634  -0.787  0.00  0.00    +0.158 HD
ENDROOT
BRANCH   1   5
ATOM      5  N   LIG    1       -1.726  -1.017  -1.368  0.00  0.00    -0.321 N 
ATOM      6  H   LIG    1       -1.192  -0.691  -2.108  0.00  0.00    +0.148 HD
BRANCH   5   7
ATOM      7  C   LIG    1       -1.293  -0.775   0.011  0.00  0.00    +0.138 C 
BRANCH   7  14
ATOM      8  C   LIG    1       -0.017   1.378   0.010  0.00  0.00    +0.006 A 
ATOM      9  C   LIG    1        1.171   2.086   0.002  0.00  0.00    +0.020 A 
ATOM     10  C   LIG    1        2.378   1.410  -0.013  0.00  0.00    +0.041 A 
ATOM     11 CL   LIG    1        3.870   2.298  -0.023  0.00  0.00    -0.084 Cl
ATOM     12  C   LIG    1        2.396   0.027  -0.021  0.00  0.00    +0.020 A 
ATOM     13  C   LIG    1        1.208  -0.679  -0.013  0.00  0.00    +0.006 A 
ATOM     14  C   LIG    1        0.002  -0.004   0.002  0.00  0.00    -0.030 A 
ENDBRANCH   7  14
ENDBRANCH   5   7
ENDBRANCH   1   5
BRANCH   1  15
ATOM     15  S   LIG    1       -3.412  -1.999  -3.269  0.00  0.00    -0.093 S 
BRANCH  15  16
ATOM     16  C   LIG    1       -4.962  -2.924  -3.086  0.00  0.00    +0.077 C 
BRANCH  16  17
ATOM     17  C   LIG    1       -5.530  -3.247  -4.469  0.00  0.00    +0.017 C 
BRANCH  17  18
ATOM     18  C   LIG    1       -6.837  -4.027  -4.314  0.00  0.00    +0.058 C 
BRANCH  18  19
ATOM     19  C   LIG    1       -7.396  -4.344  -5.677  0.00  0.00    +0.059 A 
ATOM     20  C   LIG    1       -7.723  -5.569  -6.133  0.00  0.00    +0.107 A 
ATOM     21  N   LIG    1       -8.191  -5.405  -7.409  0.00  0.00    -0.351 N 
ATOM     22  C   LIG    1       -8.133  -4.085  -7.689  0.00  0.00    +0.196 A 
ATOM     23  H   LIG    1       -8.504  -6.106  -8.001  0.00  0.00    +0.166 HD
ATOM     24  N   LIG    1       -7.662  -3.456  -6.647  0.00  0.00    -0.241 NA
ENDBRANCH  18  19
ENDBRANCH  17  18
ENDBRANCH  16  17
ENDBRANCH  15  16
ENDBRANCH   1  15
TORSDOF 8
