REMARK  Name = ZINC21798594
REMARK                            x       y       z     vdW  Elec       q    Type
REMARK                         _______ _______ _______ _____ _____    ______ ____
ROOT
ATOM      1  C   UNK A  0       -3.010  -1.052  -1.289  0.00  0.00    +0.248 C 
ATOM      2  N   ASN A  1       -2.466   0.180  -1.237  0.00  0.00    -0.298 N 
ATOM      3  H   ASN A  1       -2.013   0.620  -2.138  0.00  0.00    +0.150 HD
ATOM      4  O   UNK A  0       -3.512  -1.537  -0.293  0.00  0.00    -0.270 OA
ENDROOT
BRANCH   1   9
ATOM      5  C   UNK A  0       -2.974  -3.238  -4.931  0.00  0.00    +0.003 A 
ATOM      6  C   UNK A  0       -4.038  -2.404  -4.640  0.00  0.00    +0.021 A 
ATOM      7  C   UNK A  0       -4.058  -1.690  -3.458  0.00  0.00    +0.054 A 
ATOM      8 CL   UNK A  0       -5.394  -0.643  -3.095  0.00  0.00    -0.083 Cl
ATOM      9  C   UNK A  0       -2.998  -1.812  -2.555  0.00  0.00    +0.073 A 
ATOM     10  C   UNK A  0       -1.924  -2.652  -2.859  0.00  0.00    +0.054 A 
ATOM     11 CL   UNK A  0       -0.598  -2.806  -1.749  0.00  0.00    -0.083 Cl
ATOM     12  C   UNK A  0       -1.922  -3.364  -4.042  0.00  0.00    +0.021 A 
ENDBRANCH   1   9
BRANCH   2  13
ATOM     13  CA  ASN A  1       -2.479   0.934   0.019  0.00  0.00    +0.191 C 
BRANCH  13  14
ATOM     14  C   ASN A  1       -3.790   1.665   0.153  0.00  0.00    +0.326 C 
ATOM     15  O   ASN A  1       -4.628   1.567  -0.712  0.00  0.00    -0.249 OA
BRANCH  14  16
ATOM     16  OXT ASN A  1       -4.027   2.426   1.233  0.00  0.00    -0.479 OA
ATOM     17  HXT ASN A  1       -3.377   2.503   1.904  0.00  0.00    +0.295 HD
ENDBRANCH  14  16
ENDBRANCH  13  14
BRANCH  13  18
ATOM     18  CB  ASN A  1       -1.330   1.944   0.019  0.00  0.00    +0.129 C 
BRANCH  18  19
ATOM     19  CG  ASN A  1       -0.014   1.209   0.009  0.00  0.00    +0.213 C 
ATOM     20  ND2 ASN A  1        1.143   1.898   0.001  0.00  0.00    -0.329 N 
ATOM     21 HD21 ASN A  1        1.129   2.998   0.003  0.00  0.00    +0.145 HD
ATOM     22 HD22 ASN A  1        2.103   1.361  -0.006  0.00  0.00    +0.145 HD
ATOM     23  OD1 ASN A  1        0.002  -0.004   0.002  0.00  0.00    -0.276 OA
ENDBRANCH  18  19
ENDBRANCH  13  18
ENDBRANCH   2  13
TORSDOF 6
