REMARK  Name = ZINC36294318
REMARK                            x       y       z     vdW  Elec       q    Type
REMARK                         _______ _______ _______ _____ _____    ______ ____
ROOT
ATOM      1  C   LIG    1        3.966  -1.103  -0.133  0.00  0.00    -0.015 A 
ATOM      2  C   LIG    1        5.039  -0.983  -1.015  0.00  0.00    +0.009 A 
ATOM      3  C   LIG    1        6.251  -1.565  -0.706  0.00  0.00    +0.001 A 
ATOM      4  C   LIG    1        6.404  -2.266   0.477  0.00  0.00    +0.000 A 
ATOM      5  C   LIG    1        5.343  -2.388   1.356  0.00  0.00    +0.004 A 
ATOM      6  C   LIG    1        4.127  -1.806   1.060  0.00  0.00    -0.039 A 
ENDROOT
BRANCH   1  10
ATOM      7  C   LIG    1        0.223   0.684  -1.069  0.00  0.00    +0.000 A 
ATOM      8  C   LIG    1        0.869   1.014   0.110  0.00  0.00    +0.001 A 
ATOM      9  C   LIG    1        2.084   0.436   0.419  0.00  0.00    +0.008 A 
ATOM     10  C   LIG    1        2.660  -0.480  -0.459  0.00  0.00    -0.018 A 
ATOM     11  C   LIG    1        2.006  -0.808  -1.645  0.00  0.00    +0.008 A 
ATOM     12  C   LIG    1        0.791  -0.224  -1.943  0.00  0.00    +0.001 A 
ENDBRANCH   1  10
BRANCH   6  13
ATOM     13  C   LIG    1        2.974  -1.935   2.021  0.00  0.00    +0.047 C 
BRANCH  13  14
ATOM     14  C   LIG    1        2.046  -3.059   1.556  0.00  0.00    +0.128 C 
BRANCH  14  15
ATOM     15  C   LIG    1        0.963  -3.272   2.582  0.00  0.00    +0.239 C 
ATOM     16  N   LIG    1        1.096  -4.109   3.584  0.00  0.00    -0.276 N 
ATOM     17  H   LIG    1        1.878  -4.656   3.758  0.00  0.00    +0.304 HD
ATOM     18  C   LIG    1       -0.128  -4.088   4.401  0.00  0.00    +0.276 C 
ATOM     19  C   LIG    1       -1.019  -3.061   3.673  0.00  0.00    +0.268 C 
ATOM     20  N   LIG    1       -0.181  -2.631   2.542  0.00  0.00    -0.237 N 
ATOM     21  H   LIG    1       -0.436  -1.977   1.872  0.00  0.00    +0.291 HD
ENDBRANCH  14  15
ENDBRANCH  13  14
ENDBRANCH   6  13
TORSDOF 4
