REMARK  Name = ZINC00057464
REMARK                            x       y       z     vdW  Elec       q    Type
REMARK                         _______ _______ _______ _____ _____    ______ ____
ROOT
ATOM      1  C   LIG    1       -1.371  -0.671  -0.120  0.00  0.00    +0.066 C 
ATOM      2  C   LIG    1       -2.017  -0.654  -1.354  0.00  0.00    +0.067 C 
ATOM      3  C   LIG    1       -3.396  -0.931  -1.387  0.00  0.00    +0.130 C 
ATOM      4  N   LIG    1       -4.025  -1.196  -0.248  0.00  0.00    -0.273 NA
ATOM      5  H   LIG    1       -4.437  -2.123  -0.352  0.00  0.00    +0.126 HD
ATOM      6  C   LIG    1       -3.368  -1.201   0.902  0.00  0.00    +0.193 C 
ATOM      7  N   LIG    1       -2.068  -0.950   0.969  0.00  0.00    -0.286 NA
ATOM      8  H   LIG    1       -1.622  -0.968   1.830  0.00  0.00    +0.125 HD
ENDROOT
BRANCH   2   9
ATOM      9  C   LIG    1       -1.272  -0.351  -2.600  0.00  0.00    -0.040 A 
ATOM     10  C   LIG    1       -0.774   0.931  -2.823  0.00  0.00    +0.005 A 
ATOM     11  C   LIG    1       -0.081   1.208  -3.983  0.00  0.00    +0.020 A 
ATOM     12  C   LIG    1        0.121   0.213  -4.926  0.00  0.00    +0.041 A 
ATOM     13 CL   LIG    1        0.994   0.568  -6.384  0.00  0.00    -0.084 Cl
ATOM     14  C   LIG    1       -0.371  -1.062  -4.709  0.00  0.00    +0.020 A 
ATOM     15  C   LIG    1       -1.061  -1.351  -3.549  0.00  0.00    +0.005 A 
ENDBRANCH   2   9
BRANCH   3  16
ATOM     16  N   LIG    1       -4.086  -0.926  -2.587  0.00  0.00    -0.315 NA
ATOM     17  H   LIG    1       -5.037  -1.117  -2.600  0.00  0.00    +0.120 HD
ATOM     18  H   LIG    1       -3.619  -0.730  -3.414  0.00  0.00    +0.120 HD
ENDBRANCH   3  16
BRANCH   6  19
ATOM     19  N   LIG    1       -4.058  -1.482   2.068  0.00  0.00    -0.303 NA
ATOM     20  H   LIG    1       -3.591  -1.490   2.918  0.00  0.00    +0.121 HD
ATOM     21  H   LIG    1       -5.009  -1.672   2.035  0.00  0.00    +0.121 HD
ENDBRANCH   6  19
BRANCH   1  23
ATOM     22  C   LIG    1        0.894  -1.669  -0.283  0.00  0.00    +0.005 C 
ATOM     23  C   LIG    1        0.106  -0.383  -0.028  0.00  0.00    +0.016 C 
ENDBRANCH   1  23
TORSDOF 4
