REMARK  Name = ZINC34008249
REMARK                            x       y       z     vdW  Elec       q    Type
REMARK                         _______ _______ _______ _____ _____    ______ ____
ROOT
ATOM      1  C   LIG    1        1.216  -4.079  -0.001  0.00  0.00    +0.075 A 
ATOM      2  N   LIG    1        0.113  -4.766  -0.126  0.00  0.00    -0.177 NA
ATOM      3  N   LIG    1        0.421  -6.130  -0.142  0.00  0.00    -0.276 N 
ATOM      4  H   LIG    1       -0.215  -6.857  -0.228  0.00  0.00    +0.189 HD
ATOM      5  C   LIG    1        1.769  -6.262  -0.011  0.00  0.00    +0.075 A 
ATOM      6  C   LIG    1        2.295  -4.978   0.081  0.00  0.00    +0.049 A 
ENDROOT
BRANCH   1  12
ATOM      7  C   LIG    1       -0.059   1.457   0.032  0.00  0.00    -0.096 C 
ATOM      8  N   LIG    1       -0.029  -0.011  -0.009  0.00  0.00    +0.378 N 
ATOM      9  H   LIG    1       -0.968  -0.363  -0.117  0.00  0.00    -0.082 HD
ATOM     10  C   LIG    1        0.790  -0.451  -1.145  0.00  0.00    -0.079 C 
ATOM     11  C   LIG    1        0.758  -1.978  -1.240  0.00  0.00    -0.009 C 
ATOM     12  C   LIG    1        1.316  -2.576   0.055  0.00  0.00    +0.037 C 
ATOM     13  C   LIG    1        0.501  -2.052   1.240  0.00  0.00    -0.009 C 
ATOM     14  C   LIG    1        0.541  -0.522   1.244  0.00  0.00    -0.079 C 
ENDBRANCH   1  12
BRANCH   5  15
ATOM     15  C   LIG    1        2.530  -7.528   0.027  0.00  0.00    +0.001 A 
ATOM     16  C   LIG    1        3.682  -7.677  -0.747  0.00  0.00    +0.011 A 
ATOM     17  C   LIG    1        4.388  -8.861  -0.707  0.00  0.00    +0.020 A 
ATOM     18  C   LIG    1        3.956  -9.901   0.099  0.00  0.00    +0.041 A 
ATOM     19 CL   LIG    1        4.849 -11.389   0.144  0.00  0.00    -0.084 Cl
ATOM     20  C   LIG    1        2.814  -9.759   0.869  0.00  0.00    +0.020 A 
ATOM     21  C   LIG    1        2.102  -8.578   0.842  0.00  0.00    +0.011 A 
ENDBRANCH   5  15
BRANCH   6  22
ATOM     22  C   LIG    1        3.724  -4.624   0.235  0.00  0.00    +0.078 A 
ATOM     23  C   LIG    1        4.519  -5.270   1.188  0.00  0.00    +0.048 A 
ATOM     24  C   LIG    1        5.847  -4.902   1.292  0.00  0.00    +0.114 A 
ATOM     25  N   LIG    1        6.320  -3.957   0.491  0.00  0.00    -0.244 NA
ATOM     26  C   LIG    1        5.546  -3.367  -0.397  0.00  0.00    +0.221 A 
ATOM     27  N   LIG    1        4.277  -3.688  -0.536  0.00  0.00    -0.235 NA
ENDBRANCH   6  22
TORSDOF 3
