REMARK  Name = ZINC40413478
REMARK                            x       y       z     vdW  Elec       q    Type
REMARK                         _______ _______ _______ _____ _____    ______ ____
ROOT
ATOM      1  C   LIG    1       -1.258  -0.758   0.010  0.00  0.00    +0.028 C 
ATOM      2  C   LIG    1       -1.240  -2.111  -0.100  0.00  0.00    +0.080 C 
ATOM      3  C   LIG    1       -2.364  -3.060  -0.221  0.00  0.00    +0.261 C 
ATOM      4  N   LIG    1       -2.050  -4.341  -0.313  0.00  0.00    -0.219 N 
ATOM      5  C   LIG    1       -0.767  -4.756  -0.297  0.00  0.00    +0.286 C 
ATOM      6  O   LIG    1       -0.339  -5.891  -0.374  0.00  0.00    -0.262 OA
ATOM      7  O   LIG    1       -3.521  -2.683  -0.235  0.00  0.00    -0.269 OA
ATOM      8  S   LIG    1        0.152  -3.232  -0.146  0.00  0.00    -0.026 S 
ENDROOT
BRANCH   1  14
ATOM      9  C   LIG    1        1.190  -0.643  -0.411  0.00  0.00    +0.011 A 
ATOM     10  C   LIG    1        2.364   0.073  -0.473  0.00  0.00    +0.046 A 
ATOM     11  C   LIG    1        2.367   1.433  -0.186  0.00  0.00    +0.117 A 
ATOM     12  C   LIG    1        1.186   2.078   0.166  0.00  0.00    +0.046 A 
ATOM     13  C   LIG    1        0.007   1.371   0.231  0.00  0.00    +0.011 A 
ATOM     14  C   LIG    1       -0.003   0.001  -0.058  0.00  0.00    -0.024 A 
BRANCH  11  15
ATOM     15  O   LIG    1        3.528   2.135  -0.248  0.00  0.00    -0.507 OA
ATOM     16  H   LIG    1        3.709   2.518  -1.117  0.00  0.00    +0.292 HD
ENDBRANCH  11  15
ENDBRANCH   1  14
BRANCH   4  17
ATOM     17  C   LIG    1       -3.121  -5.334  -0.436  0.00  0.00    +0.213 C 
BRANCH  17  18
ATOM     18  C   LIG    1       -3.434  -5.558  -1.893  0.00  0.00    +0.228 C 
ATOM     19  N   LIG    1       -4.393  -6.436  -2.248  0.00  0.00    -0.328 N 
ATOM     20  H   LIG    1       -4.594  -6.580  -3.186  0.00  0.00    +0.145 HD
ATOM     21  H   LIG    1       -4.882  -6.923  -1.567  0.00  0.00    +0.145 HD
ATOM     22  O   LIG    1       -2.823  -4.949  -2.745  0.00  0.00    -0.274 OA
ENDBRANCH  17  18
ENDBRANCH   4  17
TORSDOF 4
