REMARK  Name = ZINC26495007
REMARK                            x       y       z     vdW  Elec       q    Type
REMARK                         _______ _______ _______ _____ _____    ______ ____
ROOT
ATOM      1  C   LIG    1       -0.090   4.119  -0.716  0.00  0.00    +0.047 C 
ATOM      2  C   LIG    1        1.194   3.420  -0.350  0.00  0.00    -0.007 A 
ATOM      3  C   LIG    1        2.385   4.118  -0.367  0.00  0.00    +0.027 A 
ATOM      4  C   LIG    1        3.565   3.478  -0.031  0.00  0.00    +0.042 A 
ATOM      5 CL   LIG    1        5.064   4.353  -0.049  0.00  0.00    -0.084 Cl
ATOM      6  C   LIG    1        3.549   2.140   0.318  0.00  0.00    +0.028 A 
ATOM      7  C   LIG    1        2.357   1.436   0.334  0.00  0.00    +0.010 A 
ATOM      8  C   LIG    1        2.381  -0.022   0.716  0.00  0.00    +0.134 C 
ATOM      9  C   LIG    1        0.970  -0.480   1.093  0.00  0.00    +0.060 C 
ATOM     10  C   LIG    1        0.002  -0.004   0.002  0.00  0.00    +0.230 C 
ATOM     11  O   LIG    1       -0.017   1.424   0.010  0.00  0.00    -0.491 OA
ATOM     12  C   LIG    1        1.175   2.075   0.002  0.00  0.00    +0.127 A 
ENDROOT
BRANCH   8  13
ATOM     13  C   LIG    1        3.303  -0.218   1.892  0.00  0.00    +0.312 C 
ATOM     14  O   LIG    1        3.877   0.730   2.374  0.00  0.00    -0.250 OA
BRANCH  13  15
ATOM     15  O   LIG    1        3.486  -1.444   2.405  0.00  0.00    -0.480 OA
ATOM     16  H   LIG    1        3.040  -2.179   2.032  0.00  0.00    +0.295 HD
ENDBRANCH  13  15
ENDBRANCH   8  13
TORSDOF 2
