REMARK  Name = ZINC14946544
REMARK                            x       y       z     vdW  Elec       q    Type
REMARK                         _______ _______ _______ _____ _____    ______ ____
ROOT
ATOM      1  N   LIG    1       -7.007   2.588   1.508  0.00  0.00    -0.281 N 
ATOM      2  H   LIG    1       -7.740   1.955   1.555  0.00  0.00    +0.155 HD
ATOM      3  C   LIG    1       -5.746   2.147   1.329  0.00  0.00    +0.257 C 
ATOM      4  O   LIG    1       -4.839   2.944   1.174  0.00  0.00    -0.269 OA
ENDROOT
BRANCH   1   8
ATOM      5  C   LIG    1       -7.756   6.670   1.866  0.00  0.00    -0.042 A 
ATOM      6  C   LIG    1       -8.689   5.848   1.260  0.00  0.00    +0.006 A 
ATOM      7  C   LIG    1       -8.444   4.494   1.140  0.00  0.00    +0.023 A 
ATOM      8  C   LIG    1       -7.258   3.958   1.628  0.00  0.00    +0.034 A 
ATOM      9  C   LIG    1       -6.326   4.786   2.240  0.00  0.00    +0.023 A 
ATOM     10  C   LIG    1       -6.575   6.140   2.352  0.00  0.00    +0.006 A 
BRANCH   5  12
ATOM     11  C   LIG    1       -9.300   8.361   2.817  0.00  0.00    +0.015 C 
ATOM     12  C   LIG    1       -8.028   8.147   1.995  0.00  0.00    -0.013 C 
ATOM     13  C   LIG    1       -8.211   8.756   0.604  0.00  0.00    +0.015 C 
ATOM     14  C   LIG    1       -6.848   8.822   2.696  0.00  0.00    +0.015 C 
ENDBRANCH   5  12
ENDBRANCH   1   8
BRANCH   3  15
ATOM     15  C   LIG    1       -5.467   0.708   1.319  0.00  0.00    +0.097 A 
ATOM     16  C   LIG    1       -4.271   0.044   1.154  0.00  0.00    +0.061 A 
ATOM     17  N   LIG    1       -4.286  -1.264   1.191  0.00  0.00    -0.252 NA
ATOM     18  C   LIG    1       -5.402  -1.939   1.375  0.00  0.00    +0.156 A 
ATOM     19  S   LIG    1       -6.583  -0.674   1.516  0.00  0.00    -0.071 S 
BRANCH  16  20
ATOM     20  C   LIG    1       -2.985   0.800   0.944  0.00  0.00    +0.061 C 
BRANCH  20  21
ATOM     21  C   LIG    1       -2.761   1.019  -0.554  0.00  0.00    +0.041 C 
BRANCH  21  22
ATOM     22  C   LIG    1       -1.475   1.776  -0.764  0.00  0.00    -0.044 A 
ATOM     23  C   LIG    1       -0.274   1.103  -0.924  0.00  0.00    +0.023 A 
ATOM     24  C   LIG    1        0.885   1.830  -1.120  0.00  0.00    +0.111 A 
ATOM     25  N   LIG    1        0.857   3.148  -1.151  0.00  0.00    -0.263 NA
ATOM     26  C   LIG    1       -0.267   3.822  -0.997  0.00  0.00    +0.111 A 
ATOM     27  C   LIG    1       -1.465   3.162  -0.797  0.00  0.00    +0.023 A 
ENDBRANCH  21  22
ENDBRANCH  20  21
ENDBRANCH  16  20
ENDBRANCH   3  15
TORSDOF 6
