REMARK  Name = ZINC13781234
REMARK                            x       y       z     vdW  Elec       q    Type
REMARK                         _______ _______ _______ _____ _____    ______ ____
ROOT
ATOM      1  C   LIG    1       -1.543   3.366   2.675  0.00  0.00    +0.078 C 
ATOM      2  C   LIG    1       -1.056   4.777   3.027  0.00  0.00    +0.027 C 
ATOM      3  C   LIG    1       -1.600   5.145   4.406  0.00  0.00    +0.037 C 
ATOM      4  C   LIG    1       -3.087   4.911   4.467  0.00  0.00    -0.044 A 
ATOM      5  C   LIG    1       -3.797   5.531   5.488  0.00  0.00    +0.004 A 
ATOM      6  C   LIG    1       -5.160   5.352   5.602  0.00  0.00    +0.000 A 
ATOM      7  C   LIG    1       -5.826   4.550   4.693  0.00  0.00    +0.000 A 
ATOM      8  C   LIG    1       -5.123   3.935   3.678  0.00  0.00    +0.004 A 
ATOM      9  C   LIG    1       -3.751   4.116   3.561  0.00  0.00    -0.042 A 
ATOM     10  C   LIG    1       -3.048   3.426   2.421  0.00  0.00    +0.057 C 
ENDROOT
BRANCH   1  13
ATOM     11  C   LIG    1       -0.013   1.086   0.008  0.00  0.00    +0.109 C 
ATOM     12  C   LIG    1       -0.718   1.572   1.248  0.00  0.00    +0.210 C 
ATOM     13  N   LIG    1       -0.857   2.894   1.470  0.00  0.00    -0.312 N 
ATOM     14  H   LIG    1       -0.503   3.533   0.831  0.00  0.00    +0.149 HD
ATOM     15  O   LIG    1       -1.161   0.773   2.046  0.00  0.00    -0.276 OA
ENDBRANCH   1  13
TORSDOF 1
