REMARK  Name = ZINC13782884
REMARK                            x       y       z     vdW  Elec       q    Type
REMARK                         _______ _______ _______ _____ _____    ______ ____
ROOT
ATOM      1  C   LIG    1        2.949   3.188   3.688  0.00  0.00    -0.044 A 
ATOM      2  C   LIG    1        3.280   2.381   4.768  0.00  0.00    +0.006 A 
ATOM      3  C   LIG    1        2.558   1.240   5.040  0.00  0.00    +0.026 A 
ATOM      4  C   LIG    1        1.485   0.891   4.226  0.00  0.00    +0.047 A 
ATOM      5  C   LIG    1        1.158   1.708   3.129  0.00  0.00    +0.003 A 
ATOM      6  C   LIG    1        0.000   1.080   2.488  0.00  0.00    -0.024 A 
ATOM      7  C   LIG    1       -0.285  -0.028   3.191  0.00  0.00    +0.087 A 
ATOM      8  N   LIG    1        0.592  -0.157   4.233  0.00  0.00    -0.360 N 
ATOM      9  H   LIG    1        0.586  -0.880   4.880  0.00  0.00    +0.165 HD
ATOM     10  C   LIG    1        1.900   2.863   2.875  0.00  0.00    +0.014 A 
ENDROOT
BRANCH   1  12
ATOM     11  C   LIG    1        3.676   5.370   4.614  0.00  0.00    +0.012 C 
ATOM     12  C   LIG    1        3.754   4.431   3.409  0.00  0.00    +0.013 C 
ATOM     13  C   LIG    1        5.213   4.048   3.155  0.00  0.00    +0.012 C 
ENDBRANCH   1  12
BRANCH   6  14
ATOM     14  C   LIG    1       -0.729   1.579   1.267  0.00  0.00    +0.018 C 
BRANCH  14  15
ATOM     15  C   LIG    1       -0.013   1.086   0.008  0.00  0.00    -0.082 C 
BRANCH  15  16
ATOM     16  N   LIG    1       -0.746   1.561  -1.179  0.00  0.00    +0.378 N 
ATOM     17  H   LIG    1       -1.694   1.168  -1.169  0.00  0.00    -0.090 HD
ATOM     18  H   LIG    1       -0.269   1.260  -2.027  0.00  0.00    -0.090 HD
ATOM     19  H   LIG    1       -0.807   2.578  -1.167  0.00  0.00    -0.090 HD
ENDBRANCH  15  16
ENDBRANCH  14  15
ENDBRANCH   6  14
TORSDOF 4
