REMARK  Name = ZINC34271593
REMARK                            x       y       z     vdW  Elec       q    Type
REMARK                         _______ _______ _______ _____ _____    ______ ____
ROOT
ATOM      1  N   LIG    1       -4.792  -2.753  -2.806  0.00  0.00    -0.277 N 
ATOM      2  H   LIG    1       -5.212  -3.011  -1.970  0.00  0.00    +0.258 HD
ENDROOT
BRANCH   1   3
ATOM      3  C   LIG    1       -5.354  -3.121  -3.993  0.00  0.00    +0.377 C 
ATOM      4  N   LIG    1       -6.415  -3.912  -4.006  0.00  0.00    +0.002 NA
BRANCH   3   5
ATOM      5  N   LIG    1       -4.822  -2.674  -5.167  0.00  0.00    -0.291 N 
ATOM      6  H   LIG    1       -5.222  -2.936  -6.011  0.00  0.00    +0.254 HD
ATOM      7  H   LIG    1       -4.044  -2.095  -5.157  0.00  0.00    +0.254 HD
ENDBRANCH   3   5
BRANCH   4   8
ATOM      8  C   LIG    1       -7.004  -4.263  -2.853  0.00  0.00    +0.362 C 
ATOM      9  O   LIG    1       -7.428  -3.404  -2.100  0.00  0.00    -0.247 OA
BRANCH   8  10
ATOM     10  C   LIG    1       -7.139  -5.690  -2.497  0.00  0.00    +0.186 A 
ATOM     11  C   LIG    1       -7.646  -6.056  -1.241  0.00  0.00    +0.151 A 
ATOM     12  N   LIG    1       -7.765  -7.340  -0.926  0.00  0.00    -0.213 NA
ATOM     13  C   LIG    1       -7.405  -8.272  -1.800  0.00  0.00    +0.156 A 
ATOM     14  C   LIG    1       -6.900  -7.903  -3.051  0.00  0.00    +0.170 A 
ATOM     15 CL   LIG    1       -6.430  -9.127  -4.190  0.00  0.00    -0.058 Cl
ATOM     16  N   LIG    1       -6.785  -6.632  -3.370  0.00  0.00    -0.222 NA
BRANCH  13  17
ATOM     17  N   LIG    1       -7.530  -9.612  -1.472  0.00  0.00    -0.341 N 
ATOM     18  H   LIG    1       -7.267 -10.293  -2.110  0.00  0.00    +0.144 HD
ATOM     19  H   LIG    1       -7.880  -9.868  -0.604  0.00  0.00    +0.144 HD
ENDBRANCH  13  17
BRANCH  11  20
ATOM     20  N   LIG    1       -8.020  -5.082  -0.332  0.00  0.00    -0.341 N 
ATOM     21  H   LIG    1       -8.294  -5.333   0.563  0.00  0.00    +0.144 HD
ATOM     22  H   LIG    1       -8.007  -4.147  -0.591  0.00  0.00    +0.144 HD
ENDBRANCH  11  20
ENDBRANCH   8  10
ENDBRANCH   4   8
ENDBRANCH   1   3
BRANCH   1  23
ATOM     23  C   LIG    1       -3.555  -1.968  -2.793  0.00  0.00    +0.195 C 
BRANCH  23  24
ATOM     24  C   LIG    1       -3.142  -1.692  -1.346  0.00  0.00    +0.037 C 
BRANCH  24  25
ATOM     25  C   LIG    1       -1.850  -0.872  -1.333  0.00  0.00    +0.008 C 
BRANCH  25  26
ATOM     26  C   LIG    1       -1.436  -0.596   0.114  0.00  0.00    +0.035 C 
BRANCH  26  32
ATOM     27  C   LIG    1       -0.223   1.593   0.124  0.00  0.00    +0.007 A 
ATOM     28  C   LIG    1        0.942   2.336   0.137  0.00  0.00    +0.046 A 
ATOM     29  C   LIG    1        2.172   1.694   0.153  0.00  0.00    +0.121 A 
ATOM     30  C   LIG    1        2.228   0.308   0.157  0.00  0.00    +0.046 A 
ATOM     31  C   LIG    1        1.060  -0.430   0.144  0.00  0.00    +0.007 A 
ATOM     32  C   LIG    1       -0.164   0.212   0.128  0.00  0.00    -0.047 A 
BRANCH  29  33
ATOM     33  O   LIG    1        3.319   2.422   0.165  0.00  0.00    -0.489 OA
BRANCH  33  34
ATOM     34  C   LIG    1        4.549   1.695   0.182  0.00  0.00    +0.262 C 
BRANCH  34  35
ATOM     35  C   LIG    1        5.722   2.676   0.193  0.00  0.00    +0.177 C 
BRANCH  35  36
ATOM     36  O   LIG    1        5.737   3.416  -1.030  0.00  0.00    -0.386 OA
ATOM     37  H   LIG    1        5.832   2.867  -1.820  0.00  0.00    +0.210 HD
ENDBRANCH  35  36
BRANCH  35  38
ATOM     38  C   LIG    1        7.034   1.902   0.337  0.00  0.00    +0.190 C 
BRANCH  38  39
ATOM     39  O   LIG    1        8.119   2.823   0.465  0.00  0.00    -0.392 OA
ATOM     40  H   LIG    1        8.984   2.401   0.560  0.00  0.00    +0.210 HD
ENDBRANCH  38  39
ENDBRANCH  35  38
ENDBRANCH  34  35
ENDBRANCH  33  34
ENDBRANCH  29  33
ENDBRANCH  26  32
ENDBRANCH  25  26
ENDBRANCH  24  25
ENDBRANCH  23  24
ENDBRANCH   1  23
TORSDOF 17
