REMARK  Name = ZINC14951858
REMARK                            x       y       z     vdW  Elec       q    Type
REMARK                         _______ _______ _______ _____ _____    ______ ____
ROOT
ATOM      1  C   LIG    1       -0.850   1.459  -0.073  0.00  0.00    +0.070 C 
ATOM      2  C   LIG    1       -0.400   0.023   0.014  0.00  0.00    +0.094 C 
ATOM      3  N   LIG    1       -0.232  -0.538   1.179  0.00  0.00    -0.115 NA
ENDROOT
BRANCH   2   4
ATOM      4  C   LIG    1       -0.161  -0.716  -1.168  0.00  0.00    +0.174 C 
ATOM      5  N   LIG    1       -0.155  -0.111  -2.329  0.00  0.00    -0.118 NA
BRANCH   5   6
ATOM      6  N   LIG    1        0.032   1.164  -2.390  0.00  0.00    -0.158 N 
ATOM      7  H   LIG    1        0.252   1.661  -1.587  0.00  0.00    +0.292 HD
ATOM      8  C   LIG    1       -0.077   1.791  -3.546  0.00  0.00    +0.365 C 
BRANCH   8   9
ATOM      9  N   LIG    1        0.223   3.127  -3.632  0.00  0.00    -0.290 N 
ATOM     10  H   LIG    1        0.074   3.605  -4.462  0.00  0.00    +0.255 HD
ATOM     11  H   LIG    1        0.585   3.593  -2.862  0.00  0.00    +0.255 HD
ENDBRANCH   8   9
BRANCH   8  12
ATOM     12  N   LIG    1       -0.491   1.108  -4.660  0.00  0.00    -0.290 N 
ATOM     13  H   LIG    1       -0.572   1.570  -5.510  0.00  0.00    +0.255 HD
ATOM     14  H   LIG    1       -0.704   0.164  -4.599  0.00  0.00    +0.255 HD
ENDBRANCH   8  12
ENDBRANCH   5   6
ENDBRANCH   2   4
BRANCH   3  15
ATOM     15  N   LIG    1        0.298  -1.832   1.263  0.00  0.00    -0.155 N 
ATOM     16  H   LIG    1        0.474  -2.338   0.455  0.00  0.00    +0.292 HD
BRANCH  15  17
ATOM     17  C   LIG    1        0.570  -2.385   2.494  0.00  0.00    +0.400 C 
ATOM     18  N   LIG    1        0.242  -1.747   3.582  0.00  0.00    -0.128 NA
ATOM     19  H   LIG    1        0.434  -2.137   4.449  0.00  0.00    +0.306 HD
BRANCH  17  20
ATOM     20  N   LIG    1        1.186  -3.613   2.575  0.00  0.00    -0.288 N 
ATOM     21  H   LIG    1        1.312  -4.036   3.438  0.00  0.00    +0.255 HD
ATOM     22  H   LIG    1        1.495  -4.055   1.768  0.00  0.00    +0.255 HD
ENDBRANCH  17  20
ENDBRANCH  15  17
ENDBRANCH   3  15
TORSDOF 7
