REMARK  Name = ZINC26188606
REMARK                            x       y       z     vdW  Elec       q    Type
REMARK                         _______ _______ _______ _____ _____    ______ ____
ROOT
ATOM      1  C   LIG    1       -0.550   1.006  -0.520  0.00  0.00    +0.185 C 
ATOM      2  C   LIG    1        0.726   1.740  -0.926  0.00  0.00    +0.052 C 
ATOM      3  C   LIG    1        1.391   0.999  -2.068  0.00  0.00    +0.012 C 
ATOM      4  C   LIG    1        2.665   1.729  -2.498  0.00  0.00    +0.012 C 
ATOM      5  C   LIG    1        1.733  -0.388  -1.589  0.00  0.00    -0.020 C 
ATOM      6  C   LIG    1        0.985  -1.002  -0.692  0.00  0.00    -0.044 C 
ATOM      7  C   LIG    1        1.420  -2.317  -0.166  0.00  0.00    -0.000 C 
ATOM      8  C   LIG    1        0.883  -2.790   0.945  0.00  0.00    -0.023 C 
ATOM      9  C   LIG    1       -0.179  -2.084   1.732  0.00  0.00    +0.012 C 
ATOM     10  C   LIG    1       -1.538  -2.709   1.410  0.00  0.00    +0.012 C 
ATOM     11  C   LIG    1       -0.201  -0.586   1.403  0.00  0.00    +0.007 C 
ATOM     12  C   LIG    1       -0.275  -0.424  -0.117  0.00  0.00    +0.063 C 
ENDROOT
BRANCH   1  13
ATOM     13  O   LIG    1       -1.159   1.702   0.599  0.00  0.00    -0.461 OA
BRANCH  13  14
ATOM     14  C   LIG    1       -2.007   2.701   0.307  0.00  0.00    +0.310 C 
ATOM     15  O   LIG    1       -2.233   2.983  -0.846  0.00  0.00    -0.251 OA
BRANCH  14  16
ATOM     16  C   LIG    1       -2.678   3.469   1.416  0.00  0.00    +0.094 C 
ATOM     17  C   LIG    1       -1.613   4.133   2.292  0.00  0.00    +0.019 C 
BRANCH  16  19
ATOM     18  C   LIG    1       -4.361   5.241   1.935  0.00  0.00    +0.004 C 
ATOM     19  C   LIG    1       -3.586   4.544   0.815  0.00  0.00    +0.011 C 
ENDBRANCH  16  19
ENDBRANCH  14  16
ENDBRANCH  13  14
ENDBRANCH   1  13
BRANCH  11  20
ATOM     20  C   LIG    1       -1.438   0.045   2.046  0.00  0.00    +0.007 C 
BRANCH  20  21
ATOM     21  C   LIG    1       -1.638  -0.539   3.446  0.00  0.00    +0.032 C 
BRANCH  21  22
ATOM     22  C   LIG    1       -2.874   0.092   4.090  0.00  0.00    +0.117 C 
BRANCH  22  23
ATOM     23  O   LIG    1       -2.646   1.488   4.292  0.00  0.00    -0.392 OA
ATOM     24  H   LIG    1       -3.428   2.114   4.747  0.00  0.00    +0.210 HD
ENDBRANCH  22  23
BRANCH  22  25
ATOM     25  C   LIG    1       -3.147  -0.580   5.437  0.00  0.00    +0.063 C 
BRANCH  25  26
ATOM     26  C   LIG    1       -4.452  -0.036   6.022  0.00  0.00    +0.128 C 
BRANCH  26  27
ATOM     27  O   LIG    1       -5.545  -0.414   5.183  0.00  0.00    -0.391 OA
ATOM     28  H   LIG    1       -6.570  -0.112   5.444  0.00  0.00    +0.210 HD
ENDBRANCH  26  27
BRANCH  26  29
ATOM     29  C   LIG    1       -4.662  -0.614   7.424  0.00  0.00    +0.151 C 
BRANCH  29  30
ATOM     30  C   LIG    1       -5.881   0.014   8.049  0.00  0.00    +0.307 C 
ATOM     31  O   LIG    1       -6.517   0.839   7.437  0.00  0.00    -0.251 OA
BRANCH  30  32
ATOM     32  O   LIG    1       -6.260  -0.344   9.286  0.00  0.00    -0.481 OA
ATOM     33  H   LIG    1       -5.767  -0.984   9.760  0.00  0.00    +0.295 HD
ENDBRANCH  30  32
ENDBRANCH  29  30
ENDBRANCH  26  29
ENDBRANCH  25  26
ENDBRANCH  22  25
ENDBRANCH  21  22
ENDBRANCH  20  21
ENDBRANCH  11  20
TORSDOF 14
