REMARK  Name = ZINC14976362
REMARK                            x       y       z     vdW  Elec       q    Type
REMARK                         _______ _______ _______ _____ _____    ______ ____
ROOT
ATOM      1  C   LIG    1        4.462  -1.207   1.127  0.00  0.00    +0.119 A 
ATOM      2  C   LIG    1        3.688  -0.774  -0.037  0.00  0.00    +0.033 A 
ATOM      3  C   LIG    1        4.388  -1.173  -1.143  0.00  0.00    +0.048 A 
ATOM      4  N   LIG    1        5.503  -1.802  -0.733  0.00  0.00    -0.267 N 
ATOM      5  C   LIG    1        6.307  -2.251  -1.885  0.00  0.00    +0.144 C 
ATOM      6  C   LIG    1        5.352  -2.214  -3.097  0.00  0.00    +0.029 C 
ATOM      7  C   LIG    1        4.328  -1.143  -2.657  0.00  0.00    +0.057 C 
ATOM      8  N   LIG    1        5.530  -1.819   0.672  0.00  0.00    -0.169 NA
ENDROOT
BRANCH   2   9
ATOM      9  C   LIG    1        2.403  -0.043  -0.021  0.00  0.00    -0.003 A 
ATOM     10  C   LIG    1        1.190  -0.722  -0.013  0.00  0.00    +0.029 A 
ATOM     11  C   LIG    1        0.002  -0.004   0.002  0.00  0.00    +0.112 A 
ATOM     12  N   LIG    1       -0.016   1.309   0.009  0.00  0.00    -0.255 NA
ATOM     13  C   LIG    1        1.109   2.030   0.002  0.00  0.00    +0.072 A 
ATOM     14  C   LIG    1        1.062   3.437   0.011  0.00  0.00    +0.029 A 
ATOM     15  C   LIG    1        2.212   4.157   0.004  0.00  0.00    +0.017 A 
ATOM     16  C   LIG    1        3.465   3.517  -0.011  0.00  0.00    +0.060 A 
ATOM     17  C   LIG    1        3.543   2.131  -0.020  0.00  0.00    +0.025 A 
ATOM     18  C   LIG    1        2.367   1.377  -0.013  0.00  0.00    +0.009 A 
BRANCH  16  19
ATOM     19  C   LIG    1        4.701   4.322  -0.018  0.00  0.00    +0.339 C 
ATOM     20  O   LIG    1        5.784   3.772  -0.030  0.00  0.00    -0.245 OA
BRANCH  19  21
ATOM     21  O   LIG    1        4.629   5.668  -0.009  0.00  0.00    -0.464 OA
ATOM     22  C   LIG    1        5.885   6.396  -0.016  0.00  0.00    +0.280 C 
ENDBRANCH  19  21
ENDBRANCH  16  19
ENDBRANCH   2   9
BRANCH   1  28
ATOM     23  C   LIG    1        2.074   1.398   4.473  0.00  0.00    +0.065 C 
ATOM     24  C   LIG    1        2.975   0.236   4.142  0.00  0.00    +0.039 A 
ATOM     25  C   LIG    1        3.433  -0.583   5.157  0.00  0.00    +0.023 A 
ATOM     26  C   LIG    1        4.262  -1.652   4.848  0.00  0.00    +0.004 A 
ATOM     27  C   LIG    1        4.603  -1.861   3.523  0.00  0.00    +0.030 A 
ATOM     28  C   LIG    1        4.105  -0.996   2.550  0.00  0.00    +0.092 A 
ATOM     29  N   LIG    1        3.319   0.018   2.889  0.00  0.00    -0.250 NA
ENDBRANCH   1  28
TORSDOF 4
