REMARK  Name = ZINC13816309
REMARK                            x       y       z     vdW  Elec       q    Type
REMARK                         _______ _______ _______ _____ _____    ______ ____
ROOT
ATOM      1  C   LIG    1       -0.043   1.470  -0.456  0.00  0.00    +0.063 C 
ATOM      2  C   LIG    1       -0.018  -0.032  -0.333  0.00  0.00    +0.015 A 
ATOM      3  C   LIG    1       -1.189  -0.694  -0.222  0.00  0.00    +0.044 A 
ATOM      4  C   LIG    1       -1.199  -2.103  -0.105  0.00  0.00    +0.045 A 
ATOM      5  N   LIG    1       -2.346  -2.778   0.006  0.00  0.00    -0.269 N 
ATOM      6  H   LIG    1       -2.340  -3.748   0.010  0.00  0.00    +0.156 HD
ATOM      7  C   LIG    1       -3.502  -2.118   0.113  0.00  0.00    +0.308 C 
ATOM      8  N   LIG    1       -3.833  -1.520   1.275  0.00  0.00    -0.266 N 
ATOM      9  H   LIG    1       -3.198  -1.502   2.009  0.00  0.00    +0.156 HD
ATOM     10  O   LIG    1       -4.259  -2.055  -0.841  0.00  0.00    -0.252 OA
ATOM     11  C   LIG    1        0.097  -2.801  -0.111  0.00  0.00    +0.020 A 
ATOM     12  C   LIG    1        0.177  -4.190  -0.001  0.00  0.00    +0.012 A 
ATOM     13  C   LIG    1        1.400  -4.800  -0.011  0.00  0.00    +0.001 A 
ATOM     14  C   LIG    1        2.562  -4.049  -0.129  0.00  0.00    +0.002 A 
ATOM     15  C   LIG    1        2.506  -2.677  -0.238  0.00  0.00    +0.026 A 
ATOM     16  C   LIG    1        1.271  -2.035  -0.231  0.00  0.00    +0.048 A 
ATOM     17  N   LIG    1        1.179  -0.666  -0.345  0.00  0.00    -0.358 N 
ATOM     18  H   LIG    1        1.991  -0.143  -0.431  0.00  0.00    +0.166 HD
ENDROOT
BRANCH   8  19
ATOM     19  C   LIG    1       -5.092  -0.926   1.425  0.00  0.00    +0.078 A 
ATOM     20  C   LIG    1       -6.159  -1.353   0.647  0.00  0.00    +0.047 A 
ATOM     21  C   LIG    1       -7.402  -0.765   0.797  0.00  0.00    +0.043 A 
ATOM     22 CL   LIG    1       -8.736  -1.300  -0.177  0.00  0.00    -0.083 Cl
ATOM     23  C   LIG    1       -7.584   0.249   1.720  0.00  0.00    +0.024 A 
ATOM     24  C   LIG    1       -6.525   0.679   2.498  0.00  0.00    +0.049 A 
ATOM     25  C   LIG    1       -5.279   0.091   2.358  0.00  0.00    +0.141 A 
BRANCH  25  26
ATOM     26  O   LIG    1       -4.237   0.509   3.126  0.00  0.00    -0.493 OA
ATOM     27  C   LIG    1       -4.502   1.556   4.062  0.00  0.00    +0.277 C 
ENDBRANCH  25  26
ENDBRANCH   8  19
TORSDOF 2
