REMARK  Name = ZINC28570581
REMARK                            x       y       z     vdW  Elec       q    Type
REMARK                         _______ _______ _______ _____ _____    ______ ____
ROOT
ATOM      1  C   UNK    1       -0.105   7.769  -1.492  0.00  0.00    +0.068 C 
ENDROOT
BRANCH   1   2
ATOM      2  S   UNK    1       -0.088   5.965  -1.675  0.00  0.00    -0.156 S 
BRANCH   2   3
ATOM      3  C   UNK    1       -0.065   5.351   0.032  0.00  0.00    +0.104 C 
BRANCH   3   8
ATOM      4  C   UNK    1       -1.223   1.754   0.017  0.00  0.00    +0.120 A 
ATOM      5  C   UNK    1       -0.013   1.076   0.008  0.00  0.00    +0.045 A 
ATOM      6  C   UNK    1        1.174   1.783   0.000  0.00  0.00    +0.004 A 
ATOM      7  C   UNK    1        1.156   3.166   0.008  0.00  0.00    +0.004 A 
ATOM      8  C   UNK    1       -0.049   3.844   0.023  0.00  0.00    -0.034 A 
ATOM      9  C   UNK    1       -1.239   3.141   0.031  0.00  0.00    +0.050 A 
BRANCH   4  11
ATOM     10  C   UNK    1       -2.300  -0.366   0.011  0.00  0.00    +0.277 C 
ATOM     11  O   UNK    1       -2.392   1.060   0.019  0.00  0.00    -0.495 OA
ENDBRANCH   4  11
ENDBRANCH   3   8
ENDBRANCH   2   3
ENDBRANCH   1   2
BRANCH   1  12
ATOM     12  C   UNK    1       -0.126   8.422  -2.876  0.00  0.00    +0.005 C 
BRANCH  12  13
ATOM     13  C   UNK    1       -0.141   9.944  -2.722  0.00  0.00    +0.036 C 
BRANCH  13  14
ATOM     14  N   UNK    1       -1.394  10.359  -2.078  0.00  0.00    +0.387 N 
ATOM     15  H   UNK    1       -2.246  10.045  -2.699  0.00  0.00    -0.089 HD
ATOM     16  H   UNK    1       -1.470   9.889  -1.087  0.00  0.00    -0.089 HD
ATOM     17  H   UNK    1       -1.405  11.453  -1.967  0.00  0.00    -0.089 HD
ENDBRANCH  13  14
BRANCH  13  18
ATOM     18  C   UNK    1       -0.036  10.588  -4.080  0.00  0.00    +0.290 C 
ATOM     19  O   UNK    1       -1.028  11.008  -4.627  0.00  0.00    -0.253 OA
BRANCH  18  20
ATOM     20  O   UNK    1        1.158  10.694  -4.683  0.00  0.00    -0.482 OA
ATOM     21  H   UNK    1        1.928  10.368  -4.259  0.00  0.00    +0.295 HD
ENDBRANCH  18  20
ENDBRANCH  13  18
ENDBRANCH  12  13
ENDBRANCH   1  12
TORSDOF 9
