REMARK  Name = ZINC17198574
REMARK                            x       y       z     vdW  Elec       q    Type
REMARK                         _______ _______ _______ _____ _____    ______ ____
ROOT
ATOM      1  C   LIG    1       -0.623  -9.388  -6.418  0.00  0.00    +0.005 C 
ENDROOT
BRANCH   1   2
ATOM      2  C   LIG    1       -0.849  -8.664  -5.089  0.00  0.00    +0.000 C 
BRANCH   2   3
ATOM      3  C   LIG    1        0.502  -8.304  -4.468  0.00  0.00    +0.000 C 
BRANCH   3   4
ATOM      4  C   LIG    1        0.275  -7.580  -3.139  0.00  0.00    +0.000 C 
BRANCH   4   5
ATOM      5  C   LIG    1        1.626  -7.221  -2.518  0.00  0.00    +0.004 C 
BRANCH   5   6
ATOM      6  C   LIG    1        1.400  -6.496  -1.189  0.00  0.00    +0.027 C 
BRANCH   6   8
ATOM      7  C   LIG    1        2.982  -4.906  -0.224  0.00  0.00    -0.027 C 
ATOM      8  C   LIG    1        2.731  -6.142  -0.577  0.00  0.00    -0.031 C 
BRANCH   7   9
ATOM      9  C   LIG    1        1.887  -3.871  -0.274  0.00  0.00    +0.053 C 
BRANCH   9  11
ATOM     10  C   LIG    1        1.853  -1.864   1.115  0.00  0.00    -0.027 C 
ATOM     11  C   LIG    1        1.796  -3.171   1.057  0.00  0.00    -0.027 C 
BRANCH  10  12
ATOM     12  C   LIG    1        1.840  -1.052  -0.155  0.00  0.00    +0.053 C 
BRANCH  12  14
ATOM     13  C   LIG    1        1.055   1.258  -0.254  0.00  0.00    +0.004 C 
ATOM     14  C   LIG    1        0.759  -0.005  -0.070  0.00  0.00    -0.030 C 
ENDBRANCH  12  14
ENDBRANCH  10  12
ENDBRANCH   9  11
ENDBRANCH   7   9
ENDBRANCH   6   8
ENDBRANCH   5   6
ENDBRANCH   4   5
ENDBRANCH   3   4
ENDBRANCH   2   3
ENDBRANCH   1   2
BRANCH   1  15
ATOM     15  C   LIG    1       -1.974  -9.747  -7.040  0.00  0.00    +0.036 C 
BRANCH  15  16
ATOM     16  C   LIG    1       -1.751 -10.461  -8.348  0.00  0.00    -0.030 A 
ATOM     17  C   LIG    1       -1.778  -9.756  -9.531  0.00  0.00    +0.004 A 
ATOM     18  C   LIG    1       -1.574 -10.406 -10.738  0.00  0.00    +0.004 A 
ATOM     19  C   LIG    1       -1.341 -11.767 -10.768  0.00  0.00    +0.046 A 
ATOM     20  C   LIG    1       -1.311 -12.494  -9.587  0.00  0.00    +0.131 A 
ATOM     21  C   LIG    1       -1.510 -11.838  -8.363  0.00  0.00    +0.103 A 
BRANCH  20  22
ATOM     22  O   LIG    1       -1.083 -13.830  -9.615  0.00  0.00    -0.506 OA
ATOM     23  H   LIG    1       -0.148 -14.071  -9.556  0.00  0.00    +0.292 HD
ENDBRANCH  20  22
BRANCH  21  24
ATOM     24  C   LIG    1       -1.474 -12.597  -7.102  0.00  0.00    +0.341 C 
ATOM     25  O   LIG    1       -2.481 -13.162  -6.699  0.00  0.00    -0.245 OA
BRANCH  24  26
ATOM     26  O   LIG    1       -0.436 -12.662  -6.457  0.00  0.00    -0.477 OA
ATOM     27  H   LIG    1        0.335 -12.229  -6.766  0.00  0.00    +0.295 HD
ENDBRANCH  24  26
ENDBRANCH  21  24
ENDBRANCH  15  16
ENDBRANCH   1  15
TORSDOF 15
