REMARK  Name = ZINC40934498
REMARK                            x       y       z     vdW  Elec       q    Type
REMARK                         _______ _______ _______ _____ _____    ______ ____
ROOT
ATOM      1  C   LIG    1       -0.018   1.503   0.010  0.00  0.00    +0.065 C 
ATOM      2  C   LIG    1        0.002  -0.004   0.002  0.00  0.00    +0.039 A 
ATOM      3  C   LIG    1        0.005  -0.676  -1.218  0.00  0.00    +0.023 A 
ATOM      4  C   LIG    1        0.024  -2.042  -1.243  0.00  0.00    +0.012 A 
ATOM      5  C   LIG    1        0.040  -2.729  -0.014  0.00  0.00    +0.001 A 
ATOM      6  C   LIG    1        0.060  -4.133   0.036  0.00  0.00    +0.010 A 
ATOM      7  C   LIG    1        0.076  -4.773   1.239  0.00  0.00    +0.001 A 
ATOM      8  C   LIG    1        0.071  -4.060   2.431  0.00  0.00    +0.015 A 
ATOM      9  C   LIG    1        0.052  -2.673   2.427  0.00  0.00    +0.062 A 
ATOM     10  C   LIG    1        0.035  -1.982   1.188  0.00  0.00    +0.083 A 
ATOM     11  N   LIG    1        0.022  -0.649   1.145  0.00  0.00    -0.251 NA
ENDROOT
BRANCH   9  12
ATOM     12  C   LIG    1        0.047  -1.925   3.697  0.00  0.00    +0.244 C 
ATOM     13  N   LIG    1        0.062  -2.588   4.870  0.00  0.00    -0.325 N 
ATOM     14  H   LIG    1        0.059  -2.096   5.706  0.00  0.00    +0.145 HD
ATOM     15  H   LIG    1        0.076  -3.558   4.878  0.00  0.00    +0.145 HD
ATOM     16  O   LIG    1        0.029  -0.709   3.686  0.00  0.00    -0.270 OA
ENDBRANCH   9  12
TORSDOF 1
