REMARK  Name = ZINC00015872
REMARK                            x       y       z     vdW  Elec       q    Type
REMARK                         _______ _______ _______ _____ _____    ______ ____
ROOT
ATOM      1  N   LIG    1       -0.017   1.393   0.010  0.00  0.00    -0.332 N 
ATOM      2  C   LIG    1       -0.815   1.903   1.133  0.00  0.00    +0.086 C 
ATOM      3  C   LIG    1       -0.876   3.430   1.061  0.00  0.00    -0.063 C 
ATOM      4  N   LIG    1        0.491   3.982   1.104  0.00  0.00    +0.381 N 
ATOM      5  H   LIG    1        0.446   5.006   1.047  0.00  0.00    -0.086 HD
ATOM      6  H   LIG    1        0.939   3.708   1.986  0.00  0.00    -0.086 HD
ATOM      7  C   LIG    1        1.286   3.466  -0.026  0.00  0.00    -0.063 C 
ATOM      8  C   LIG    1        1.347   1.938   0.046  0.00  0.00    +0.086 C 
ENDROOT
BRANCH   1  14
ATOM      9  C   LIG    1       -0.471  -2.094   1.079  0.00  0.00    +0.002 A 
ATOM     10  C   LIG    1        0.040  -2.772  -0.013  0.00  0.00    +0.002 A 
ATOM     11  C   LIG    1        0.531  -2.070  -1.098  0.00  0.00    +0.022 A 
ATOM     12  C   LIG    1        0.515  -0.688  -1.094  0.00  0.00    +0.062 A 
ATOM     13 CL   LIG    1        1.133   0.193  -2.456  0.00  0.00    -0.082 Cl
ATOM     14  C   LIG    1        0.002  -0.004   0.002  0.00  0.00    +0.048 A 
ATOM     15  C   LIG    1       -0.486  -0.713   1.092  0.00  0.00    +0.024 A 
ENDBRANCH   1  14
TORSDOF 1
