REMARK  Name = ZINC27526370
REMARK                            x       y       z     vdW  Elec       q    Type
REMARK                         _______ _______ _______ _____ _____    ______ ____
ROOT
ATOM      1  C   LIG    1        2.490  -0.288  -2.804  0.00  0.00    +0.005 A 
ATOM      2  C   LIG    1        3.657   0.335  -3.198  0.00  0.00    +0.022 A 
ATOM      3  C   LIG    1        4.070   1.490  -2.559  0.00  0.00    +0.060 A 
ATOM      4 CL   LIG    1        5.537   2.279  -3.050  0.00  0.00    -0.082 Cl
ATOM      5  C   LIG    1        3.312   2.014  -1.528  0.00  0.00    +0.064 A 
ATOM      6 CL   LIG    1        3.831   3.464  -0.727  0.00  0.00    -0.082 Cl
ATOM      7  C   LIG    1        2.140   1.387  -1.131  0.00  0.00    -0.011 A 
ATOM      8  C   LIG    1        1.351   1.993  -0.000  0.00  0.00    +0.118 C 
ATOM      9  N   LIG    1       -0.018   1.467   0.010  0.00  0.00    -0.307 NA
ATOM     10  H   LIG    1       -0.550   1.832  -0.881  0.00  0.00    +0.123 HD
ATOM     11  CA  LIG    1        0.002  -0.004   0.002  0.00  0.00    +0.084 C 
ATOM     12  C   LIG    1        0.460  -0.476  -1.378  0.00  0.00    +0.056 C 
ATOM     13  C   LIG    1        1.729   0.237  -1.771  0.00  0.00    -0.040 A 
ENDROOT
BRANCH  11  14
ATOM     14  C   LIG    1       -1.403  -0.539   0.288  0.00  0.00    +0.174 C 
BRANCH  14  15
ATOM     15  O   LIG    1       -1.790  -0.175   1.614  0.00  0.00    -0.393 OA
ATOM     16  H   LIG    1       -2.776  -0.474   2.001  0.00  0.00    +0.209 HD
ENDBRANCH  14  15
ENDBRANCH  11  14
TORSDOF 2
