REMARK  Name = ZINC36323386
REMARK                            x       y       z     vdW  Elec       q    Type
REMARK                         _______ _______ _______ _____ _____    ______ ____
ROOT
ATOM      1  N   LIG    1        4.697  -4.051   0.237  0.00  0.00    -0.037 NA
ATOM      2  C   LIG    1        5.753  -4.787   0.326  0.00  0.00    +0.259 C 
ATOM      3  C   LIG    1        5.647  -6.293   0.420  0.00  0.00    +0.234 C 
ATOM      4  C   LIG    1        6.611  -6.909  -0.602  0.00  0.00    +0.184 C 
ATOM      5  C   LIG    1        8.002  -6.301  -0.400  0.00  0.00    +0.189 C 
ATOM      6  C   LIG    1        7.929  -4.785  -0.597  0.00  0.00    +0.231 C 
ATOM      7  O   LIG    1        6.994  -4.232   0.330  0.00  0.00    -0.467 OA
ENDROOT
BRANCH   3   8
ATOM      8  O   LIG    1        6.003  -6.720   1.737  0.00  0.00    -0.380 OA
ATOM      9  H   LIG    1        5.443  -6.352   2.434  0.00  0.00    +0.211 HD
ENDBRANCH   3   8
BRANCH   4  10
ATOM     10  O   LIG    1        6.671  -8.324  -0.411  0.00  0.00    -0.386 OA
ATOM     11  H   LIG    1        5.821  -8.771  -0.517  0.00  0.00    +0.210 HD
ENDBRANCH   4  10
BRANCH   5  12
ATOM     12  O   LIG    1        8.460  -6.589   0.923  0.00  0.00    -0.385 OA
ATOM     13  H   LIG    1        8.530  -7.533   1.118  0.00  0.00    +0.210 HD
ENDBRANCH   5  12
BRANCH   1  14
ATOM     14  O   LIG    1        4.821  -2.643   0.144  0.00  0.00    -0.296 OA
BRANCH  14  17
ATOM     15  N   LIG    1        3.622  -0.651  -0.036  0.00  0.00    -0.249 N 
ATOM     16  H   LIG    1        4.452  -0.156  -0.120  0.00  0.00    +0.158 HD
ATOM     17  C   LIG    1        3.645  -1.995   0.058  0.00  0.00    +0.430 C 
ATOM     18  O   LIG    1        2.603  -2.622   0.065  0.00  0.00    -0.224 OA
BRANCH  15  22
ATOM     19  C   LIG    1       -0.015   1.381   0.031  0.00  0.00    +0.000 A 
ATOM     20  C   LIG    1        0.140   0.218   0.764  0.00  0.00    +0.002 A 
ATOM     21  C   LIG    1        1.344  -0.457   0.744  0.00  0.00    +0.023 A 
ATOM     22  C   LIG    1        2.400   0.031  -0.014  0.00  0.00    +0.037 A 
ATOM     23  C   LIG    1        2.241   1.199  -0.750  0.00  0.00    +0.023 A 
ATOM     24  C   LIG    1        1.034   1.870  -0.725  0.00  0.00    +0.002 A 
ENDBRANCH  15  22
ENDBRANCH  14  17
ENDBRANCH   1  14
BRANCH   6  25
ATOM     25  C   LIG    1        9.310  -4.172  -0.360  0.00  0.00    +0.203 C 
BRANCH  25  26
ATOM     26  O   LIG    1        9.268  -2.774  -0.657  0.00  0.00    -0.391 OA
ATOM     27  H   LIG    1       10.112  -2.320  -0.529  0.00  0.00    +0.210 HD
ENDBRANCH  25  26
ENDBRANCH   6  25
TORSDOF 8
