REMARK  Name = ZINC00001554
REMARK                            x       y       z     vdW  Elec       q    Type
REMARK                         _______ _______ _______ _____ _____    ______ ____
ROOT
ATOM      1  C   LIG    1       -0.017   1.373   0.010  0.00  0.00    +0.001 A 
ATOM      2  C   LIG    1        1.170   2.089   0.002  0.00  0.00    +0.004 A 
ATOM      3  C   LIG    1        2.384   1.431  -0.013  0.00  0.00    +0.046 A 
ATOM      4  C   LIG    1        2.423   0.044  -0.022  0.00  0.00    +0.131 A 
ATOM      5  C   LIG    1        1.224  -0.685  -0.014  0.00  0.00    +0.100 A 
ATOM      6  C   LIG    1        0.002  -0.004   0.002  0.00  0.00    +0.018 A 
ENDROOT
BRANCH   4   7
ATOM      7  O   LIG    1        3.614  -0.603  -0.038  0.00  0.00    -0.506 OA
ATOM      8  H   LIG    1        3.969  -0.796   0.841  0.00  0.00    +0.292 HD
ENDBRANCH   4   7
BRANCH   5   9
ATOM      9  C   LIG    1        1.252  -2.156  -0.023  0.00  0.00    +0.340 C 
ATOM     10  O   LIG    1        0.205  -2.788  -0.016  0.00  0.00    -0.245 OA
BRANCH   9  11
ATOM     11  O   LIG    1        2.323  -2.747  -0.037  0.00  0.00    -0.477 OA
ATOM     12  H   LIG    1        3.125  -2.263  -0.043  0.00  0.00    +0.295 HD
ENDBRANCH   9  11
ENDBRANCH   5   9
TORSDOF 3
