REMARK  Name = ZINC36330662
REMARK                            x       y       z     vdW  Elec       q    Type
REMARK                         _______ _______ _______ _____ _____    ______ ____
ROOT
ATOM      1  N   LIG    1        4.058  -4.431  -5.142  0.00  0.00    -0.297 N 
ATOM      2  H   LIG    1        4.095  -3.803  -5.880  0.00  0.00    +0.151 HD
ATOM      3  C   LIG    1        4.560  -5.673  -5.287  0.00  0.00    +0.300 C 
ATOM      4  N   LIG    1        5.115  -6.043  -6.458  0.00  0.00    -0.294 N 
ATOM      5  H   LIG    1        5.152  -5.416  -7.197  0.00  0.00    +0.151 HD
ATOM      6  O   LIG    1        4.514  -6.459  -4.360  0.00  0.00    -0.253 OA
ENDROOT
BRANCH   4   7
ATOM      7  C   LIG    1        5.661  -7.393  -6.615  0.00  0.00    +0.037 C 
ATOM      8  C   LIG    1        4.551  -8.422  -6.390  0.00  0.00    +0.029 C 
ATOM      9  C   LIG    1        5.122  -9.832  -6.554  0.00  0.00    -0.008 C 
ATOM     10  C   LIG    1        5.687  -9.992  -7.967  0.00  0.00    +0.007 C 
ATOM     11  C   LIG    1        6.797  -8.963  -8.193  0.00  0.00    -0.008 C 
ATOM     12  C   LIG    1        7.912  -9.184  -7.169  0.00  0.00    +0.007 C 
ATOM     13  C   LIG    1        7.348  -9.024  -5.756  0.00  0.00    -0.008 C 
ATOM     14  C   LIG    1        6.238 -10.053  -5.531  0.00  0.00    +0.007 C 
ATOM     15  C   LIG    1        6.777  -7.614  -5.592  0.00  0.00    +0.029 C 
ATOM     16  C   LIG    1        6.226  -7.553  -8.028  0.00  0.00    +0.029 C 
ENDBRANCH   4   7
BRANCH   1  21
ATOM     17  N   LIG    1        1.427  -2.501  -2.474  0.00  0.00    +0.380 N 
ATOM     18  H   LIG    1        0.986  -2.102  -3.289  0.00  0.00    -0.082 HD
ATOM     19  C   LIG    1        2.834  -2.086  -2.429  0.00  0.00    -0.077 C 
ATOM     20  C   LIG    1        3.535  -2.506  -3.723  0.00  0.00    +0.004 C 
ATOM     21  C   LIG    1        3.455  -4.028  -3.868  0.00  0.00    +0.071 C 
ATOM     22  C   LIG    1        1.985  -4.458  -3.839  0.00  0.00    +0.004 C 
ATOM     23  C   LIG    1        1.341  -3.965  -2.541  0.00  0.00    -0.077 C 
BRANCH  17  24
ATOM     24  C   LIG    1        0.739  -2.027  -1.265  0.00  0.00    -0.079 C 
BRANCH  24  25
ATOM     25  C   LIG    1        0.718  -0.497  -1.257  0.00  0.00    -0.019 C 
BRANCH  25  27
ATOM     26  C   LIG    1       -0.019   1.526   0.010  0.00  0.00    +0.004 C 
ATOM     27  C   LIG    1        0.002  -0.004   0.002  0.00  0.00    -0.005 C 
ENDBRANCH  25  27
ENDBRANCH  24  25
ENDBRANCH  17  24
ENDBRANCH   1  21
TORSDOF 5
