REMARK  Name = ZINC28522906
REMARK                            x       y       z     vdW  Elec       q    Type
REMARK                         _______ _______ _______ _____ _____    ______ ____
ROOT
ATOM      1  N   LIG    1       -0.698   1.558   1.213  0.00  0.00    -0.317 N 
ATOM      2  H   LIG    1       -1.602   2.179   1.124  0.00  0.00    +0.149 HD
ATOM      3  C   LIG    1       -0.222   1.232   2.431  0.00  0.00    +0.199 C 
ATOM      4  O   LIG    1        0.774   0.548   2.529  0.00  0.00    -0.278 OA
ENDROOT
BRANCH   1   5
ATOM      5  C   LIG    1       -0.013   1.086   0.008  0.00  0.00    +0.104 C 
BRANCH   5   6
ATOM      6  C   LIG    1       -0.753   1.593  -1.232  0.00  0.00    +0.019 C 
BRANCH   6   7
ATOM      7  C   LIG    1       -0.037   1.099  -2.490  0.00  0.00    +0.001 C 
BRANCH   7   9
ATOM      8  C   LIG    1       -0.060   1.113  -4.989  0.00  0.00    +0.004 C 
ATOM      9  C   LIG    1       -0.777   1.606  -3.730  0.00  0.00    -0.003 C 
ENDBRANCH   7   9
ENDBRANCH   6   7
ENDBRANCH   5   6
ENDBRANCH   1   5
BRANCH   3  10
ATOM     10  C   LIG    1       -0.927   1.718   3.671  0.00  0.00    +0.013 C 
BRANCH  10  11
ATOM     11  N   LIG    1       -0.542   0.880   4.814  0.00  0.00    +0.386 N 
ATOM     12  H   LIG    1       -0.826  -0.164   4.616  0.00  0.00    -0.089 HD
ATOM     13  H   LIG    1        0.546   0.942   4.963  0.00  0.00    -0.089 HD
ATOM     14  H   LIG    1       -1.057   1.235   5.719  0.00  0.00    -0.089 HD
ENDBRANCH  10  11
BRANCH  10  15
ATOM     15  C   LIG    1       -0.532   3.170   3.947  0.00  0.00    -0.007 C 
BRANCH  15  16
ATOM     16  C   LIG    1       -1.341   3.703   5.131  0.00  0.00    -0.001 C 
BRANCH  16  17
ATOM     17  C   LIG    1       -0.945   5.155   5.407  0.00  0.00    -0.003 C 
ATOM     18  C   LIG    1       -1.754   5.688   6.591  0.00  0.00    +0.004 C 
ENDBRANCH  16  17
ENDBRANCH  15  16
ENDBRANCH  10  15
ENDBRANCH   3  10
TORSDOF 9
