REMARK  Name = ZINC26816095
REMARK                            x       y       z     vdW  Elec       q    Type
REMARK                         _______ _______ _______ _____ _____    ______ ____
ROOT
ATOM      1  N   LIG    1        0.022  -0.501   1.384  0.00  0.00    +0.384 N 
ATOM      2  H   LIG    1       -0.876  -0.149   1.913  0.00  0.00    -0.085 HD
ATOM      3  H   LIG    1        0.920  -0.125   1.896  0.00  0.00    -0.085 HD
ENDROOT
BRANCH   1   4
ATOM      4  C   LIG    1        0.002  -0.004   0.002  0.00  0.00    -0.047 C 
BRANCH   4   8
ATOM      5  C   LIG    1       -0.056   4.267   0.025  0.00  0.00    +0.000 A 
ATOM      6  C   LIG    1        1.151   3.592   0.010  0.00  0.00    +0.000 A 
ATOM      7  C   LIG    1        1.169   2.210   0.003  0.00  0.00    +0.002 A 
ATOM      8  C   LIG    1       -0.018   1.503   0.010  0.00  0.00    -0.064 A 
ATOM      9  C   LIG    1       -1.225   2.178   0.020  0.00  0.00    +0.002 A 
ATOM     10  C   LIG    1       -1.244   3.560   0.032  0.00  0.00    +0.000 A 
ENDBRANCH   4   8
ENDBRANCH   1   4
BRANCH   1  11
ATOM     11  C   LIG    1        0.042  -1.970   1.415  0.00  0.00    -0.041 C 
BRANCH  11  12
ATOM     12  C   LIG    1        0.062  -2.449   2.868  0.00  0.00    +0.210 C 
BRANCH  12  13
ATOM     13  O   LIG    1       -1.158  -2.074   3.510  0.00  0.00    -0.494 OA
BRANCH  13  14
ATOM     14  C   LIG    1       -1.302  -2.426   4.815  0.00  0.00    +0.120 A 
ATOM     15  C   LIG    1       -0.292  -3.124   5.462  0.00  0.00    +0.045 A 
ATOM     16  C   LIG    1       -0.439  -3.476   6.790  0.00  0.00    +0.004 A 
ATOM     17  C   LIG    1       -1.595  -3.144   7.471  0.00  0.00    +0.000 A 
ATOM     18  C   LIG    1       -2.606  -2.454   6.826  0.00  0.00    +0.004 A 
ATOM     19  C   LIG    1       -2.462  -2.094   5.500  0.00  0.00    +0.045 A 
ENDBRANCH  13  14
ENDBRANCH  12  13
ENDBRANCH  11  12
ENDBRANCH   1  11
TORSDOF 6
