REMARK  Name = ZINC35283208
REMARK                            x       y       z     vdW  Elec       q    Type
REMARK                         _______ _______ _______ _____ _____    ______ ____
ROOT
ATOM      1  C   LIG    1        1.228  -2.186  -0.022  0.00  0.00    -0.003 C 
ENDROOT
BRANCH   1   2
ATOM      2  N   LIG    1       -0.119  -2.594  -0.442  0.00  0.00    +0.391 N 
ATOM      3  H   LIG    1       -0.811  -2.255   0.209  0.00  0.00    -0.080 HD
ATOM      4  C   LIG    1       -0.200  -4.073  -0.575  0.00  0.00    -0.066 C 
ATOM      5  C   LIG    1        0.510  -4.373  -1.916  0.00  0.00    -0.017 C 
ATOM      6  C   LIG    1        0.371  -3.073  -2.736  0.00  0.00    -0.017 C 
ATOM      7  C   LIG    1       -1.686  -4.436  -0.723  0.00  0.00    -0.006 C 
ATOM      8  C   LIG    1       -2.202  -3.828  -2.046  0.00  0.00    +0.035 C 
ATOM      9  C   LIG    1       -1.910  -2.325  -2.070  0.00  0.00    -0.006 C 
ATOM     10  C   LIG    1       -0.409  -2.106  -1.816  0.00  0.00    -0.066 C 
BRANCH   8  11
ATOM     11  C   LIG    1       -3.689  -4.051  -2.148  0.00  0.00    +0.044 A 
ATOM     12  C   LIG    1       -4.467  -4.006  -1.006  0.00  0.00    +0.023 A 
ATOM     13  C   LIG    1       -5.834  -4.213  -1.111  0.00  0.00    +0.003 A 
ATOM     14  C   LIG    1       -6.370  -4.457  -2.366  0.00  0.00    +0.020 A 
ATOM     15  C   LIG    1       -5.530  -4.486  -3.463  0.00  0.00    +0.111 A 
ATOM     16  N   LIG    1       -4.234  -4.280  -3.326  0.00  0.00    -0.260 NA
ENDBRANCH   8  11
ENDBRANCH   1   2
BRANCH   1  22
ATOM     17  C   LIG    1        0.288   1.465   0.184  0.00  0.00    +0.000 A 
ATOM     18  C   LIG    1        1.502   2.078  -0.065  0.00  0.00    +0.001 A 
ATOM     19  C   LIG    1        2.628   1.311  -0.299  0.00  0.00    +0.020 A 
ATOM     20  C   LIG    1        2.540  -0.070  -0.285  0.00  0.00    +0.043 A 
ATOM     21 CL   LIG    1        3.954  -1.033  -0.580  0.00  0.00    -0.083 Cl
ATOM     22  C   LIG    1        1.325  -0.682  -0.037  0.00  0.00    -0.038 A 
ATOM     23  C   LIG    1        0.200   0.085   0.198  0.00  0.00    +0.004 A 
ENDBRANCH   1  22
BRANCH   1  24
ATOM     24  C   LIG    1        1.496  -2.693   1.372  0.00  0.00    -0.038 A 
ATOM     25  C   LIG    1        0.576  -2.465   2.378  0.00  0.00    +0.004 A 
ATOM     26  C   LIG    1        0.821  -2.929   3.657  0.00  0.00    +0.000 A 
ATOM     27  C   LIG    1        1.985  -3.624   3.930  0.00  0.00    +0.001 A 
ATOM     28  C   LIG    1        2.905  -3.853   2.924  0.00  0.00    +0.020 A 
ATOM     29  C   LIG    1        2.658  -3.392   1.643  0.00  0.00    +0.043 A 
ATOM     30 CL   LIG    1        3.810  -3.685   0.378  0.00  0.00    -0.083 Cl
ENDBRANCH   1  24
TORSDOF 4
