REMARK  Name = ZINC64470290
REMARK                            x       y       z     vdW  Elec       q    Type
REMARK                         _______ _______ _______ _____ _____    ______ ____
ROOT
ATOM      1  C   LIG    1        1.355  -2.516   2.470  0.00  0.00    -0.045 A 
ATOM      2  C   LIG    1        2.701  -2.821   2.393  0.00  0.00    +0.007 A 
ATOM      3  C   LIG    1        3.374  -3.279   3.510  0.00  0.00    +0.049 A 
ATOM      4  C   LIG    1        2.700  -3.434   4.711  0.00  0.00    +0.161 A 
ATOM      5  C   LIG    1        1.345  -3.127   4.788  0.00  0.00    +0.162 A 
ATOM      6  C   LIG    1        0.677  -2.664   3.666  0.00  0.00    +0.053 A 
ENDROOT
BRANCH   4   7
ATOM      7  O   LIG    1        3.360  -3.885   5.811  0.00  0.00    -0.491 OA
ATOM      8  C   LIG    1        4.750  -4.180   5.657  0.00  0.00    +0.277 C 
ENDBRANCH   4   7
BRANCH   5   9
ATOM      9  O   LIG    1        0.678  -3.277   5.964  0.00  0.00    -0.491 OA
ATOM     10  C   LIG    1       -0.712  -2.943   5.969  0.00  0.00    +0.277 C 
ENDBRANCH   5   9
BRANCH   1  11
ATOM     11  C   LIG    1        0.626  -2.017   1.249  0.00  0.00    +0.019 C 
BRANCH  11  12
ATOM     12  C   LIG    1        0.713  -0.491   1.192  0.00  0.00    -0.051 C 
BRANCH  12  14
ATOM     13  C   LIG    1       -0.018   1.465   0.010  0.00  0.00    -0.071 C 
ATOM     14  N   LIG    1        0.002  -0.004   0.002  0.00  0.00    +0.384 N 
ATOM     15  H   LIG    1       -0.945  -0.353   0.009  0.00  0.00    -0.057 HD
BRANCH  14  16
ATOM     16  N   LIG    1        0.683  -0.473  -1.194  0.00  0.00    -0.379 NA
ATOM     17  H   LIG    1        1.633  -0.136  -1.225  0.00  0.00    +0.099 HD
ATOM     18  H   LIG    1        0.177  -0.206  -2.026  0.00  0.00    +0.099 HD
ENDBRANCH  14  16
ENDBRANCH  12  14
ENDBRANCH  11  12
ENDBRANCH   1  11
TORSDOF 6
