REMARK  Name = ZINC00033902
REMARK                            x       y       z     vdW  Elec       q    Type
REMARK                         _______ _______ _______ _____ _____    ______ ____
ROOT
ATOM      1  C   LIG    1        2.362   4.296  -0.545  0.00  0.00    +0.124 C 
ATOM      2  N   LIG    1        2.245   3.945   0.704  0.00  0.00    -0.178 NA
ATOM      3  N   LIG    1        1.777   2.704   1.097  0.00  0.00    -0.239 N 
ATOM      4  H   LIG    1        1.692   2.449   2.029  0.00  0.00    +0.170 HD
ATOM      5  C   LIG    1        1.419   1.807  -0.002  0.00  0.00    +0.203 C 
ATOM      6  C   LIG    1       -0.017   1.390   0.010  0.00  0.00    +0.018 A 
ATOM      7  C   LIG    1       -1.212   2.073   0.030  0.00  0.00    +0.009 A 
ATOM      8  C   LIG    1       -2.409   1.378   0.034  0.00  0.00    +0.000 A 
ATOM      9  C   LIG    1       -2.401  -0.005   0.028  0.00  0.00    +0.002 A 
ATOM     10  C   LIG    1       -1.207  -0.695   0.012  0.00  0.00    +0.024 A 
ATOM     11  C   LIG    1        0.002  -0.004   0.002  0.00  0.00    +0.043 A 
ATOM     12  N   LIG    1        1.320  -0.470  -0.015  0.00  0.00    -0.271 N 
ATOM     13  C   LIG    1        1.685  -1.889  -0.027  0.00  0.00    +0.138 C 
ATOM     14  C   LIG    1        2.216   0.539  -0.021  0.00  0.00    +0.260 C 
ATOM     15  O   LIG    1        3.424   0.440  -0.037  0.00  0.00    -0.271 OA
ATOM     16  S   LIG    1        1.801   2.859  -1.449  0.00  0.00    -0.063 S 
ENDROOT
BRANCH   1  21
ATOM     17  C   LIG    1        4.245   9.306  -2.660  0.00  0.00    +0.044 C 
ATOM     18  C   LIG    1        3.752   7.994  -2.106  0.00  0.00    -0.050 A 
ATOM     19  C   LIG    1        3.698   7.801  -0.737  0.00  0.00    +0.004 A 
ATOM     20  C   LIG    1        3.248   6.602  -0.224  0.00  0.00    +0.011 A 
ATOM     21  C   LIG    1        2.846   5.583  -1.089  0.00  0.00    +0.008 A 
ATOM     22  C   LIG    1        2.909   5.782  -2.469  0.00  0.00    +0.011 A 
ATOM     23  C   LIG    1        3.355   6.988  -2.969  0.00  0.00    +0.004 A 
ENDBRANCH   1  21
TORSDOF 1
