REMARK  Name = ZINC28529467
REMARK                            x       y       z     vdW  Elec       q    Type
REMARK                         _______ _______ _______ _____ _____    ______ ____
ROOT
ATOM      1  C   LIG    1        1.211  -0.676  -0.014  0.00  0.00    +0.020 A 
ATOM      2  C   LIG    1        2.393   0.038  -0.019  0.00  0.00    +0.005 A 
ATOM      3  C   LIG    1        2.375   1.424  -0.009  0.00  0.00    -0.041 A 
ATOM      4  C   LIG    1        1.170   2.095   0.002  0.00  0.00    -0.029 A 
ATOM      5  C   LIG    1        1.099   3.599   0.002  0.00  0.00    +0.117 C 
ATOM      6  N   LIG    1        2.384   4.174   0.409  0.00  0.00    -0.302 NA
ATOM      7  H   LIG    1        2.356   5.266   0.277  0.00  0.00    +0.123 HD
ATOM      8  C   LIG    1        3.473   3.618  -0.410  0.00  0.00    +0.163 C 
ATOM      9  C   LIG    1       -0.017   1.377   0.010  0.00  0.00    +0.025 A 
ATOM     10  C   LIG    1        3.690   2.160  -0.005  0.00  0.00    +0.063 C 
ATOM     11  C   LIG    1        0.002  -0.004   0.002  0.00  0.00    +0.041 A 
ATOM     12 CL   LIG    1       -1.488  -0.894   0.013  0.00  0.00    -0.084 Cl
ENDROOT
BRANCH   8  13
ATOM     13  C   LIG    1        4.756   4.418  -0.171  0.00  0.00    +0.405 C 
ATOM     14  F   LIG    1        4.544   5.755  -0.525  0.00  0.00    -0.169 F 
ATOM     15  F   LIG    1        5.788   3.887  -0.952  0.00  0.00    -0.169 F 
ATOM     16  F   LIG    1        5.107   4.344   1.181  0.00  0.00    -0.169 F 
ENDBRANCH   8  13
TORSDOF 1
