REMARK  Name = ZINC53214756
REMARK                            x       y       z     vdW  Elec       q    Type
REMARK                         _______ _______ _______ _____ _____    ______ ____
ROOT
ATOM      1  N   LIG    1        0.019  -0.088   2.462  0.00  0.00    -0.245 N 
ATOM      2  C   LIG    1        1.175   0.067   3.139  0.00  0.00    +0.271 A 
ATOM      3  C   LIG    1        1.165   0.856   4.377  0.00  0.00    +0.101 A 
ATOM      4  C   LIG    1        2.316   1.065   5.136  0.00  0.00    +0.131 A 
ATOM      5  N   LIG    1        2.220   1.789   6.238  0.00  0.00    -0.222 NA
ATOM      6  C   LIG    1        1.059   2.309   6.620  0.00  0.00    +0.221 A 
ATOM      7  N   LIG    1       -0.059   2.134   5.928  0.00  0.00    -0.196 NA
ATOM      8  C   LIG    1       -0.050   1.423   4.812  0.00  0.00    +0.158 A 
ATOM      9  N   LIG    1       -1.195   1.220   4.064  0.00  0.00    -0.261 N 
ATOM     10  C   LIG    1       -2.503   1.646   4.244  0.00  0.00    +0.077 A 
ATOM     11  C   LIG    1       -3.140   2.411   5.209  0.00  0.00    +0.028 A 
ATOM     12  C   LIG    1       -4.492   2.665   5.101  0.00  0.00    +0.002 A 
ATOM     13  C   LIG    1       -5.219   2.159   4.034  0.00  0.00    +0.002 A 
ATOM     14  C   LIG    1       -4.598   1.417   3.054  0.00  0.00    +0.030 A 
ATOM     15  C   LIG    1       -3.231   1.145   3.153  0.00  0.00    +0.092 A 
ATOM     16  N   LIG    1       -2.362   0.443   2.382  0.00  0.00    -0.211 NA
ATOM     17  O   LIG    1        2.205  -0.437   2.733  0.00  0.00    -0.266 OA
ATOM     18  C   LIG    1       -1.158   0.484   2.910  0.00  0.00    +0.225 A 
ENDROOT
BRANCH   1  26
ATOM     19  C   LIG    1        0.518   1.266   0.009  0.00  0.00    +0.046 C 
ATOM     20  C   LIG    1        0.251  -0.217   0.060  0.00  0.00    -0.026 A 
ATOM     21  C   LIG    1        0.248  -0.960  -1.104  0.00  0.00    +0.005 A 
ATOM     22  C   LIG    1        0.003  -2.320  -1.057  0.00  0.00    +0.001 A 
ATOM     23  C   LIG    1       -0.241  -2.940   0.154  0.00  0.00    +0.005 A 
ATOM     24  C   LIG    1       -0.241  -2.203   1.322  0.00  0.00    -0.026 A 
ATOM     25  C   LIG    1       -0.508  -2.879   2.642  0.00  0.00    +0.046 C 
ATOM     26  C   LIG    1        0.012  -0.838   1.279  0.00  0.00    +0.059 A 
ENDBRANCH   1  26
BRANCH   6  27
ATOM     27  N   LIG    1        1.014   3.057   7.779  0.00  0.00    -0.284 N 
ATOM     28  H   LIG    1        0.163   3.376   8.117  0.00  0.00    +0.155 HD
BRANCH  27  29
ATOM     29  C   LIG    1        2.198   3.355   8.466  0.00  0.00    +0.034 A 
ATOM     30  C   LIG    1        3.352   3.667   7.760  0.00  0.00    +0.025 A 
ATOM     31  C   LIG    1        4.518   3.961   8.437  0.00  0.00    +0.025 A 
ATOM     32  C   LIG    1        4.537   3.946   9.826  0.00  0.00    +0.030 A 
ATOM     33  C   LIG    1        3.383   3.634  10.533  0.00  0.00    +0.025 A 
ATOM     34  C   LIG    1        2.215   3.345   9.855  0.00  0.00    +0.025 A 
BRANCH  32  35
ATOM     35  N   LIG    1        5.719   4.243  10.513  0.00  0.00    -0.333 N 
ATOM     36  C   LIG    1        5.795   4.120  11.977  0.00  0.00    +0.086 C 
ATOM     37  C   LIG    1        7.034   3.291  12.331  0.00  0.00    -0.060 C 
ATOM     38  N   LIG    1        8.220   3.895  11.711  0.00  0.00    +0.380 N 
ATOM     39  H   LIG    1        8.295   4.859  12.000  0.00  0.00    -0.082 HD
ATOM     40  C   LIG    1        9.420   3.164  12.140  0.00  0.00    -0.096 C 
ATOM     41  C   LIG    1        8.107   3.832  10.248  0.00  0.00    -0.060 C 
ATOM     42  C   LIG    1        6.923   4.683   9.791  0.00  0.00    +0.086 C 
ENDBRANCH  32  35
ENDBRANCH  27  29
ENDBRANCH   6  27
TORSDOF 4
