REMARK  Name = ZINC36187797
REMARK                            x       y       z     vdW  Elec       q    Type
REMARK                         _______ _______ _______ _____ _____    ______ ____
ROOT
ATOM      1  C   LIG    1       -0.016   1.355   0.009  0.00  0.00    +0.001 A 
ATOM      2  C   LIG    1        1.157   2.098   0.002  0.00  0.00    +0.001 A 
ATOM      3  C   LIG    1        2.374   1.446  -0.012  0.00  0.00    +0.015 A 
ATOM      4  C   LIG    1        2.405   0.067  -0.020  0.00  0.00    +0.020 A 
ATOM      5  C   LIG    1        1.229  -0.710  -0.013  0.00  0.00    -0.007 A 
ATOM      6  C   LIG    1        1.432  -2.161  -0.024  0.00  0.00    -0.026 A 
ATOM      7  C   LIG    1        2.707  -2.605  -0.038  0.00  0.00    +0.008 A 
ATOM      8  C   LIG    1        3.154  -4.034  -0.054  0.00  0.00    +0.124 C 
ATOM      9  N   LIG    1        1.996  -4.876  -0.408  0.00  0.00    -0.301 NA
ATOM     10  H   LIG    1        1.783  -4.803  -1.391  0.00  0.00    +0.123 HD
ATOM     11  C   LIG    1        0.829  -4.523   0.412  0.00  0.00    +0.145 C 
ATOM     12  C   LIG    1        0.278  -3.160  -0.017  0.00  0.00    +0.064 C 
ATOM     13  S   LIG    1        3.705  -1.142  -0.037  0.00  0.00    -0.092 S 
ATOM     14  C   LIG    1        0.002  -0.004   0.002  0.00  0.00    +0.009 A 
ENDROOT
BRANCH  11  15
ATOM     15  C   LIG    1       -0.241  -5.569   0.236  0.00  0.00    +0.231 C 
ATOM     16  N   LIG    1       -1.218  -5.697   1.156  0.00  0.00    -0.311 N 
ATOM     17  H   LIG    1       -1.232  -5.115   1.932  0.00  0.00    +0.149 HD
ATOM     18  O   LIG    1       -0.224  -6.297  -0.735  0.00  0.00    -0.274 OA
BRANCH  16  19
ATOM     19  C   LIG    1       -2.258  -6.714   0.985  0.00  0.00    +0.073 C 
ATOM     20  C   LIG    1       -3.372  -6.160   0.094  0.00  0.00    +0.022 C 
ATOM     21  C   LIG    1       -4.458  -7.222  -0.085  0.00  0.00    +0.002 C 
ATOM     22  C   LIG    1       -5.036  -7.596   1.281  0.00  0.00    +0.000 C 
ATOM     23  C   LIG    1       -3.922  -8.150   2.172  0.00  0.00    +0.002 C 
ATOM     24  C   LIG    1       -2.836  -7.088   2.351  0.00  0.00    +0.022 C 
ENDBRANCH  16  19
ENDBRANCH  11  15
TORSDOF 2
