REMARK  Name = ZINC13802764
REMARK                            x       y       z     vdW  Elec       q    Type
REMARK                         _______ _______ _______ _____ _____    ______ ____
ROOT
ATOM      1  C   LIG    1       -1.265   4.527   3.456  0.00  0.00    +0.012 A 
ATOM      2  C   LIG    1       -0.691   5.074   2.354  0.00  0.00    +0.049 A 
ATOM      3  C   LIG    1       -0.095   6.457   2.401  0.00  0.00    +0.066 C 
ATOM      4  N   LIG    1       -0.662   4.365   1.246  0.00  0.00    -0.249 NA
ATOM      5  C   LIG    1       -1.182   3.160   1.189  0.00  0.00    +0.085 A 
ATOM      6  S   LIG    1       -1.769   2.939   2.808  0.00  0.00    -0.076 S 
ENDROOT
BRANCH   1   8
ATOM      7  C   LIG    1       -2.760   5.854   4.924  0.00  0.00    +0.009 C 
ATOM      8  C   LIG    1       -1.431   5.099   4.840  0.00  0.00    +0.041 C 
ENDBRANCH   1   8
BRANCH   5   9
ATOM      9  C   LIG    1       -1.247   2.211   0.020  0.00  0.00    +0.119 C 
BRANCH   9  10
ATOM     10  C   LIG    1       -0.016   1.343   0.009  0.00  0.00    +0.065 A 
ATOM     11  C   LIG    1        0.002  -0.004   0.002  0.00  0.00    +0.107 A 
ATOM     12  N   LIG    1        1.317  -0.382  -0.013  0.00  0.00    -0.351 N 
ATOM     13  C   LIG    1        2.058   0.747  -0.014  0.00  0.00    +0.196 A 
ATOM     14  H   LIG    1        1.665  -1.320  -0.021  0.00  0.00    +0.166 HD
ATOM     15  N   LIG    1        1.254   1.775  -0.000  0.00  0.00    -0.240 NA
ENDBRANCH   9  10
ENDBRANCH   5   9
TORSDOF 3
