REMARK  Name = ZINC66112293
REMARK                            x       y       z     vdW  Elec       q    Type
REMARK                         _______ _______ _______ _____ _____    ______ ____
ROOT
ATOM      1  C   LIG    1        1.307  -2.378  -2.618  0.00  0.00    +0.188 C 
ATOM      2  C   LIG    1        0.557  -2.163  -3.937  0.00  0.00    +0.032 C 
ATOM      3  C   LIG    1        1.343  -2.814  -5.078  0.00  0.00    +0.003 C 
ATOM      4  C   LIG    1        1.457  -4.319  -4.827  0.00  0.00    +0.017 C 
ATOM      5  C   LIG    1        2.217  -4.559  -3.518  0.00  0.00    +0.110 C 
ATOM      6  N   LIG    1        1.551  -3.816  -2.439  0.00  0.00    -0.167 NA
ENDROOT
BRANCH   6   7
ATOM      7  S   LIG    1        1.082  -4.585  -1.050  0.00  0.00    +0.037 S 
ATOM      8  O   LIG    1        1.138  -3.583  -0.044  0.00  0.00    -0.158 OA
ATOM      9  O   LIG    1        1.913  -5.735  -0.973  0.00  0.00    -0.158 OA
BRANCH   7  10
ATOM     10  C   LIG    1       -0.638  -5.077  -1.347  0.00  0.00    +0.220 C 
BRANCH  10  11
ATOM     11  C   LIG    1       -1.173  -5.793  -0.134  0.00  0.00    -0.025 A 
ATOM     12  C   LIG    1       -1.038  -7.165  -0.026  0.00  0.00    +0.005 A 
ATOM     13  C   LIG    1       -1.528  -7.822   1.087  0.00  0.00    +0.000 A 
ATOM     14  C   LIG    1       -2.154  -7.108   2.092  0.00  0.00    +0.000 A 
ATOM     15  C   LIG    1       -2.289  -5.736   1.984  0.00  0.00    +0.000 A 
ATOM     16  C   LIG    1       -1.794  -5.078   0.873  0.00  0.00    +0.005 A 
ENDBRANCH  10  11
ENDBRANCH   7  10
ENDBRANCH   6   7
BRANCH   1  17
ATOM     17  C   LIG    1        0.474  -1.861  -1.474  0.00  0.00    +0.326 C 
ATOM     18  O   LIG    1       -0.566  -2.406  -1.189  0.00  0.00    -0.249 OA
BRANCH  17  19
ATOM     19  O   LIG    1        0.888  -0.795  -0.770  0.00  0.00    -0.464 OA
BRANCH  19  21
ATOM     20  C   LIG    1        0.680   0.858   0.980  0.00  0.00    +0.048 C 
ATOM     21  C   LIG    1        0.049  -0.359   0.301  0.00  0.00    +0.229 C 
ENDBRANCH  19  21
ENDBRANCH  17  19
ENDBRANCH   1  17
TORSDOF 6
