REMARK  Name = ZINC27646610
REMARK                            x       y       z     vdW  Elec       q    Type
REMARK                         _______ _______ _______ _____ _____    ______ ____
ROOT
ATOM      1  C   LIG    1        5.975   0.731  -1.018  0.00  0.00    +0.115 A 
ATOM      2  C   LIG    1        6.162  -0.417  -1.758  0.00  0.00    +0.067 A 
ATOM      3  C   LIG    1        5.166  -1.383  -1.831  0.00  0.00    +0.126 A 
ATOM      4  F   LIG    1        5.367  -2.502  -2.562  0.00  0.00    -0.205 F 
ATOM      5  C   LIG    1        3.974  -1.206  -1.161  0.00  0.00    +0.048 A 
ATOM      6  C   LIG    1        3.772  -0.049  -0.407  0.00  0.00    +0.008 A 
ATOM      7  C   LIG    1        2.661   0.452   0.409  0.00  0.00    -0.018 A 
ATOM      8  C   LIG    1        1.267   0.095   0.876  0.00  0.00    +0.038 C 
ATOM      9  C   LIG    1        0.999   1.029   2.076  0.00  0.00    +0.015 C 
ATOM     10  C   LIG    1        1.929   2.221   1.764  0.00  0.00    +0.047 C 
ATOM     11  C   LIG    1        3.036   1.640   0.904  0.00  0.00    +0.027 A 
ATOM     12  N   LIG    1        4.304   1.942   0.466  0.00  0.00    -0.337 N 
ATOM     13  C   LIG    1        4.780   0.929  -0.335  0.00  0.00    +0.075 A 
ENDROOT
BRANCH   1  15
ATOM     14  C   LIG    1        6.612   3.351  -1.894  0.00  0.00    +0.200 C 
ATOM     15  S   LIG    1        7.248   1.946  -0.939  0.00  0.00    -0.004 S 
ATOM     16  O   LIG    1        8.354   1.357  -1.611  0.00  0.00    -0.170 OA
ATOM     17  O   LIG    1        7.337   2.289   0.437  0.00  0.00    -0.170 OA
ENDBRANCH   1  15
BRANCH  10  18
ATOM     18  C   LIG    1        2.508   2.797   3.057  0.00  0.00    +0.130 C 
BRANCH  18  19
ATOM     19  C   LIG    1        1.419   3.501   3.825  0.00  0.00    +0.305 C 
ATOM     20  O   LIG    1        0.295   3.537   3.383  0.00  0.00    -0.251 OA
BRANCH  19  21
ATOM     21  O   LIG    1        1.697   4.087   5.000  0.00  0.00    -0.481 OA
ATOM     22  H   LIG    1        2.569   4.059   5.343  0.00  0.00    +0.295 HD
ENDBRANCH  19  21
ENDBRANCH  18  19
ENDBRANCH  10  18
BRANCH  12  23
ATOM     23  C   LIG    1        5.041   3.162   0.804  0.00  0.00    +0.157 C 
BRANCH  23  24
ATOM     24  C   LIG    1        5.689   3.000   2.155  0.00  0.00    -0.028 A 
ATOM     25  C   LIG    1        6.328   4.073   2.748  0.00  0.00    +0.007 A 
ATOM     26  C   LIG    1        6.918   3.926   3.989  0.00  0.00    +0.020 A 
ATOM     27  C   LIG    1        6.878   2.702   4.633  0.00  0.00    +0.041 A 
ATOM     28 CL   LIG    1        7.624   2.516   6.190  0.00  0.00    -0.084 Cl
ATOM     29  C   LIG    1        6.244   1.627   4.037  0.00  0.00    +0.020 A 
ATOM     30  C   LIG    1        5.649   1.777   2.798  0.00  0.00    +0.007 A 
ENDBRANCH  23  24
ENDBRANCH  12  23
TORSDOF 6
