REMARK  Name = ZINC14210455
REMARK                            x       y       z     vdW  Elec       q    Type
REMARK                         _______ _______ _______ _____ _____    ______ ____
ROOT
ATOM      1  C   LIG    1        7.555   3.760  -5.715  0.00  0.00    +0.011 C 
ATOM      2  C   LIG    1        6.769   2.517  -5.289  0.00  0.00    -0.025 C 
ATOM      3  C   LIG    1        5.359   2.779  -4.758  0.00  0.00    +0.011 C 
ATOM      4  C   LIG    1        7.557   1.367  -4.659  0.00  0.00    +0.018 C 
ATOM      5  C   LIG    1        6.780   0.331  -3.826  0.00  0.00    +0.113 C 
ATOM      6  N   LIG    1        5.518   0.115  -4.572  0.00  0.00    -0.288 N 
ATOM      7  C   LIG    1        4.278  -0.045  -4.069  0.00  0.00    +0.237 C 
ATOM      8  O   LIG    1        3.327  -0.134  -4.817  0.00  0.00    -0.274 OA
ATOM      9  C   LIG    1        5.928   0.120  -5.995  0.00  0.00    +0.166 C 
ATOM     10  C   LIG    1        6.995   1.233  -6.089  0.00  0.00    +0.030 C 
ENDROOT
BRANCH   9  11
ATOM     11  C   LIG    1        6.520  -1.212  -6.377  0.00  0.00    +0.234 C 
ATOM     12  N   LIG    1        6.612  -1.561  -7.676  0.00  0.00    -0.304 N 
ATOM     13  H   LIG    1        6.298  -0.955  -8.365  0.00  0.00    +0.149 HD
ATOM     14  O   LIG    1        6.912  -1.970  -5.516  0.00  0.00    -0.274 OA
BRANCH  12  15
ATOM     15  C   LIG    1        7.188  -2.856  -8.047  0.00  0.00    +0.149 C 
BRANCH  15  16
ATOM     16  C   LIG    1        8.688  -2.737  -8.121  0.00  0.00    +0.237 C 
ATOM     17  O   LIG    1        9.206  -1.646  -8.159  0.00  0.00    -0.285 OA
BRANCH  16  18
ATOM     18  C   LIG    1        9.533  -3.965  -8.148  0.00  0.00    +0.279 C 
ATOM     19  N   LIG    1       10.875  -3.858  -8.215  0.00  0.00    -0.323 N 
ATOM     20  H   LIG    1       11.425  -4.657  -8.232  0.00  0.00    +0.145 HD
ATOM     21  H   LIG    1       11.291  -2.982  -8.245  0.00  0.00    +0.145 HD
ATOM     22  O   LIG    1        9.013  -5.061  -8.111  0.00  0.00    -0.267 OA
ENDBRANCH  16  18
ENDBRANCH  15  16
BRANCH  15  23
ATOM     23  C   LIG    1        6.642  -3.285  -9.411  0.00  0.00    +0.034 C 
BRANCH  23  24
ATOM     24  C   LIG    1        5.135  -3.527  -9.304  0.00  0.00    -0.009 C 
ATOM     25  C   LIG    1        4.770  -4.957  -8.873  0.00  0.00    +0.003 C 
ATOM     26  C   LIG    1        3.624  -4.888  -9.897  0.00  0.00    +0.001 C 
ATOM     27  C   LIG    1        4.465  -3.845 -10.651  0.00  0.00    +0.003 C 
ENDBRANCH  23  24
ENDBRANCH  15  23
ENDBRANCH  12  15
ENDBRANCH   9  11
BRANCH   7  28
ATOM     28  C   LIG    1        4.072  -0.113  -2.578  0.00  0.00    +0.166 C 
BRANCH  28  29
ATOM     29  N   LIG    1        2.728   0.369  -2.248  0.00  0.00    -0.288 N 
ATOM     30  H   LIG    1        2.021   0.323  -2.910  0.00  0.00    +0.151 HD
ATOM     31  C   LIG    1        2.475   0.875  -1.025  0.00  0.00    +0.301 C 
ATOM     32  N   LIG    1        1.239   1.318  -0.721  0.00  0.00    -0.295 N 
ATOM     33  H   LIG    1        0.532   1.272  -1.383  0.00  0.00    +0.151 HD
ATOM     34  O   LIG    1        3.363   0.933  -0.196  0.00  0.00    -0.253 OA
BRANCH  32  35
ATOM     35  C   LIG    1        0.965   1.869   0.608  0.00  0.00    +0.028 C 
ATOM     36  C   LIG    1       -0.503   2.295   0.690  0.00  0.00    +0.031 C 
ATOM     37  C   LIG    1        1.247   0.804   1.670  0.00  0.00    +0.031 C 
ATOM     38  C   LIG    1        1.863   3.083   0.852  0.00  0.00    +0.031 C 
ENDBRANCH  32  35
ENDBRANCH  28  29
BRANCH  28  39
ATOM     39  C   LIG    1        4.225  -1.560  -2.107  0.00  0.00    -0.011 C 
ATOM     40  C   LIG    1        3.953  -1.639  -0.604  0.00  0.00    +0.013 C 
ATOM     41  C   LIG    1        5.649  -2.042  -2.394  0.00  0.00    +0.013 C 
ATOM     42  C   LIG    1        3.226  -2.447  -2.854  0.00  0.00    +0.013 C 
ENDBRANCH  28  39
ENDBRANCH   7  28
TORSDOF 10
