REMARK  Name = ZINC13776737
REMARK                            x       y       z     vdW  Elec       q    Type
REMARK                         _______ _______ _______ _____ _____    ______ ____
ROOT
ATOM      1  C   LIG    1       -4.189   1.728  -0.360  0.00  0.00    +0.057 C 
ATOM      2  C   LIG    1       -2.764   2.169  -0.020  0.00  0.00    +0.170 C 
ATOM      3  C   LIG    1       -2.224   1.298   1.116  0.00  0.00    +0.049 C 
ATOM      4  C   LIG    1       -0.726   1.578   1.271  0.00  0.00    +0.016 C 
ATOM      5  C   LIG    1       -0.013   1.086   0.008  0.00  0.00    +0.123 C 
ATOM      6  C   LIG    1       -0.735   1.581  -1.211  0.00  0.00    +0.236 C 
ATOM      7  N   LIG    1       -1.926   2.041  -1.204  0.00  0.00    -0.277 N 
ATOM      8  H   LIG    1       -2.391   2.376  -2.143  0.00  0.00    +0.304 HD
ENDROOT
BRANCH   6   9
ATOM      9  N   LIG    1       -0.073   1.537  -2.409  0.00  0.00    -0.254 N 
ATOM     10  H   LIG    1        0.955   1.148  -2.456  0.00  0.00    +0.288 HD
ATOM     11  H   LIG    1       -0.569   1.891  -3.325  0.00  0.00    +0.288 HD
ENDBRANCH   6   9
TORSDOF 1
