REMARK  Name = ZINC18144619
REMARK                            x       y       z     vdW  Elec       q    Type
REMARK                         _______ _______ _______ _____ _____    ______ ____
ROOT
ATOM      1  C   LIG    1        5.966   0.893  -0.053  0.00  0.00    +0.148 C 
ENDROOT
BRANCH   1   8
ATOM      2  C   LIG    1       -0.017   1.396   0.010  0.00  0.00    +0.018 A 
ATOM      3  C   LIG    1        1.147   2.104   0.002  0.00  0.00    +0.031 A 
ATOM      4  C   LIG    1        2.376   1.434  -0.013  0.00  0.00    +0.089 A 
ATOM      5  C   LIG    1        2.402   0.027  -0.021  0.00  0.00    +0.067 A 
ATOM      6  N   LIG    1        3.737  -0.329  -0.037  0.00  0.00    -0.341 N 
ATOM      7  H   LIG    1        4.092  -1.231  -0.045  0.00  0.00    +0.167 HD
ATOM      8  C   LIG    1        4.461   0.821  -0.038  0.00  0.00    +0.115 A 
ATOM      9  C   LIG    1        1.216  -0.687  -0.012  0.00  0.00    +0.043 A 
ATOM     10  N   LIG    1        3.665   1.852  -0.024  0.00  0.00    -0.232 NA
ATOM     11  C   LIG    1        0.002  -0.004   0.002  0.00  0.00    +0.063 A 
BRANCH  11  12
ATOM     12  C   LIG    1       -1.268  -0.759   0.011  0.00  0.00    +0.266 C 
ATOM     13  N   LIG    1       -2.346  -0.243   0.601  0.00  0.00    -0.288 N 
ATOM     14  H   LIG    1       -3.180  -0.738   0.607  0.00  0.00    +0.301 HD
ATOM     15  H   LIG    1       -2.296   0.628   1.025  0.00  0.00    +0.301 HD
BRANCH  12  16
ATOM     16  N   LIG    1       -1.337  -1.955  -0.572  0.00  0.00    -0.250 N 
ATOM     17  H   LIG    1       -2.170  -2.450  -0.567  0.00  0.00    +0.288 HD
ATOM     18  H   LIG    1       -0.552  -2.330  -1.002  0.00  0.00    +0.288 HD
ENDBRANCH  12  16
ENDBRANCH  11  12
ENDBRANCH   1   8
BRANCH   1  19
ATOM     19  C   LIG    1        6.417   1.738  -1.217  0.00  0.00    +0.115 A 
ATOM     20  N   LIG    1        7.234   2.822  -1.123  0.00  0.00    -0.341 N 
ATOM     21  C   LIG    1        7.410   3.316  -2.398  0.00  0.00    +0.066 A 
ATOM     22  C   LIG    1        8.124   4.386  -2.926  0.00  0.00    +0.028 A 
ATOM     23  C   LIG    1        8.102   4.628  -4.269  0.00  0.00    +0.018 A 
ATOM     24  C   LIG    1        7.362   3.804  -5.127  0.00  0.00    +0.063 A 
ATOM     25  C   LIG    1        6.642   2.729  -4.616  0.00  0.00    +0.045 A 
ATOM     26  C   LIG    1        6.663   2.478  -3.245  0.00  0.00    +0.090 A 
ATOM     27  H   LIG    1        7.622   3.180  -0.309  0.00  0.00    +0.167 HD
ATOM     28  N   LIG    1        6.086   1.533  -2.458  0.00  0.00    -0.232 NA
BRANCH  24  29
ATOM     29  C   LIG    1        7.347   4.078  -6.579  0.00  0.00    +0.266 C 
ATOM     30  N   LIG    1        7.482   5.327  -7.023  0.00  0.00    -0.288 N 
ATOM     31  H   LIG    1        7.472   5.506  -7.976  0.00  0.00    +0.301 HD
ATOM     32  H   LIG    1        7.591   6.056  -6.393  0.00  0.00    +0.301 HD
BRANCH  29  33
ATOM     33  N   LIG    1        7.197   3.076  -7.444  0.00  0.00    -0.250 N 
ATOM     34  H   LIG    1        7.187   3.256  -8.398  0.00  0.00    +0.288 HD
ATOM     35  H   LIG    1        7.099   2.167  -7.121  0.00  0.00    +0.288 HD
ENDBRANCH  29  33
ENDBRANCH  24  29
ENDBRANCH   1  19
TORSDOF 6
