REMARK  Name = ZINC13985654
REMARK                            x       y       z     vdW  Elec       q    Type
REMARK                         _______ _______ _______ _____ _____    ______ ____
ROOT
ATOM      1  C   LIG    1        0.568  -0.501  -1.234  0.00  0.00    +0.239 C 
ENDROOT
BRANCH   1   3
ATOM      2  C   LIG    1       -0.263   1.647  -0.264  0.00  0.00    +0.016 C 
ATOM      3  C   LIG    1       -0.308   0.122  -0.145  0.00  0.00    +0.013 C 
ATOM      4  C   LIG    1       -1.750  -0.360  -0.314  0.00  0.00    +0.016 C 
ATOM      5  C   LIG    1        0.212  -0.298   1.231  0.00  0.00    +0.016 C 
ENDBRANCH   1   3
BRANCH   1   6
ATOM      6  N   LIG    1        1.949  -0.040  -1.073  0.00  0.00    -0.283 N 
ATOM      7  H   LIG    1        2.131   0.899  -0.909  0.00  0.00    +0.152 HD
ATOM      8  C   LIG    1        2.967  -0.919  -1.152  0.00  0.00    +0.220 C 
ATOM      9  O   LIG    1        2.748  -2.075  -1.448  0.00  0.00    -0.275 OA
BRANCH   8  10
ATOM     10  C   LIG    1        4.377  -0.467  -0.874  0.00  0.00    +0.131 C 
BRANCH  10  11
ATOM     11  C   LIG    1        5.319  -1.633  -1.029  0.00  0.00    -0.035 A 
ATOM     12  C   LIG    1        5.603  -2.439   0.057  0.00  0.00    +0.008 A 
ATOM     13  C   LIG    1        6.467  -3.510  -0.081  0.00  0.00    +0.049 A 
ATOM     14  C   LIG    1        7.049  -3.777  -1.310  0.00  0.00    +0.161 A 
ATOM     15  C   LIG    1        6.762  -2.966  -2.403  0.00  0.00    +0.162 A 
ATOM     16  C   LIG    1        5.893  -1.897  -2.259  0.00  0.00    +0.053 A 
BRANCH  14  17
ATOM     17  O   LIG    1        7.899  -4.830  -1.447  0.00  0.00    -0.491 OA
ATOM     18  C   LIG    1        8.146  -5.620  -0.282  0.00  0.00    +0.277 C 
ENDBRANCH  14  17
BRANCH  15  19
ATOM     19  O   LIG    1        7.331  -3.224  -3.611  0.00  0.00    -0.491 OA
ATOM     20  C   LIG    1        6.991  -2.349  -4.688  0.00  0.00    +0.277 C 
ENDBRANCH  15  19
ENDBRANCH  10  11
ENDBRANCH   8  10
ENDBRANCH   1   6
BRANCH   1  21
ATOM     21  N   LIG    1        0.070  -0.099  -2.552  0.00  0.00    -0.253 N 
ATOM     22  H   LIG    1       -0.160   0.828  -2.721  0.00  0.00    +0.260 HD
BRANCH  21  23
ATOM     23  C   LIG    1       -0.073  -1.038  -3.551  0.00  0.00    +0.440 C 
ATOM     24  N   LIG    1       -0.626  -0.694  -4.717  0.00  0.00    +0.014 NA
BRANCH  23  25
ATOM     25  N   LIG    1        0.339  -2.285  -3.354  0.00  0.00    -0.069 NA
ATOM     26  C   LIG    1        1.309  -2.807  -4.135  0.00  0.00    +0.151 A 
ATOM     27  C   LIG    1        1.981  -2.012  -5.066  0.00  0.00    +0.046 A 
ATOM     28  C   LIG    1        2.972  -2.555  -5.860  0.00  0.00    +0.006 A 
ATOM     29  C   LIG    1        3.329  -3.885  -5.766  0.00  0.00    +0.026 A 
ATOM     30  C   LIG    1        2.700  -4.730  -4.861  0.00  0.00    +0.050 A 
ATOM     31  N   LIG    1        3.052  -6.052  -4.764  0.00  0.00    -0.361 N 
ATOM     32  H   LIG    1        3.754  -6.414  -5.352  0.00  0.00    +0.165 HD
ATOM     33  C   LIG    1        2.449  -6.858  -3.876  0.00  0.00    +0.083 A 
ATOM     34  C   LIG    1        1.453  -6.397  -3.048  0.00  0.00    +0.018 A 
ATOM     35  C   LIG    1        1.053  -5.069  -3.107  0.00  0.00    +0.015 A 
ATOM     36  C   LIG    1        1.683  -4.218  -4.022  0.00  0.00    +0.040 A 
ENDBRANCH  23  25
BRANCH  24  37
ATOM     37  C   LIG    1       -0.951   0.599  -4.957  0.00  0.00    +0.296 C 
ATOM     38  N   LIG    1       -1.224   1.683  -5.158  0.00  0.00    -0.151 NA
ENDBRANCH  24  37
ENDBRANCH  21  23
ENDBRANCH   1  21
TORSDOF 10
