REMARK  Name = ZINC19808478
REMARK                            x       y       z     vdW  Elec       q    Type
REMARK                         _______ _______ _______ _____ _____    ______ ____
ROOT
ATOM      1  C   LIG    1        0.137  -5.048   1.379  0.00  0.00    +0.393 C 
ATOM      2  N   LIG    1        0.697  -4.345   2.322  0.00  0.00    -0.129 NA
ATOM      3  H   LIG    1        1.546  -4.625   2.697  0.00  0.00    +0.306 HD
ENDROOT
BRANCH   1   4
ATOM      4  N   LIG    1       -1.015  -4.597   0.776  0.00  0.00    -0.243 N 
ATOM      5  H   LIG    1       -1.477  -5.157   0.133  0.00  0.00    +0.265 HD
BRANCH   4  10
ATOM      6  C   LIG    1       -3.062   0.539   2.046  0.00  0.00    +0.045 C 
ATOM      7  C   LIG    1       -2.518  -0.825   1.709  0.00  0.00    -0.032 A 
ATOM      8  C   LIG    1       -2.634  -1.315   0.421  0.00  0.00    +0.008 A 
ATOM      9  C   LIG    1       -2.137  -2.565   0.109  0.00  0.00    +0.042 A 
ATOM     10  C   LIG    1       -1.519  -3.331   1.090  0.00  0.00    +0.101 A 
ATOM     11  C   LIG    1       -1.404  -2.837   2.382  0.00  0.00    +0.062 A 
ATOM     12  C   LIG    1       -1.899  -1.583   2.688  0.00  0.00    +0.047 A 
ATOM     13 CL   LIG    1       -1.750  -0.961   4.301  0.00  0.00    -0.083 Cl
ENDBRANCH   4  10
ENDBRANCH   1   4
BRANCH   1  14
ATOM     14  N   LIG    1        0.698  -6.245   0.986  0.00  0.00    -0.186 N 
ATOM     15  H   LIG    1        1.455  -6.609   1.472  0.00  0.00    +0.271 HD
BRANCH  14  16
ATOM     16  C   LIG    1        0.183  -6.926  -0.098  0.00  0.00    +0.385 C 
ATOM     17  N   LIG    1        0.359  -8.212  -0.202  0.00  0.00    -0.129 NA
ATOM     18  H   LIG    1        0.788  -8.703   0.516  0.00  0.00    +0.306 HD
BRANCH  16  19
ATOM     19  N   LIG    1       -0.515  -6.246  -1.067  0.00  0.00    -0.289 N 
ATOM     20  H   LIG    1       -1.051  -6.734  -1.711  0.00  0.00    +0.255 HD
ATOM     21  H   LIG    1       -0.471  -5.278  -1.107  0.00  0.00    +0.255 HD
ENDBRANCH  16  19
ENDBRANCH  14  16
ENDBRANCH   1  14
TORSDOF 5
