REMARK  Name = ZINC00004321
REMARK                            x       y       z     vdW  Elec       q    Type
REMARK                         _______ _______ _______ _____ _____    ______ ____
ROOT
ATOM      1  C   LIG    1       -0.017   1.362   0.009  0.00  0.00    +0.001 A 
ATOM      2  C   LIG    1        1.169   2.083   0.002  0.00  0.00    +0.004 A 
ATOM      3  C   LIG    1        2.385   1.434  -0.013  0.00  0.00    +0.049 A 
ATOM      4  C   LIG    1        2.426   0.044  -0.021  0.00  0.00    +0.168 A 
ATOM      5  C   LIG    1        1.224  -0.681  -0.013  0.00  0.00    +0.046 A 
ATOM      6  C   LIG    1        1.596  -2.099  -0.025  0.00  0.00    +0.114 A 
ATOM      7  N   LIG    1        2.892  -2.160  -0.037  0.00  0.00    -0.080 NA
ATOM      8  O   LIG    1        3.431  -0.854  -0.035  0.00  0.00    -0.354 OA
ATOM      9  C   LIG    1        0.002  -0.004   0.002  0.00  0.00    +0.013 A 
ENDROOT
BRANCH   6  10
ATOM     10  C   LIG    1        0.648  -3.271  -0.022  0.00  0.00    +0.244 C 
BRANCH  10  11
ATOM     11  S   LIG    1        0.251  -3.731  -1.731  0.00  0.00    +0.033 S 
ATOM     12  O   LIG    1        1.402  -4.261  -2.375  0.00  0.00    -0.158 OA
ATOM     13  O   LIG    1       -0.517  -2.708  -2.348  0.00  0.00    -0.158 OA
BRANCH  11  14
ATOM     14  N   LIG    1       -0.786  -5.015  -1.596  0.00  0.00    -0.208 NA
ATOM     15  H   LIG    1       -0.720  -5.614  -0.836  0.00  0.00    +0.144 HD
ATOM     16  H   LIG    1       -1.460  -5.168  -2.276  0.00  0.00    +0.144 HD
ENDBRANCH  11  14
ENDBRANCH  10  11
ENDBRANCH   6  10
TORSDOF 3
