REMARK  Name = ZINC36805613
REMARK                            x       y       z     vdW  Elec       q    Type
REMARK                         _______ _______ _______ _____ _____    ______ ____
ROOT
ATOM      1  C   LIG    1        0.020   1.364   0.060  0.00  0.00    +0.047 A 
ATOM      2  C   LIG    1        1.214   2.051   0.042  0.00  0.00    +0.023 A 
ATOM      3  C   LIG    1        2.420   1.349  -0.047  0.00  0.00    +0.064 A 
ATOM      4  C   LIG    1        2.409  -0.047  -0.117  0.00  0.00    +0.076 A 
ATOM      5  C   LIG    1        1.211  -0.725  -0.097  0.00  0.00    +0.060 A 
ATOM      6  C   LIG    1        0.014  -0.024  -0.009  0.00  0.00    +0.129 A 
ENDROOT
BRANCH   4   7
ATOM      7  C   LIG    1        3.706  -0.808  -0.213  0.00  0.00    +0.419 C 
ATOM      8  F   LIG    1        4.492  -0.532   0.911  0.00  0.00    -0.166 F 
ATOM      9  F   LIG    1        4.391  -0.418  -1.369  0.00  0.00    -0.166 F 
ATOM     10  F   LIG    1        3.438  -2.180  -0.270  0.00  0.00    -0.166 F 
ENDBRANCH   4   7
BRANCH   3  11
ATOM     11  C   LIG    1        3.663   2.059  -0.067  0.00  0.00    +0.100 C 
ATOM     12  N   LIG    1        4.650   2.622  -0.083  0.00  0.00    -0.191 NA
ENDBRANCH   3  11
BRANCH   6  13
ATOM     13  O   LIG    1       -1.165  -0.697   0.009  0.00  0.00    -0.453 OA
BRANCH  13  14
ATOM     14  C   LIG    1       -1.445  -1.465   1.096  0.00  0.00    +0.164 A 
ATOM     15  C   LIG    1       -0.602  -1.443   2.197  0.00  0.00    +0.052 A 
ATOM     16  C   LIG    1       -0.887  -2.224   3.301  0.00  0.00    +0.042 A 
ATOM     17  C   LIG    1       -2.014  -3.028   3.309  0.00  0.00    +0.126 A 
ATOM     18  F   LIG    1       -2.291  -3.790   4.390  0.00  0.00    -0.205 F 
ATOM     19  C   LIG    1       -2.858  -3.052   2.212  0.00  0.00    +0.080 A 
ATOM     20  C   LIG    1       -2.579  -2.267   1.107  0.00  0.00    +0.168 A 
ATOM     21  F   LIG    1       -3.405  -2.286   0.038  0.00  0.00    -0.202 F 
ENDBRANCH  13  14
ENDBRANCH   6  13
TORSDOF 4
