REMARK  Name = ZINC28219877
REMARK                            x       y       z     vdW  Elec       q    Type
REMARK                         _______ _______ _______ _____ _____    ______ ____
ROOT
ATOM      1  C   LIG    1        0.312   1.873   2.325  0.00  0.00    +0.100 C 
ENDROOT
BRANCH   1   6
ATOM      2  C   LIG    1       -2.985   0.823  -0.409  0.00  0.00    +0.000 C 
ATOM      3  C   LIG    1       -1.940   0.798  -1.544  0.00  0.00    +0.000 C 
ATOM      4  C   LIG    1       -0.766   1.601  -1.235  0.00  0.00    +0.000 C 
ATOM      5  C   LIG    1       -0.013   1.086   0.008  0.00  0.00    +0.006 C 
ATOM      6  C   LIG    1       -0.725   1.575   1.240  0.00  0.00    +0.016 C 
ATOM      7  C   LIG    1       -1.741   0.547   1.779  0.00  0.00    +0.006 C 
ATOM      8  C   LIG    1       -2.550  -0.140   0.662  0.00  0.00    +0.000 C 
ENDBRANCH   1   6
BRANCH   1   9
ATOM      9  O   LIG    1        1.040   0.682   2.629  0.00  0.00    -0.393 OA
ATOM     10  H   LIG    1        1.833   0.701   3.391  0.00  0.00    +0.210 HD
ENDBRANCH   1   9
BRANCH   1  11
ATOM     11  C   LIG    1       -0.398   2.372   3.585  0.00  0.00    -0.054 C 
BRANCH  11  12
ATOM     12  N   LIG    1        0.602   2.772   4.585  0.00  0.00    +0.380 N 
ATOM     13  H   LIG    1        1.233   1.907   4.838  0.00  0.00    -0.090 HD
ATOM     14  H   LIG    1        1.229   3.577   4.174  0.00  0.00    -0.090 HD
ATOM     15  H   LIG    1        0.091   3.131   5.491  0.00  0.00    -0.090 HD
ENDBRANCH  11  12
ENDBRANCH   1  11
TORSDOF 4
