REMARK  Name = ZINC19015150
REMARK                            x       y       z     vdW  Elec       q    Type
REMARK                         _______ _______ _______ _____ _____    ______ ____
ROOT
ATOM      1  N   LIG    1        3.594   2.000  -0.021  0.00  0.00    -0.319 N 
ATOM      2  C   LIG    1        3.701   2.917   1.123  0.00  0.00    +0.087 C 
ATOM      3  C   LIG    1        5.019   3.688   1.034  0.00  0.00    -0.063 C 
ATOM      4  N   LIG    1        6.147   2.737   1.025  0.00  0.00    +0.381 N 
ATOM      5  H   LIG    1        7.029   3.258   0.958  0.00  0.00    -0.086 HD
ATOM      6  H   LIG    1        6.138   2.192   1.895  0.00  0.00    -0.086 HD
ATOM      7  C   LIG    1        6.034   1.821  -0.126  0.00  0.00    -0.063 C 
ATOM      8  C   LIG    1        4.715   1.050  -0.037  0.00  0.00    +0.087 C 
ENDROOT
BRANCH   1  11
ATOM      9  C   LIG    1       -0.017   1.385   0.010  0.00  0.00    +0.025 A 
ATOM     10  C   LIG    1        1.190   2.062   0.002  0.00  0.00    +0.045 A 
ATOM     11  C   LIG    1        2.374   1.333  -0.013  0.00  0.00    +0.121 A 
ATOM     12  N   LIG    1        2.351   0.009  -0.020  0.00  0.00    -0.239 NA
ATOM     13  C   LIG    1        1.216  -0.664  -0.013  0.00  0.00    +0.132 A 
ATOM     14  C   LIG    1        0.002  -0.004   0.002  0.00  0.00    +0.059 A 
ATOM     15 CL   LIG    1       -1.484  -0.901   0.012  0.00  0.00    -0.082 Cl
ENDBRANCH   1  11
TORSDOF 1
