REMARK  Name = ZINC29326774
REMARK                            x       y       z     vdW  Elec       q    Type
REMARK                         _______ _______ _______ _____ _____    ______ ____
ROOT
ATOM      1  C   LIG    1        1.151   3.592   0.010  0.00  0.00    +0.042 C 
ENDROOT
BRANCH   1   5
ATOM      2  C   LIG    1        1.208  -0.679  -0.014  0.00  0.00    +0.000 A 
ATOM      3  C   LIG    1        0.002  -0.004   0.002  0.00  0.00    +0.000 A 
ATOM      4  C   LIG    1       -0.017   1.378   0.010  0.00  0.00    +0.002 A 
ATOM      5  C   LIG    1        1.171   2.086   0.002  0.00  0.00    -0.053 A 
ATOM      6  C   LIG    1        2.377   1.411  -0.014  0.00  0.00    +0.002 A 
ATOM      7  C   LIG    1        2.396   0.029  -0.021  0.00  0.00    +0.000 A 
ENDBRANCH   1   5
BRANCH   1   8
ATOM      8  N   LIG    1        2.271   4.101  -0.792  0.00  0.00    +0.389 N 
ATOM      9  H   LIG    1        3.220   3.745  -0.365  0.00  0.00    -0.088 HD
ATOM     10  H   LIG    1        2.176   3.739  -1.827  0.00  0.00    -0.088 HD
ATOM     11  H   LIG    1        2.256   5.201  -0.787  0.00  0.00    -0.088 HD
ENDBRANCH   1   8
BRANCH   1  12
ATOM     12  P   LIG    1        1.308   4.193   1.724  0.00  0.00    +0.181 P 
ATOM     13  O   LIG    1        2.708   4.034   2.176  0.00  0.00    -0.296 OA
ATOM     14  H   LIG    1        0.757   3.667   2.517  0.00  0.00    +0.127 HD
BRANCH  12  15
ATOM     15  O   LIG    1        0.898   5.749   1.787  0.00  0.00    -0.346 OA
ATOM     16  H   LIG    1       -0.020   5.853   1.491  0.00  0.00    +0.217 HD
ENDBRANCH  12  15
ENDBRANCH   1  12
TORSDOF 4
