REMARK  Name = ZINC34001955
REMARK                            x       y       z     vdW  Elec       q    Type
REMARK                         _______ _______ _______ _____ _____    ______ ____
ROOT
ATOM      1  C   LIG    1       -0.056   1.608   0.002  0.00  0.00    +0.029 C 
ATOM      2  C   LIG    1       -0.561   0.250   0.493  0.00  0.00    +0.087 C 
ATOM      3  C   LIG    1       -2.036   0.363   0.893  0.00  0.00    +0.107 C 
ATOM      4  N   LIG    1       -2.472  -0.899   1.506  0.00  0.00    -0.292 NA
ATOM      5  C   LIG    1       -1.733  -1.171   2.746  0.00  0.00    +0.071 C 
ATOM      6  C   LIG    1       -2.271  -2.451   3.390  0.00  0.00    +0.026 C 
ATOM      7  C   LIG    1       -0.245  -1.348   2.422  0.00  0.00    +0.127 C 
ATOM      8  N   LIG    1        0.216  -0.171   1.669  0.00  0.00    -0.292 N 
ATOM      9  C   LIG    1        1.316   0.508   2.050  0.00  0.00    +0.248 C 
ATOM     10  O   LIG    1        1.709   1.450   1.389  0.00  0.00    -0.270 OA
ENDROOT
BRANCH   9  11
ATOM     11  C   LIG    1        2.046   0.107   3.269  0.00  0.00    +0.056 A 
ATOM     12  C   LIG    1        2.108  -1.237   3.635  0.00  0.00    +0.025 A 
ATOM     13  C   LIG    1        2.796  -1.603   4.782  0.00  0.00    +0.012 A 
ATOM     14  C   LIG    1        3.428  -0.627   5.573  0.00  0.00    +0.051 A 
ATOM     15  N   LIG    1        4.026  -1.273   6.634  0.00  0.00    -0.349 N 
ATOM     16  C   LIG    1        4.789  -0.604   7.691  0.00  0.00    +0.149 C 
ATOM     17  C   LIG    1        3.814  -2.600   6.568  0.00  0.00    +0.098 A 
ATOM     18  C   LIG    1        3.359   0.712   5.198  0.00  0.00    +0.047 A 
ATOM     19  C   LIG    1        3.059  -2.894   5.449  0.00  0.00    +0.052 A 
ATOM     20  C   LIG    1        2.681   1.076   4.058  0.00  0.00    +0.055 A 
ATOM     21 CL   LIG    1        2.607   2.747   3.595  0.00  0.00    -0.083 Cl
BRANCH  19  22
ATOM     22  C   LIG    1        2.611  -4.216   5.013  0.00  0.00    +0.249 C 
ATOM     23  O   LIG    1        1.947  -4.330   4.002  0.00  0.00    -0.282 OA
BRANCH  22  24
ATOM     24  C   LIG    1        2.968  -5.425   5.811  0.00  0.00    +0.287 C 
ATOM     25  N   LIG    1        2.693  -6.654   5.331  0.00  0.00    -0.301 N 
ATOM     26  C   LIG    1        2.172  -6.810   3.971  0.00  0.00    +0.132 C 
ATOM     27  C   LIG    1        2.915  -7.834   6.170  0.00  0.00    +0.132 C 
ATOM     28  O   LIG    1        3.507  -5.302   6.892  0.00  0.00    -0.266 OA
ENDBRANCH  22  24
ENDBRANCH  19  22
ENDBRANCH   9  11
BRANCH   4  29
ATOM     29  C   LIG    1       -3.921  -0.893   1.748  0.00  0.00    +0.120 C 
BRANCH  29  30
ATOM     30  C   LIG    1       -4.649  -0.949   0.430  0.00  0.00    -0.033 A 
ATOM     31  C   LIG    1       -4.982   0.222  -0.226  0.00  0.00    +0.008 A 
ATOM     32  C   LIG    1       -5.650   0.172  -1.435  0.00  0.00    +0.038 A 
ATOM     33  C   LIG    1       -5.986  -1.052  -1.989  0.00  0.00    +0.123 A 
ATOM     34  F   LIG    1       -6.639  -1.102  -3.171  0.00  0.00    -0.205 F 
ATOM     35  C   LIG    1       -5.652  -2.224  -1.332  0.00  0.00    +0.038 A 
ATOM     36  C   LIG    1       -4.980  -2.171  -0.126  0.00  0.00    +0.008 A 
ENDBRANCH  29  30
ENDBRANCH   4  29
TORSDOF 5
