REMARK  Name = ZINC49033427
REMARK                            x       y       z     vdW  Elec       q    Type
REMARK                         _______ _______ _______ _____ _____    ______ ____
ROOT
ATOM      1  N   LIG    1        0.133  -2.739  -0.015  0.00  0.00    -0.175 NA
ATOM      2  C   LIG    1        0.154  -4.064  -0.024  0.00  0.00    +0.173 C 
ATOM      3  C   LIG    1       -0.990  -4.999  -0.024  0.00  0.00    +0.144 C 
ATOM      4  N   LIG    1       -0.457  -6.207  -0.034  0.00  0.00    -0.142 NA
ATOM      5  N   LIG    1        0.822  -6.160  -0.040  0.00  0.00    -0.109 NA
ATOM      6  C   LIG    1        1.288  -4.929  -0.041  0.00  0.00    +0.262 C 
ENDROOT
BRANCH   3   7
ATOM      7  C   LIG    1       -2.427  -4.654  -0.014  0.00  0.00    +0.093 A 
ATOM      8  C   LIG    1       -3.383  -5.671  -0.010  0.00  0.00    +0.030 A 
ATOM      9  C   LIG    1       -4.724  -5.333  -0.001  0.00  0.00    +0.004 A 
ATOM     10  C   LIG    1       -5.068  -3.988   0.005  0.00  0.00    +0.020 A 
ATOM     11  C   LIG    1       -4.070  -3.031   0.001  0.00  0.00    +0.111 A 
ATOM     12  N   LIG    1       -2.799  -3.379  -0.003  0.00  0.00    -0.253 NA
ENDBRANCH   3   7
BRANCH   1  13
ATOM     13  N   LIG    1        1.239  -2.075  -0.022  0.00  0.00    -0.236 N 
ATOM     14  H   LIG    1        2.087  -2.547  -0.034  0.00  0.00    +0.174 HD
BRANCH  13  20
ATOM     15  C   LIG    1       -0.017   1.376   0.010  0.00  0.00    +0.002 A 
ATOM     16  C   LIG    1        1.171   2.087   0.002  0.00  0.00    +0.002 A 
ATOM     17  C   LIG    1        2.381   1.418  -0.013  0.00  0.00    +0.022 A 
ATOM     18  C   LIG    1        2.408   0.036  -0.021  0.00  0.00    +0.063 A 
ATOM     19 CL   LIG    1        3.928  -0.803  -0.041  0.00  0.00    -0.082 Cl
ATOM     20  C   LIG    1        1.216  -0.681  -0.014  0.00  0.00    +0.067 A 
ATOM     21  C   LIG    1        0.002  -0.004   0.002  0.00  0.00    +0.026 A 
ENDBRANCH  13  20
ENDBRANCH   1  13
BRANCH   6  22
ATOM     22  O   LIG    1        2.592  -4.556  -0.051  0.00  0.00    -0.490 OA
ATOM     23  H   LIG    1        2.819  -3.647  -0.050  0.00  0.00    +0.294 HD
ENDBRANCH   6  22
TORSDOF 4
