REMARK  Name = ZINC36709982
REMARK                            x       y       z     vdW  Elec       q    Type
REMARK                         _______ _______ _______ _____ _____    ______ ____
ROOT
ATOM      1  C   LIG    1       -2.125  -0.137  -1.266  0.00  0.00    +0.022 A 
ATOM      2  C   LIG    1       -2.203  -0.804  -2.458  0.00  0.00    +0.118 A 
ATOM      3  N   LIG    1       -2.879  -0.255  -3.467  0.00  0.00    -0.222 NA
ATOM      4  C   LIG    1       -3.470   0.917  -3.334  0.00  0.00    +0.156 A 
ATOM      5  S   LIG    1       -3.075   1.330  -1.641  0.00  0.00    -0.057 S 
ENDROOT
BRANCH   2   6
ATOM      6  C   LIG    1       -1.547  -2.118  -2.625  0.00  0.00    +0.155 A 
ATOM      7  C   LIG    1       -2.011  -3.152  -3.375  0.00  0.00    +0.052 A 
ATOM      8  C   LIG    1       -1.074  -4.199  -3.248  0.00  0.00    +0.058 A 
ATOM      9  C   LIG    1       -0.096  -3.755  -2.436  0.00  0.00    +0.216 A 
ATOM     10  O   LIG    1       -0.381  -2.495  -2.065  0.00  0.00    -0.446 OA
BRANCH   9  11
ATOM     11  P   LIG    1        1.369  -4.700  -1.931  0.00  0.00    +0.393 P 
ATOM     12  O   LIG    1        0.932  -5.910  -1.076  0.00  0.00    -0.250 OA
BRANCH  11  13
ATOM     13  O   LIG    1        2.345  -3.755  -1.067  0.00  0.00    -0.319 OA
ATOM     14  H   LIG    1        3.150  -4.195  -0.763  0.00  0.00    +0.220 HD
ENDBRANCH  11  13
BRANCH  11  15
ATOM     15  O   LIG    1        2.116  -5.200  -3.188  0.00  0.00    -0.319 OA
ATOM     16  H   LIG    1        1.529  -5.769  -3.708  0.00  0.00    +0.220 HD
ENDBRANCH  11  15
ENDBRANCH   9  11
ENDBRANCH   2   6
BRANCH   4  17
ATOM     17  N   LIG    1       -4.207   1.636  -4.261  0.00  0.00    -0.337 N 
ATOM     18  H   LIG    1       -4.586   2.495  -4.019  0.00  0.00    +0.144 HD
ATOM     19  H   LIG    1       -4.344   1.280  -5.153  0.00  0.00    +0.144 HD
ENDBRANCH   4  17
BRANCH   1  20
ATOM     20  C   LIG    1       -1.433  -0.534   0.013  0.00  0.00    +0.047 C 
BRANCH  20  22
ATOM     21  C   LIG    1       -0.019   1.526   0.010  0.00  0.00    +0.007 C 
ATOM     22  C   LIG    1        0.002  -0.004   0.002  0.00  0.00    -0.012 C 
ATOM     23  C   LIG    1        0.742  -0.511   1.242  0.00  0.00    +0.007 C 
ENDBRANCH  20  22
ENDBRANCH   1  20
TORSDOF 7
