REMARK  Name = ZINC13762607
REMARK                            x       y       z     vdW  Elec       q    Type
REMARK                         _______ _______ _______ _____ _____    ______ ____
ROOT
ATOM      1  C   LIG    1       -2.141   1.037   1.487  0.00  0.00    +0.056 A 
ATOM      2  C   LIG    1       -2.297  -0.241   2.019  0.00  0.00    +0.043 A 
ATOM      3  C   LIG    1       -3.556  -0.861   1.904  0.00  0.00    +0.129 A 
ATOM      4  N   LIG    1       -4.539  -0.207   1.297  0.00  0.00    -0.199 NA
ATOM      5  C   LIG    1       -4.343   1.008   0.806  0.00  0.00    +0.214 A 
ATOM      6  N   LIG    1       -3.173   1.622   0.902  0.00  0.00    -0.219 NA
ENDROOT
BRANCH   2   7
ATOM      7  C   LIG    1       -1.168  -0.931   2.688  0.00  0.00    -0.011 A 
ATOM      8  C   LIG    1       -0.068  -1.353   1.932  0.00  0.00    +0.010 A 
ATOM      9  C   LIG    1        1.006  -1.994   2.526  0.00  0.00    +0.023 A 
ATOM     10  C   LIG    1        1.008  -2.241   3.881  0.00  0.00    +0.069 A 
ATOM     11 CL   LIG    1        2.352  -3.053   4.622  0.00  0.00    -0.081 Cl
ATOM     12  C   LIG    1       -0.136  -1.813   4.689  0.00  0.00    +0.119 A 
ATOM     13  C   LIG    1       -1.216  -1.155   4.052  0.00  0.00    +0.040 A 
BRANCH  12  14
ATOM     14  N   LIG    1       -0.159  -2.038   5.995  0.00  0.00    -0.073 NA
ATOM     15  N   LIG    1       -1.042  -1.705   6.607  0.00  0.00    -0.192 NA
ATOM     16  N   LIG    1       -1.924  -1.372   7.218  0.00  0.00    -0.127 NA
ATOM     17  H   LIG    1       -2.722  -1.007   6.773  0.00  0.00    +0.228 HD
ENDBRANCH  12  14
ENDBRANCH   2   7
BRANCH   3  18
ATOM     18  N   LIG    1       -3.765  -2.129   2.415  0.00  0.00    -0.343 N 
ATOM     19  H   LIG    1       -4.635  -2.549   2.331  0.00  0.00    +0.144 HD
ATOM     20  H   LIG    1       -3.040  -2.599   2.857  0.00  0.00    +0.144 HD
ENDBRANCH   3  18
BRANCH   5  21
ATOM     21  N   LIG    1       -5.393   1.657   0.181  0.00  0.00    -0.327 N 
ATOM     22  H   LIG    1       -5.265   2.546  -0.183  0.00  0.00    +0.145 HD
ATOM     23  H   LIG    1       -6.257   1.222   0.107  0.00  0.00    +0.145 HD
ENDBRANCH   5  21
BRANCH   1  25
ATOM     24  C   LIG    1       -0.751   2.533   2.895  0.00  0.00    +0.010 C 
ATOM     25  C   LIG    1       -0.815   1.747   1.584  0.00  0.00    +0.053 C 
ENDBRANCH   1  25
TORSDOF 5
