REMARK  Name = ZINC25605618
REMARK                            x       y       z     vdW  Elec       q    Type
REMARK                         _______ _______ _______ _____ _____    ______ ____
ROOT
ATOM      1  C   LIG    1        1.275   2.605   1.460  0.00  0.00    +0.124 C 
ATOM      2  C   LIG    1        1.253   2.031   0.009  0.00  0.00    +0.154 C 
ATOM      3  C   LIG    1        0.060   1.073  -0.023  0.00  0.00    +0.003 C 
ATOM      4  C   LIG    1       -1.026   1.826  -0.036  0.00  0.00    +0.003 C 
ATOM      5  C   LIG    1       -0.548   3.280  -0.004  0.00  0.00    +0.156 C 
ATOM      6  O   LIG    1        0.710   3.163  -0.752  0.00  0.00    -0.364 OA
ATOM      7  C   LIG    1       -0.013   3.505   1.445  0.00  0.00    +0.145 C 
ENDROOT
BRANCH   1  10
ATOM      8  C   LIG    1        2.166  -0.314   3.769  0.00  0.00    +0.131 C 
ATOM      9  N   LIG    1        2.278   0.824   2.853  0.00  0.00    -0.307 N 
ATOM     10  C   LIG    1        1.173   1.499   2.478  0.00  0.00    +0.222 C 
ATOM     11  O   LIG    1        0.097   1.216   2.961  0.00  0.00    -0.275 OA
ATOM     12  C   LIG    1        3.591   1.228   2.344  0.00  0.00    +0.131 C 
ENDBRANCH   1  10
BRANCH   7  13
ATOM     13  C   LIG    1        0.334   4.953   1.673  0.00  0.00    +0.311 C 
ATOM     14  O   LIG    1        1.469   5.268   1.942  0.00  0.00    -0.251 OA
BRANCH  13  15
ATOM     15  O   LIG    1       -0.619   5.894   1.579  0.00  0.00    -0.480 OA
ATOM     16  H   LIG    1       -1.499   5.651   1.371  0.00  0.00    +0.295 HD
ENDBRANCH  13  15
ENDBRANCH   7  13
TORSDOF 3
