REMARK  Name = ZINC00021815
REMARK                            x       y       z     vdW  Elec       q    Type
REMARK                         _______ _______ _______ _____ _____    ______ ____
ROOT
ATOM      1  C   LIG    1       -0.018   1.503   0.010  0.00  0.00    +0.007 C 
ATOM      2  C   LIG    1        0.002  -0.004   0.002  0.00  0.00    -0.010 C 
ATOM      3  C   LIG    1        0.006  -0.708  -1.196  0.00  0.00    +0.022 C 
ATOM      4  C   LIG    1        0.025  -2.087  -1.169  0.00  0.00    +0.058 C 
ATOM      5  N   LIG    1        0.040  -2.742  -0.023  0.00  0.00    -0.298 NA
ATOM      6  H   LIG    1        0.054  -3.712  -0.033  0.00  0.00    +0.124 HD
ATOM      7  C   LIG    1        0.036  -2.108   1.139  0.00  0.00    +0.119 C 
ATOM      8  C   LIG    1        0.023  -0.717   1.187  0.00  0.00    +0.037 C 
ENDROOT
BRANCH   4   9
ATOM      9  C   LIG    1        0.029  -2.856  -2.465  0.00  0.00    -0.000 C 
ATOM     10  C   LIG    1       -1.404  -3.244  -2.832  0.00  0.00    +0.009 C 
ATOM     11  C   LIG    1        0.875  -4.121  -2.305  0.00  0.00    +0.009 C 
ENDBRANCH   4   9
BRANCH   7  12
ATOM     12  N   LIG    1        0.052  -2.838   2.322  0.00  0.00    -0.316 NA
ATOM     13  H   LIG    1        0.049  -2.377   3.176  0.00  0.00    +0.120 HD
ATOM     14  H   LIG    1        0.065  -3.807   2.294  0.00  0.00    +0.120 HD
ENDBRANCH   7  12
TORSDOF 2
