REMARK  Name = ZINC36175372
REMARK                            x       y       z     vdW  Elec       q    Type
REMARK                         _______ _______ _______ _____ _____    ______ ____
ROOT
ATOM      1  C   LIG    1       -0.017   1.384   0.010  0.00  0.00    +0.021 A 
ATOM      2  C   LIG    1        1.151   2.094   0.002  0.00  0.00    +0.013 A 
ATOM      3  C   LIG    1        2.374   1.416  -0.013  0.00  0.00    +0.021 A 
ATOM      4  C   LIG    1        3.644   2.147  -0.021  0.00  0.00    -0.019 A 
ATOM      5  C   LIG    1        4.797   1.431  -0.035  0.00  0.00    +0.096 A 
ATOM      6  C   LIG    1        4.746   0.021  -0.042  0.00  0.00    +0.337 A 
ATOM      7  O   LIG    1        3.580  -0.643  -0.035  0.00  0.00    -0.422 OA
ATOM      8  O   LIG    1        5.788  -0.611  -0.055  0.00  0.00    -0.245 OA
ATOM      9  C   LIG    1        2.398   0.009  -0.021  0.00  0.00    +0.141 A 
ATOM     10  C   LIG    1        1.200  -0.692  -0.013  0.00  0.00    +0.067 A 
ATOM     11  C   LIG    1        0.002  -0.004   0.002  0.00  0.00    +0.044 A 
ATOM     12 CL   LIG    1       -1.494  -0.884   0.012  0.00  0.00    -0.083 Cl
ENDROOT
BRANCH   4  13
ATOM     13  C   LIG    1        3.669   3.654  -0.013  0.00  0.00    +0.156 C 
BRANCH  13  14
ATOM     14  C   LIG    1        3.541   4.166  -1.425  0.00  0.00    +0.309 C 
ATOM     15  O   LIG    1        3.439   3.380  -2.351  0.00  0.00    -0.251 OA
BRANCH  14  16
ATOM     16  O   LIG    1        3.540   5.366  -1.641  0.00  0.00    -0.480 OA
ATOM     17  H   LIG    1        3.618   5.970  -0.929  0.00  0.00    +0.295 HD
ENDBRANCH  14  16
ENDBRANCH  13  14
ENDBRANCH   4  13
TORSDOF 3
