REMARK  Name = ZINC29043264
REMARK                            x       y       z     vdW  Elec       q    Type
REMARK                         _______ _______ _______ _____ _____    ______ ____
ROOT
ATOM      1  N   LIG    1       -4.547  -2.577  -0.287  0.00  0.00    -0.260 N 
ATOM      2  C   LIG    1       -5.161  -2.527   0.918  0.00  0.00    +0.266 A 
ATOM      3  C   LIG    1       -5.589  -1.208   1.404  0.00  0.00    +0.065 A 
ATOM      4  C   LIG    1       -6.229  -1.047   2.631  0.00  0.00    +0.015 A 
ATOM      5  C   LIG    1       -6.609   0.213   3.039  0.00  0.00    +0.001 A 
ATOM      6  C   LIG    1       -6.359   1.320   2.238  0.00  0.00    +0.002 A 
ATOM      7  C   LIG    1       -5.728   1.183   1.022  0.00  0.00    +0.028 A 
ATOM      8  C   LIG    1       -5.333  -0.084   0.587  0.00  0.00    +0.078 A 
ATOM      9  N   LIG    1       -4.708  -0.264  -0.603  0.00  0.00    -0.232 NA
ATOM     10  O   LIG    1       -5.352  -3.535   1.573  0.00  0.00    -0.267 OA
ATOM     11  C   LIG    1       -4.336  -1.442  -1.005  0.00  0.00    +0.135 A 
ENDROOT
BRANCH   1  17
ATOM     12  C   LIG    1       -2.881  -4.330  -0.423  0.00  0.00    +0.144 A 
ATOM     13  C   LIG    1       -2.465  -5.552  -0.925  0.00  0.00    +0.048 A 
ATOM     14  C   LIG    1       -3.275  -6.252  -1.800  0.00  0.00    +0.004 A 
ATOM     15  C   LIG    1       -4.501  -5.735  -2.177  0.00  0.00    +0.002 A 
ATOM     16  C   LIG    1       -4.923  -4.516  -1.681  0.00  0.00    +0.030 A 
ATOM     17  C   LIG    1       -4.118  -3.811  -0.797  0.00  0.00    +0.093 A 
BRANCH  12  18
ATOM     18  O   LIG    1       -2.085  -3.641   0.438  0.00  0.00    -0.490 OA
BRANCH  18  20
ATOM     19  C   LIG    1       -0.083  -3.323   1.754  0.00  0.00    +0.048 C 
ATOM     20  C   LIG    1       -0.833  -4.237   0.783  0.00  0.00    +0.226 C 
ENDBRANCH  18  20
ENDBRANCH  12  18
ENDBRANCH   1  17
BRANCH  11  21
ATOM     21  C   LIG    1       -3.642  -1.556  -2.338  0.00  0.00    +0.120 C 
ATOM     22  C   LIG    1       -2.150  -1.265  -2.163  0.00  0.00    +0.032 C 
BRANCH  21  23
ATOM     23  N   LIG    1       -4.223  -0.587  -3.277  0.00  0.00    -0.290 NA
ATOM     24  C   LIG    1       -5.665  -0.812  -3.442  0.00  0.00    +0.104 C 
ATOM     25  C   LIG    1       -6.263   0.322  -4.280  0.00  0.00    +0.123 C 
ATOM     26  N   LIG    1       -5.503   0.426  -5.535  0.00  0.00    -0.296 N 
ATOM     27  C   LIG    1       -6.133   0.438  -6.727  0.00  0.00    +0.253 C 
ATOM     28  O   LIG    1       -5.490   0.524  -7.752  0.00  0.00    -0.272 OA
ATOM     29  C   LIG    1       -4.037   0.517  -5.455  0.00  0.00    +0.123 C 
ATOM     30  C   LIG    1       -3.527  -0.625  -4.570  0.00  0.00    +0.104 C 
BRANCH  27  31
ATOM     31  C   LIG    1       -7.636   0.344  -6.785  0.00  0.00    +0.324 C 
BRANCH  31  32
ATOM     32  O   LIG    1       -8.062   0.376  -8.149  0.00  0.00    -0.483 OA
BRANCH  32  33
ATOM     33  C   LIG    1       -9.400   0.300  -8.379  0.00  0.00    +0.121 A 
ATOM     34  C   LIG    1      -10.283   0.191  -7.315  0.00  0.00    +0.047 A 
ATOM     35  C   LIG    1      -11.642   0.119  -7.551  0.00  0.00    +0.023 A 
ATOM     36  C   LIG    1      -12.122   0.145  -8.848  0.00  0.00    +0.041 A 
ATOM     37 CL   LIG    1      -13.831   0.048  -9.142  0.00  0.00    -0.084 Cl
ATOM     38  C   LIG    1      -11.243   0.249  -9.911  0.00  0.00    +0.023 A 
ATOM     39  C   LIG    1       -9.883   0.326  -9.679  0.00  0.00    +0.047 A 
ENDBRANCH  32  33
ENDBRANCH  31  32
ENDBRANCH  27  31
ENDBRANCH  21  23
ENDBRANCH  11  21
TORSDOF 8
