REMARK  Name = ZINC45245351
REMARK                            x       y       z     vdW  Elec       q    Type
REMARK                         _______ _______ _______ _____ _____    ______ ____
ROOT
ATOM      1  C   LIG    1        3.699  -0.689  -0.037  0.00  0.00    -0.018 A 
ATOM      2  C   LIG    1        4.896   0.024  -0.040  0.00  0.00    +0.009 A 
ATOM      3  C   LIG    1        6.099  -0.652  -0.055  0.00  0.00    +0.004 A 
ATOM      4  C   LIG    1        6.118  -2.035  -0.068  0.00  0.00    -0.046 A 
ATOM      5  C   LIG    1        4.932  -2.748  -0.066  0.00  0.00    +0.004 A 
ATOM      6  C   LIG    1        3.724  -2.082  -0.045  0.00  0.00    +0.009 A 
ENDROOT
BRANCH   1  10
ATOM      7  C   LIG    1       -0.017   1.379   0.010  0.00  0.00    +0.000 A 
ATOM      8  C   LIG    1        1.169   2.092   0.002  0.00  0.00    +0.001 A 
ATOM      9  C   LIG    1        2.377   1.426  -0.013  0.00  0.00    +0.008 A 
ATOM     10  C   LIG    1        2.402   0.033  -0.021  0.00  0.00    -0.018 A 
ATOM     11  C   LIG    1        1.205  -0.680  -0.013  0.00  0.00    +0.008 A 
ATOM     12  C   LIG    1        0.002  -0.004   0.002  0.00  0.00    +0.001 A 
ENDBRANCH   1  10
BRANCH   4  13
ATOM     13  C   LIG    1        7.434  -2.768  -0.085  0.00  0.00    +0.058 C 
BRANCH  13  14
ATOM     14  C   LIG    1        7.891  -3.030   1.352  0.00  0.00    +0.171 C 
BRANCH  14  15
ATOM     15  S   LIG    1        9.476  -3.912   1.331  0.00  0.00    -0.020 S 
ATOM     16  O   LIG    1       10.460  -3.055   0.769  0.00  0.00    -0.174 OA
ATOM     17  O   LIG    1        9.268  -5.196   0.758  0.00  0.00    -0.174 OA
BRANCH  15  18
ATOM     18  C   LIG    1        9.839  -4.124   3.096  0.00  0.00    +0.285 C 
BRANCH  18  19
ATOM     19  C   LIG    1       11.148  -4.853   3.255  0.00  0.00    +0.326 C 
ATOM     20  O   LIG    1       11.778  -5.198   2.270  0.00  0.00    -0.249 OA
BRANCH  19  21
ATOM     21  O   LIG    1       11.578  -5.098   4.370  0.00  0.00    -0.479 OA
ATOM     22  H   LIG    1       11.094  -4.833   5.127  0.00  0.00    +0.295 HD
ENDBRANCH  19  21
ENDBRANCH  18  19
ENDBRANCH  15  18
ENDBRANCH  14  15
ENDBRANCH  13  14
ENDBRANCH   4  13
TORSDOF 7
