REMARK  Name = ZINC27996873
REMARK                            x       y       z     vdW  Elec       q    Type
REMARK                         _______ _______ _______ _____ _____    ______ ____
ROOT
ATOM      1  C   LIG    1       -0.013   1.076   0.008  0.00  0.00    +0.011 C 
ATOM      2  C   LIG    1       -1.174   1.726   0.017  0.00  0.00    +0.089 C 
ENDROOT
BRANCH   1   4
ATOM      3  C   LIG    1        2.155   1.391   1.171  0.00  0.00    +0.042 C 
ATOM      4  C   LIG    1        1.282   1.847  -0.000  0.00  0.00    +0.135 C 
BRANCH   4   5
ATOM      5  O   LIG    1        1.006   3.243   0.127  0.00  0.00    -0.388 OA
ATOM      6  H   LIG    1        0.388   3.753  -0.627  0.00  0.00    +0.210 HD
ENDBRANCH   4   5
ENDBRANCH   1   4
BRANCH   2   7
ATOM      7  C   LIG    1       -2.437   0.974   0.019  0.00  0.00    +0.329 C 
ATOM      8  O   LIG    1       -2.420  -0.242   0.012  0.00  0.00    -0.246 OA
BRANCH   7   9
ATOM      9  O   LIG    1       -3.613   1.632   0.028  0.00  0.00    -0.478 OA
ATOM     10  H   LIG    1       -3.626   2.568   0.033  0.00  0.00    +0.295 HD
ENDBRANCH   7   9
ENDBRANCH   2   7
TORSDOF 4
