REMARK  Name = ZINC17885367
REMARK                            x       y       z     vdW  Elec       q    Type
REMARK                         _______ _______ _______ _____ _____    ______ ____
ROOT
ATOM      1  S   LIG    1        0.243  -3.986  -0.093  0.00  0.00    +0.061 S 
ATOM      2  O   LIG    1       -0.443  -4.516  -1.219  0.00  0.00    -0.153 OA
ATOM      3  O   LIG    1       -0.278  -4.071   1.226  0.00  0.00    -0.153 OA
ENDROOT
BRANCH   1   4
ATOM      4  N   LIG    1        1.732  -4.710  -0.061  0.00  0.00    -0.171 NA
ATOM      5  C   LIG    1        2.321  -5.263  -1.288  0.00  0.00    +0.077 C 
ATOM      6  C   LIG    1        1.301  -5.191  -2.426  0.00  0.00    +0.026 C 
ATOM      7  C   LIG    1        2.709  -6.723  -1.034  0.00  0.00    +0.020 C 
ATOM      8  C   LIG    1        3.623  -6.798   0.192  0.00  0.00    +0.003 C 
ATOM      9  C   LIG    1        2.875  -6.276   1.420  0.00  0.00    +0.020 C 
ATOM     10  C   LIG    1        2.491  -4.806   1.193  0.00  0.00    +0.077 C 
ATOM     11  C   LIG    1        1.626  -4.314   2.355  0.00  0.00    +0.026 C 
ENDBRANCH   1   4
BRANCH   1  16
ATOM     12  C   LIG    1        1.129   1.875  -1.221  0.00  0.00    +0.044 C 
ATOM     13  C   LIG    1        0.908   0.411  -0.939  0.00  0.00    -0.050 A 
ATOM     14  C   LIG    1        0.728  -0.475  -1.985  0.00  0.00    +0.005 A 
ATOM     15  C   LIG    1        0.525  -1.817  -1.727  0.00  0.00    +0.029 A 
ATOM     16  C   LIG    1        0.502  -2.274  -0.423  0.00  0.00    +0.106 A 
ATOM     17  C   LIG    1        0.683  -1.389   0.623  0.00  0.00    +0.029 A 
ATOM     18  C   LIG    1        0.890  -0.047   0.365  0.00  0.00    +0.005 A 
ENDBRANCH   1  16
TORSDOF 2
