REMARK  Name = ZINC14949358
REMARK                            x       y       z     vdW  Elec       q    Type
REMARK                         _______ _______ _______ _____ _____    ______ ____
ROOT
ATOM      1  C   LIG    1        4.519   3.182   2.733  0.00  0.00    +0.022 C 
ENDROOT
BRANCH   1   2
ATOM      2  C   LIG    1        4.497   4.553   3.359  0.00  0.00    +0.202 C 
ATOM      3  N   LIG    1        4.914   5.623   2.653  0.00  0.00    -0.294 N 
ATOM      4  C   LIG    1        5.420   5.618   1.277  0.00  0.00    +0.143 C 
ATOM      5  C   LIG    1        5.760   7.040   0.908  0.00  0.00    -0.025 A 
ATOM      6  C   LIG    1        6.265   7.584  -0.260  0.00  0.00    +0.005 A 
ATOM      7  C   LIG    1        6.502   8.942  -0.347  0.00  0.00    +0.000 A 
ATOM      8  C   LIG    1        6.232   9.760   0.734  0.00  0.00    +0.000 A 
ATOM      9  C   LIG    1        5.728   9.219   1.901  0.00  0.00    +0.005 A 
ATOM     10  C   LIG    1        5.491   7.857   1.988  0.00  0.00    -0.025 A 
ATOM     11  C   LIG    1        4.955   7.013   3.117  0.00  0.00    +0.143 C 
ATOM     12  O   LIG    1        4.105   4.693   4.498  0.00  0.00    -0.277 OA
ENDBRANCH   1   2
BRANCH   1  13
ATOM     13  N   LIG    1        4.512   2.168   3.801  0.00  0.00    +0.386 N 
ATOM     14  H   LIG    1        5.322   2.318   4.414  0.00  0.00    -0.089 HD
ATOM     15  H   LIG    1        4.569   1.234   3.397  0.00  0.00    -0.089 HD
ATOM     16  H   LIG    1        3.659   2.246   4.352  0.00  0.00    -0.089 HD
ENDBRANCH   1  13
BRANCH   1  17
ATOM     17  C   LIG    1        3.295   3.015   1.830  0.00  0.00    +0.089 C 
BRANCH  17  26
ATOM     18  C   LIG    1       -2.403  -0.034   0.001  0.00  0.00    +0.000 A 
ATOM     19  C   LIG    1       -2.420   1.348   0.016  0.00  0.00    +0.000 A 
ATOM     20  C   LIG    1       -1.230   2.047   0.019  0.00  0.00    +0.005 A 
ATOM     21  C   LIG    1       -0.017   1.373   0.010  0.00  0.00    -0.027 A 
ATOM     22  C   LIG    1        0.002  -0.004   0.002  0.00  0.00    -0.041 A 
ATOM     23  C   LIG    1        1.278  -0.804   0.006  0.00  0.00    +0.054 C 
ATOM     24  C   LIG    1        2.455   0.047  -0.467  0.00  0.00    +0.113 C 
ATOM     25  N   LIG    1        2.403   1.331   0.253  0.00  0.00    -0.297 N 
ATOM     26  C   LIG    1        3.379   1.695   1.109  0.00  0.00    +0.215 C 
ATOM     27  O   LIG    1        4.324   0.959   1.299  0.00  0.00    -0.276 OA
ATOM     28  C   LIG    1        1.246   2.197   0.002  0.00  0.00    +0.143 C 
ATOM     29  C   LIG    1       -1.198  -0.705  -0.006  0.00  0.00    +0.004 A 
ENDBRANCH  17  26
ENDBRANCH   1  17
TORSDOF 4
