REMARK  Name = ZINC26687761
REMARK                            x       y       z     vdW  Elec       q    Type
REMARK                         _______ _______ _______ _____ _____    ______ ____
ROOT
ATOM      1  C   LIG    1        0.002  -0.004   0.002  0.00  0.00    +0.050 A 
ATOM      2  C   LIG    1        1.200  -0.696  -0.013  0.00  0.00    +0.040 A 
ATOM      3  C   LIG    1        2.401   0.001  -0.021  0.00  0.00    +0.079 A 
ATOM      4  C   LIG    1        2.378   1.397  -0.013  0.00  0.00    +0.128 A 
ATOM      5  C   LIG    1        1.129   2.068   0.002  0.00  0.00    +0.267 A 
ATOM      6  O   LIG    1        1.093   3.287   0.009  0.00  0.00    -0.266 OA
ATOM      7  N   LIG    1       -0.016   1.362   0.009  0.00  0.00    -0.321 N 
ATOM      8  H   LIG    1       -0.976   1.899   0.021  0.00  0.00    +0.169 HD
ENDROOT
BRANCH   1  12
ATOM      9  C   LIG    1       -3.660  -2.153   0.023  0.00  0.00    +0.134 A 
ATOM     10  C   LIG    1       -2.453  -2.841   0.008  0.00  0.00    +0.047 A 
ATOM     11  C   LIG    1       -1.263  -2.148  -0.004  0.00  0.00    +0.013 A 
ATOM     12  C   LIG    1       -1.270  -0.750   0.010  0.00  0.00    -0.000 A 
ATOM     13  C   LIG    1       -2.486  -0.061   0.025  0.00  0.00    +0.029 A 
ATOM     14  C   LIG    1       -3.672  -0.763   0.031  0.00  0.00    +0.060 A 
ATOM     15 BR   LIG    1       -5.319   0.167   0.051  0.00  0.00    -0.046 Br
BRANCH   9  17
ATOM     16  C   LIG    1       -4.746  -4.267   0.021  0.00  0.00    +0.277 C 
ATOM     17  O   LIG    1       -4.831  -2.841   0.029  0.00  0.00    -0.494 OA
ENDBRANCH   9  17
ENDBRANCH   1  12
BRANCH   3  18
ATOM     18  C   LIG    1        3.713  -0.740  -0.038  0.00  0.00    +0.419 C 
ATOM     19  F   LIG    1        3.784  -1.537  -1.186  0.00  0.00    -0.166 F 
ATOM     20  F   LIG    1        3.806  -1.550   1.099  0.00  0.00    -0.166 F 
ATOM     21  F   LIG    1        4.768   0.179  -0.043  0.00  0.00    -0.166 F 
ENDBRANCH   3  18
BRANCH   4  22
ATOM     22  C   LIG    1        3.601   2.142  -0.021  0.00  0.00    +0.105 C 
ATOM     23  N   LIG    1        4.571   2.733  -0.028  0.00  0.00    -0.191 NA
ENDBRANCH   4  22
TORSDOF 4
