REMARK  Name = ZINC13759939
REMARK                            x       y       z     vdW  Elec       q    Type
REMARK                         _______ _______ _______ _____ _____    ______ ____
ROOT
ATOM      1  C   LIG    1       -0.564   4.677  -5.266  0.00  0.00    +0.018 C 
ATOM      2  C   LIG    1       -2.082   4.514  -5.165  0.00  0.00    +0.011 C 
ATOM      3  C   LIG    1       -2.605   5.342  -4.007  0.00  0.00    +0.013 C 
ATOM      4  C   LIG    1       -1.810   4.928  -2.759  0.00  0.00    +0.005 C 
ATOM      5  C   LIG    1       -1.931   3.432  -2.482  0.00  0.00    +0.003 C 
ATOM      6  C   LIG    1       -1.548   2.591  -3.707  0.00  0.00    +0.001 C 
ATOM      7  C   LIG    1       -1.829   1.119  -3.383  0.00  0.00    +0.031 C 
ATOM      8  C   LIG    1       -1.086   0.736  -2.136  0.00  0.00    -0.027 C 
ATOM      9  C   LIG    1       -0.758   1.594  -1.215  0.00  0.00    -0.065 C 
ATOM     10  C   LIG    1       -0.013   1.086   0.008  0.00  0.00    +0.062 C 
ATOM     11  C   LIG    1       -0.740   1.585   1.260  0.00  0.00    +0.119 C 
ATOM     12  C   LIG    1       -0.870   3.108   1.200  0.00  0.00    +0.032 C 
ATOM     13  C   LIG    1       -1.744   3.505   0.009  0.00  0.00    +0.014 C 
ATOM     14  C   LIG    1       -1.066   3.060  -1.290  0.00  0.00    -0.008 C 
ATOM     15  C   LIG    1        0.257   3.821  -1.403  0.00  0.00    +0.016 C 
ATOM     16  C   LIG    1       -2.707   4.755  -6.507  0.00  0.00    +0.042 C 
ATOM     17  N   LIG    1       -3.164   5.863  -6.957  0.00  0.00    -0.198 NA
ATOM     18  C   LIG    1       -2.689   3.410  -7.226  0.00  0.00    +0.053 C 
ATOM     19  C   LIG    1       -2.128   2.373  -6.215  0.00  0.00    +0.010 C 
ATOM     20  C   LIG    1       -2.430   3.032  -4.862  0.00  0.00    +0.005 C 
ENDROOT
BRANCH  17  21
ATOM     21  N   LIG    1       -3.722   5.921  -8.241  0.00  0.00    -0.283 N 
ATOM     22  H   LIG    1       -4.068   6.761  -8.582  0.00  0.00    +0.164 HD
ATOM     23  H   LIG    1       -3.762   5.122  -8.789  0.00  0.00    +0.164 HD
ENDBRANCH  17  21
BRANCH  11  24
ATOM     24  O   LIG    1        0.004   1.215   2.423  0.00  0.00    -0.391 OA
ATOM     25  H   LIG    1        0.126   0.261   2.525  0.00  0.00    +0.210 HD
ENDBRANCH  11  24
TORSDOF 2
