REMARK  Name = ZINC19901027
REMARK                            x       y       z     vdW  Elec       q    Type
REMARK                         _______ _______ _______ _____ _____    ______ ____
ROOT
ATOM      1  C   LIG    1        0.065   1.248  -0.586  0.00  0.00    +0.025 A 
ATOM      2  C   LIG    1        1.253   1.953  -0.584  0.00  0.00    +0.030 A 
ATOM      3  C   LIG    1        2.378   1.413   0.010  0.00  0.00    +0.105 A 
ATOM      4  C   LIG    1        2.319   0.166   0.604  0.00  0.00    +0.030 A 
ATOM      5  C   LIG    1        1.135  -0.544   0.606  0.00  0.00    +0.025 A 
ATOM      6  C   LIG    1        0.003  -0.005   0.010  0.00  0.00    +0.034 A 
ENDROOT
BRANCH   6   7
ATOM      7  N   LIG    1       -1.199  -0.722   0.010  0.00  0.00    -0.284 N 
ATOM      8  H   LIG    1       -2.044  -0.252   0.089  0.00  0.00    +0.155 HD
ATOM      9  C   LIG    1       -1.183  -2.065  -0.099  0.00  0.00    +0.231 C 
ATOM     10  O   LIG    1       -0.125  -2.659  -0.113  0.00  0.00    -0.274 OA
BRANCH   9  11
ATOM     11  C   LIG    1       -2.478  -2.828  -0.204  0.00  0.00    +0.181 C 
BRANCH  11  12
ATOM     12  N   LIG    1       -2.191  -4.265  -0.312  0.00  0.00    -0.290 NA
ATOM     13  C   LIG    1       -1.508  -4.573  -1.577  0.00  0.00    +0.113 C 
ATOM     14  C   LIG    1       -1.177  -6.067  -1.621  0.00  0.00    +0.175 C 
ATOM     15  O   LIG    1       -2.380  -6.822  -1.458  0.00  0.00    -0.377 OA
ATOM     16  C   LIG    1       -3.071  -6.548  -0.236  0.00  0.00    +0.175 C 
ATOM     17  C   LIG    1       -3.422  -5.059  -0.178  0.00  0.00    +0.113 C 
ENDBRANCH  11  12
ENDBRANCH   9  11
ENDBRANCH   6   7
BRANCH   3  18
ATOM     18  S   LIG    1        3.892   2.316   0.009  0.00  0.00    +0.056 S 
ATOM     19  O   LIG    1        3.826   3.217  -1.087  0.00  0.00    -0.153 OA
ATOM     20  O   LIG    1        4.934   1.360   0.148  0.00  0.00    -0.153 OA
BRANCH  18  21
ATOM     21  N   LIG    1        3.911   3.240   1.383  0.00  0.00    -0.204 NA
ATOM     22  H   LIG    1        4.669   3.816   1.569  0.00  0.00    +0.144 HD
ATOM     23  H   LIG    1        3.164   3.206   2.001  0.00  0.00    +0.144 HD
ENDBRANCH  18  21
ENDBRANCH   3  18
TORSDOF 5
