REMARK  Name = ZINC66097848
REMARK                            x       y       z     vdW  Elec       q    Type
REMARK                         _______ _______ _______ _____ _____    ______ ____
ROOT
ATOM      1  O   LIG    1        3.401  -4.637  -2.244  0.00  0.00    -0.370 OA
ENDROOT
BRANCH   1   2
ATOM      2  C   LIG    1        2.257  -4.068  -1.604  0.00  0.00    +0.146 C 
ATOM      3  C   LIG    1        1.793  -4.989  -0.474  0.00  0.00    +0.043 C 
BRANCH   2   9
ATOM      4  C   LIG    1        0.136  -2.974  -2.393  0.00  0.00    -0.012 A 
ATOM      5  C   LIG    1       -0.886  -2.828  -3.331  0.00  0.00    +0.009 A 
ATOM      6  C   LIG    1       -0.894  -3.614  -4.465  0.00  0.00    +0.001 A 
ATOM      7  C   LIG    1        0.109  -4.544  -4.673  0.00  0.00    +0.000 A 
ATOM      8  C   LIG    1        1.124  -4.693  -3.746  0.00  0.00    +0.007 A 
ATOM      9  C   LIG    1        1.146  -3.909  -2.610  0.00  0.00    -0.011 A 
BRANCH   4  13
ATOM     10  C   LIG    1       -2.115  -1.371   1.761  0.00  0.00    +0.044 C 
ATOM     11  C   LIG    1       -0.932  -1.361   0.827  0.00  0.00    -0.036 A 
ATOM     12  C   LIG    1       -0.944  -2.141  -0.307  0.00  0.00    +0.012 A 
ATOM     13  C   LIG    1        0.150  -2.132  -1.172  0.00  0.00    -0.017 A 
ATOM     14  C   LIG    1        1.259  -1.333  -0.890  0.00  0.00    +0.009 A 
ATOM     15  C   LIG    1        1.274  -0.552   0.243  0.00  0.00    +0.016 A 
ATOM     16  C   LIG    1        0.175  -0.555   1.108  0.00  0.00    +0.062 A 
BRANCH  16  17
ATOM     17  C   LIG    1        0.187   0.286   2.319  0.00  0.00    +0.337 C 
ATOM     18  O   LIG    1       -0.755   1.028   2.557  0.00  0.00    -0.245 OA
BRANCH  17  19
ATOM     19  O   LIG    1        1.140   0.242   3.085  0.00  0.00    -0.477 OA
ATOM     20  H   LIG    1        1.862  -0.327   2.902  0.00  0.00    +0.295 HD
ENDBRANCH  17  19
ENDBRANCH  16  17
ENDBRANCH   4  13
ENDBRANCH   2   9
ENDBRANCH   1   2
BRANCH   1  21
ATOM     21  C   LIG    1        4.647  -4.237  -1.669  0.00  0.00    +0.190 C 
BRANCH  21  22
ATOM     22  C   LIG    1        5.796  -4.903  -2.429  0.00  0.00    +0.123 C 
BRANCH  22  23
ATOM     23  O   LIG    1        5.732  -6.318  -2.245  0.00  0.00    -0.391 OA
ATOM     24  H   LIG    1        5.800  -6.598  -1.322  0.00  0.00    +0.210 HD
ENDBRANCH  22  23
BRANCH  22  25
ATOM     25  C   LIG    1        7.131  -4.379  -1.896  0.00  0.00    -0.048 C 
BRANCH  25  26
ATOM     26  N   LIG    1        8.229  -4.926  -2.703  0.00  0.00    +0.384 N 
ATOM     27  H   LIG    1        8.116  -4.640  -3.664  0.00  0.00    -0.085 HD
ATOM     28  H   LIG    1        8.217  -5.934  -2.649  0.00  0.00    -0.085 HD
BRANCH  26  29
ATOM     29  C   LIG    1        9.511  -4.424  -2.191  0.00  0.00    -0.070 C 
ATOM     30  C   LIG    1        9.684  -4.858  -0.734  0.00  0.00    -0.010 C 
ATOM     31  C   LIG    1        9.530  -2.896  -2.274  0.00  0.00    -0.010 C 
BRANCH  29  32
ATOM     32  C   LIG    1       10.655  -4.994  -3.032  0.00  0.00    +0.022 C 
BRANCH  32  33
ATOM     33  C   LIG    1       11.970  -4.478  -2.507  0.00  0.00    -0.046 A 
ATOM     34  C   LIG    1       12.496  -3.298  -3.000  0.00  0.00    +0.005 A 
ATOM     35  C   LIG    1       13.702  -2.824  -2.520  0.00  0.00    +0.023 A 
ATOM     36  C   LIG    1       14.384  -3.529  -1.545  0.00  0.00    +0.076 A 
ATOM     37 CL   LIG    1       15.899  -2.934  -0.942  0.00  0.00    -0.081 Cl
ATOM     38  C   LIG    1       13.857  -4.711  -1.050  0.00  0.00    +0.142 A 
ATOM     39  F   LIG    1       14.523  -5.401  -0.098  0.00  0.00    -0.204 F 
ATOM     40  C   LIG    1       12.647  -5.182  -1.529  0.00  0.00    +0.043 A 
ENDBRANCH  32  33
ENDBRANCH  29  32
ENDBRANCH  26  29
ENDBRANCH  25  26
ENDBRANCH  22  25
ENDBRANCH  21  22
ENDBRANCH   1  21
TORSDOF 13
