REMARK  Name = ZINC17126763
REMARK                            x       y       z     vdW  Elec       q    Type
REMARK                         _______ _______ _______ _____ _____    ______ ____
ROOT
ATOM      1  C   LIG    1       -4.902   1.394  -0.461  0.00  0.00    +0.093 C 
ATOM      2  C   LIG    1       -3.665   1.760   0.362  0.00  0.00    +0.199 C 
ATOM      3  C   LIG    1       -3.925   1.467   1.841  0.00  0.00    +0.093 C 
ATOM      4  N   LIG    1       -3.357   3.184   0.186  0.00  0.00    -0.243 N 
ATOM      5  H   LIG    1       -4.177   3.903   0.038  0.00  0.00    +0.261 HD
ATOM      6  C   LIG    1       -2.119   3.599   0.204  0.00  0.00    +0.384 C 
ATOM      7  N   LIG    1       -1.086   2.751   0.343  0.00  0.00    -0.012 NA
ATOM      8  C   LIG    1       -1.255   1.448   0.203  0.00  0.00    +0.383 C 
ATOM      9  N   LIG    1       -2.510   0.977  -0.103  0.00  0.00    -0.157 N 
ENDROOT
BRANCH   9  10
ATOM     10  C   LIG    1       -2.682  -0.206  -0.832  0.00  0.00    +0.098 A 
ATOM     11  C   LIG    1       -3.210  -1.332  -0.215  0.00  0.00    +0.043 A 
ATOM     12  C   LIG    1       -3.384  -2.496  -0.938  0.00  0.00    +0.041 A 
ATOM     13  C   LIG    1       -3.022  -2.544  -2.274  0.00  0.00    +0.124 A 
ATOM     14  F   LIG    1       -3.187  -3.686  -2.977  0.00  0.00    -0.205 F 
ATOM     15  C   LIG    1       -2.490  -1.424  -2.889  0.00  0.00    +0.041 A 
ATOM     16  C   LIG    1       -2.320  -0.256  -2.172  0.00  0.00    +0.043 A 
ENDBRANCH   9  10
BRANCH   6  17
ATOM     17  N   LIG    1       -1.864   4.950   0.081  0.00  0.00    -0.249 N 
ATOM     18  H   LIG    1       -2.698   5.659  -0.029  0.00  0.00    +0.241 HD
ATOM     19  H   LIG    1       -0.828   5.318   0.094  0.00  0.00    +0.241 HD
ENDBRANCH   6  17
BRANCH   8  20
ATOM     20  N   LIG    1       -0.205   0.587   0.365  0.00  0.00    -0.251 N 
ATOM     21  H   LIG    1        0.793   0.977   0.615  0.00  0.00    +0.241 HD
ATOM     22  H   LIG    1       -0.359  -0.495   0.246  0.00  0.00    +0.241 HD
ENDBRANCH   8  20
TORSDOF 3
