REMARK  Name = ZINC29043520
REMARK                            x       y       z     vdW  Elec       q    Type
REMARK                         _______ _______ _______ _____ _____    ______ ____
ROOT
ATOM      1  C   LIG    1        2.031   2.036  -1.384  0.00  0.00    +0.233 C 
ATOM      2  N   LIG    1        3.017   2.910  -1.668  0.00  0.00    -0.299 N 
ATOM      3  C   LIG    1        3.852   3.471  -0.597  0.00  0.00    +0.108 C 
ATOM      4  C   LIG    1        5.327   3.224  -0.947  0.00  0.00    +0.019 C 
ATOM      5  C   LIG    1        5.618   3.797  -2.336  0.00  0.00    +0.003 C 
ATOM      6  C   LIG    1        4.751   3.085  -3.376  0.00  0.00    +0.021 C 
ATOM      7  C   LIG    1        3.273   3.326  -3.054  0.00  0.00    +0.060 C 
ATOM      8  O   LIG    1        1.287   1.655  -2.263  0.00  0.00    -0.274 OA
ENDROOT
BRANCH   1   9
ATOM      9  C   LIG    1        1.855   1.531   0.025  0.00  0.00    +0.200 C 
BRANCH   9  11
ATOM     10  C   LIG    1        0.945  -0.832  -0.153  0.00  0.00    +0.130 C 
ATOM     11  N   LIG    1        0.725   0.599   0.071  0.00  0.00    -0.324 N 
BRANCH  11  12
ATOM     12  C   LIG    1       -0.564   1.077   0.324  0.00  0.00    +0.031 A 
ATOM     13  C   LIG    1       -1.637   0.195   0.363  0.00  0.00    +0.024 A 
ATOM     14  C   LIG    1       -2.910   0.669   0.613  0.00  0.00    +0.023 A 
ATOM     15  C   LIG    1       -3.118   2.020   0.825  0.00  0.00    +0.059 A 
ATOM     16 CL   LIG    1       -4.719   2.612   1.139  0.00  0.00    -0.082 Cl
ATOM     17  C   LIG    1       -2.050   2.902   0.787  0.00  0.00    +0.061 A 
ATOM     18 CL   LIG    1       -2.315   4.596   1.054  0.00  0.00    -0.082 Cl
ATOM     19  C   LIG    1       -0.773   2.432   0.542  0.00  0.00    +0.044 A 
ENDBRANCH  11  12
ENDBRANCH   9  11
ENDBRANCH   1   9
BRANCH   7  20
ATOM     20  C   LIG    1        2.400   2.505  -4.005  0.00  0.00    -0.056 C 
BRANCH  20  21
ATOM     21  N   LIG    1        1.007   2.963  -3.910  0.00  0.00    +0.381 N 
ATOM     22  H   LIG    1        0.659   2.660  -2.912  0.00  0.00    -0.082 HD
ATOM     23  C   LIG    1        0.916   4.433  -4.104  0.00  0.00    -0.079 C 
ATOM     24  C   LIG    1       -0.567   4.648  -4.496  0.00  0.00    -0.020 C 
ATOM     25  C   LIG    1       -0.873   3.416  -5.378  0.00  0.00    -0.020 C 
ATOM     26  C   LIG    1        0.178   2.364  -4.978  0.00  0.00    -0.079 C 
ENDBRANCH  20  21
ENDBRANCH   7  20
TORSDOF 5
