REMARK  Name = ZINC21989837
REMARK                            x       y       z     vdW  Elec       q    Type
REMARK                         _______ _______ _______ _____ _____    ______ ____
ROOT
ATOM      1  C   LIG    1       -0.806  -5.178  -1.022  0.00  0.00    +0.016 C 
ATOM      2  C   LIG    1        0.478  -4.389  -0.757  0.00  0.00    +0.062 C 
ATOM      3  C   LIG    1        1.218  -4.121  -2.075  0.00  0.00    +0.047 C 
ATOM      4  C   LIG    1        1.285  -2.619  -2.222  0.00  0.00    -0.029 A 
ATOM      5  C   LIG    1        1.834  -1.849  -3.210  0.00  0.00    +0.050 A 
ATOM      6  C   LIG    1        1.779  -0.461  -3.139  0.00  0.00    +0.124 A 
ATOM      7  C   LIG    1        1.160   0.159  -2.062  0.00  0.00    +0.092 A 
ATOM      8  C   LIG    1        0.605  -0.606  -1.053  0.00  0.00    +0.134 A 
ATOM      9  C   LIG    1        0.661  -2.015  -1.127  0.00  0.00    +0.063 A 
ATOM     10  C   LIG    1        0.148  -3.026  -0.199  0.00  0.00    +0.170 C 
ATOM     11  O   LIG    1       -0.439  -2.806   0.840  0.00  0.00    -0.292 OA
ENDROOT
BRANCH   6  12
ATOM     12  O   LIG    1        2.328   0.290  -4.127  0.00  0.00    -0.495 OA
ATOM     13  C   LIG    1        2.236   1.710  -3.990  0.00  0.00    +0.277 C 
ENDBRANCH   6  12
BRANCH   8  14
ATOM     14  O   LIG    1        0.002  -0.004   0.002  0.00  0.00    -0.494 OA
ATOM     15  C   LIG    1       -0.017   1.425   0.010  0.00  0.00    +0.277 C 
ENDBRANCH   8  14
TORSDOF 2
