REMARK  Name = ZINC16480912
REMARK                            x       y       z     vdW  Elec       q    Type
REMARK                         _______ _______ _______ _____ _____    ______ ____
ROOT
ATOM      1  C   LIG    1       -2.933   0.718   1.443  0.00  0.00    +0.076 A 
ATOM      2  C   LIG    1       -2.575  -0.484   2.082  0.00  0.00    +0.009 A 
ATOM      3  C   LIG    1       -1.815  -1.479   1.454  0.00  0.00    +0.010 A 
ATOM      4  C   LIG    1       -1.507  -2.617   2.138  0.00  0.00    +0.001 A 
ATOM      5  C   LIG    1       -1.937  -2.806   3.449  0.00  0.00    +0.001 A 
ATOM      6  C   LIG    1       -2.668  -1.853   4.094  0.00  0.00    +0.012 A 
ATOM      7  C   LIG    1       -3.007  -0.674   3.420  0.00  0.00    +0.026 A 
ATOM      8  C   LIG    1       -3.776   0.352   4.014  0.00  0.00    +0.152 A 
ATOM      9  N   LIG    1       -4.050   1.433   3.304  0.00  0.00    -0.133 NA
ATOM     10  N   LIG    1       -3.652   1.600   2.098  0.00  0.00    -0.152 NA
ENDROOT
BRANCH   8  11
ATOM     11  N   LIG    1       -4.236   0.228   5.315  0.00  0.00    -0.310 N 
ATOM     12  C   LIG    1       -5.705   0.236   5.358  0.00  0.00    +0.125 C 
ATOM     13  C   LIG    1       -6.171   0.017   6.799  0.00  0.00    +0.125 C 
ATOM     14  N   LIG    1       -5.616   1.073   7.657  0.00  0.00    -0.312 N 
ATOM     15  C   LIG    1       -4.147   1.065   7.614  0.00  0.00    +0.125 C 
ATOM     16  C   LIG    1       -3.680   1.284   6.172  0.00  0.00    +0.125 C 
BRANCH  14  17
ATOM     17  C   LIG    1       -6.077   0.949   8.962  0.00  0.00    +0.121 A 
ATOM     18  C   LIG    1       -7.445   0.936   9.212  0.00  0.00    +0.043 A 
ATOM     19  C   LIG    1       -7.890   0.811  10.516  0.00  0.00    +0.005 A 
ATOM     20  C   LIG    1       -6.947   0.703  11.530  0.00  0.00    +0.020 A 
ATOM     21  C   LIG    1       -5.604   0.723  11.210  0.00  0.00    +0.113 A 
ATOM     22  N   LIG    1       -5.209   0.838   9.956  0.00  0.00    -0.240 NA
ENDBRANCH  14  17
ENDBRANCH   8  11
BRANCH   1  23
ATOM     23  C   LIG    1       -2.501   0.987   0.025  0.00  0.00    +0.093 C 
BRANCH  23  27
ATOM     24  C   LIG    1        1.275   2.984   0.033  0.00  0.00    +0.000 A 
ATOM     25  C   LIG    1        1.224   1.603   0.000  0.00  0.00    +0.000 A 
ATOM     26  C   LIG    1        0.002   0.956   0.002  0.00  0.00    +0.004 A 
ATOM     27  C   LIG    1       -1.169   1.691   0.029  0.00  0.00    -0.042 A 
ATOM     28  C   LIG    1       -1.117   3.072   0.066  0.00  0.00    +0.004 A 
ATOM     29  C   LIG    1        0.104   3.718   0.065  0.00  0.00    +0.000 A 
ENDBRANCH  23  27
ENDBRANCH   1  23
TORSDOF 4
