REMARK  Name = ZINC69476347
REMARK                            x       y       z     vdW  Elec       q    Type
REMARK                         _______ _______ _______ _____ _____    ______ ____
ROOT
ATOM      1  C   LIG    1        5.764  -1.853   2.984  0.00  0.00    +0.162 C 
ENDROOT
BRANCH   1   4
ATOM      2  N   LIG    1        4.152  -0.952   1.338  0.00  0.00    -0.310 N 
ATOM      3  H   LIG    1        3.610  -0.648   2.082  0.00  0.00    +0.149 HD
ATOM      4  C   LIG    1        5.311  -1.601   1.569  0.00  0.00    +0.234 C 
ATOM      5  O   LIG    1        5.989  -1.981   0.638  0.00  0.00    -0.274 OA
BRANCH   2   6
ATOM      6  C   LIG    1        3.711  -0.707  -0.038  0.00  0.00    +0.139 C 
BRANCH   6  10
ATOM      7  C   LIG    1       -0.017   1.378   0.010  0.00  0.00    +0.000 A 
ATOM      8  C   LIG    1        1.171   2.086   0.002  0.00  0.00    +0.000 A 
ATOM      9  C   LIG    1        2.377   1.411  -0.013  0.00  0.00    +0.005 A 
ATOM     10  C   LIG    1        2.396   0.029  -0.020  0.00  0.00    -0.030 A 
ATOM     11  C   LIG    1        1.208  -0.679  -0.012  0.00  0.00    +0.005 A 
ATOM     12  C   LIG    1        0.002  -0.004   0.002  0.00  0.00    +0.000 A 
ENDBRANCH   6  10
ENDBRANCH   2   6
ENDBRANCH   1   4
BRANCH   1  13
ATOM     13  N   LIG    1        6.744  -2.942   2.996  0.00  0.00    -0.300 N 
ATOM     14  H   LIG    1        6.565  -3.749   3.503  0.00  0.00    +0.150 HD
ATOM     15  C   LIG    1        7.893  -2.822   2.302  0.00  0.00    +0.245 C 
ATOM     16  O   LIG    1        8.117  -1.811   1.667  0.00  0.00    -0.270 OA
BRANCH  15  17
ATOM     17  C   LIG    1        8.882  -3.922   2.314  0.00  0.00    +0.037 A 
ATOM     18  C   LIG    1        8.625  -5.087   3.038  0.00  0.00    +0.013 A 
ATOM     19  C   LIG    1        9.552  -6.109   3.045  0.00  0.00    +0.001 A 
ATOM     20  C   LIG    1       10.733  -5.981   2.337  0.00  0.00    +0.000 A 
ATOM     21  C   LIG    1       10.994  -4.828   1.617  0.00  0.00    +0.001 A 
ATOM     22  C   LIG    1       10.073  -3.801   1.597  0.00  0.00    +0.013 A 
ENDBRANCH  15  17
ENDBRANCH   1  13
BRANCH   1  23
ATOM     23  C   LIG    1        6.406  -0.584   3.548  0.00  0.00    +0.072 C 
BRANCH  23  24
ATOM     24  C   LIG    1        6.753  -0.799   5.022  0.00  0.00    +0.231 C 
BRANCH  24  25
ATOM     25  O   LIG    1        7.352   0.386   5.549  0.00  0.00    -0.492 OA
BRANCH  25  26
ATOM     26  C   LIG    1        7.723   0.362   6.856  0.00  0.00    +0.121 A 
ATOM     27  C   LIG    1        7.519  -0.782   7.615  0.00  0.00    +0.045 A 
ATOM     28  C   LIG    1        7.897  -0.805   8.943  0.00  0.00    +0.004 A 
ATOM     29  C   LIG    1        8.478   0.311   9.517  0.00  0.00    +0.004 A 
ATOM     30  C   LIG    1        8.682   1.452   8.763  0.00  0.00    -0.042 A 
ATOM     31  C   LIG    1        8.311   1.478   7.433  0.00  0.00    +0.049 A 
BRANCH  30  32
ATOM     32  C   LIG    1        9.315   2.667   9.392  0.00  0.00    +0.003 C 
ATOM     33  C   LIG    1        9.521   2.651  10.908  0.00  0.00    -0.009 C 
ATOM     34  C   LIG    1       10.723   2.511   9.969  0.00  0.00    -0.067 C 
BRANCH  34  35
ATOM     35  N   LIG    1       11.354   1.188   9.869  0.00  0.00    +0.380 N 
ATOM     36  H   LIG    1       10.790   0.508  10.355  0.00  0.00    -0.090 HD
ATOM     37  H   LIG    1       12.273   1.222  10.284  0.00  0.00    -0.090 HD
ATOM     38  H   LIG    1       11.434   0.927   8.898  0.00  0.00    -0.090 HD
ENDBRANCH  34  35
ENDBRANCH  30  32
ENDBRANCH  25  26
ENDBRANCH  24  25
ENDBRANCH  23  24
ENDBRANCH   1  23
TORSDOF 11
