REMARK  Name = ZINC14946468
REMARK                            x       y       z     vdW  Elec       q    Type
REMARK                         _______ _______ _______ _____ _____    ______ ____
ROOT
ATOM      1  C   LIG    1        2.403   0.033  -0.021  0.00  0.00    +0.039 A 
ATOM      2  C   LIG    1        2.420   1.395  -0.013  0.00  0.00    +0.014 A 
ATOM      3  C   LIG    1        1.211   2.104   0.002  0.00  0.00    +0.022 A 
ATOM      4  C   LIG    1       -0.017   1.400   0.010  0.00  0.00    +0.076 A 
ATOM      5  N   LIG    1       -1.167   2.077   0.019  0.00  0.00    -0.251 NA
ATOM      6  C   LIG    1       -1.216   3.398   0.031  0.00  0.00    +0.049 A 
ATOM      7  C   LIG    1       -0.056   4.153   0.028  0.00  0.00    +0.023 A 
ATOM      8  C   LIG    1       -0.064   5.659   0.049  0.00  0.00    +0.148 C 
ATOM      9  C   LIG    1       -1.434   6.195  -0.361  0.00  0.00    +0.036 C 
ATOM     10  C   LIG    1       -2.500   5.490   0.485  0.00  0.00    +0.009 C 
ATOM     11  C   LIG    1       -2.585   4.032   0.038  0.00  0.00    +0.056 C 
ATOM     12  C   LIG    1        0.002  -0.004   0.002  0.00  0.00    +0.066 A 
ATOM     13  C   LIG    1        1.181   3.516   0.011  0.00  0.00    +0.041 A 
ATOM     14  C   LIG    1        1.195  -0.665  -0.013  0.00  0.00    +0.125 A 
ATOM     15  F   LIG    1        1.208  -2.016  -0.020  0.00  0.00    -0.205 F 
ENDROOT
BRANCH  13  16
ATOM     16  N   LIG    1        2.357   4.251   0.004  0.00  0.00    -0.357 N 
ATOM     17  H   LIG    1        2.323   5.221   0.011  0.00  0.00    +0.142 HD
ATOM     18  H   LIG    1        3.213   3.796  -0.007  0.00  0.00    +0.142 HD
ENDBRANCH  13  16
BRANCH   8  19
ATOM     19  O   LIG    1        0.244   6.113   1.369  0.00  0.00    -0.387 OA
ATOM     20  H   LIG    1        0.258   7.075   1.460  0.00  0.00    +0.210 HD
ENDBRANCH   8  19
TORSDOF 2
