REMARK  Name = ZINC45338320
REMARK                            x       y       z     vdW  Elec       q    Type
REMARK                         _______ _______ _______ _____ _____    ______ ____
ROOT
ATOM      1  C   LIG    1        0.011   1.376   0.256  0.00  0.00    +0.002 A 
ATOM      2  C   LIG    1        1.167   2.088   0.005  0.00  0.00    +0.008 A 
ATOM      3  C   LIG    1        2.358   1.414  -0.258  0.00  0.00    -0.016 A 
ATOM      4  C   LIG    1        2.379   0.022  -0.267  0.00  0.00    +0.032 A 
ATOM      5  C   LIG    1        1.213  -0.686  -0.013  0.00  0.00    +0.035 A 
ATOM      6  C   LIG    1        0.030  -0.005   0.248  0.00  0.00    +0.023 A 
ENDROOT
BRANCH   5   7
ATOM      7  N   LIG    1        1.228  -2.083  -0.021  0.00  0.00    -0.299 N 
ATOM      8  C   LIG    1        1.931  -2.921   0.955  0.00  0.00    +0.115 C 
ATOM      9  C   LIG    1        1.646  -4.369   0.522  0.00  0.00    +0.056 C 
ATOM     10  C   LIG    1        0.775  -4.234  -0.706  0.00  0.00    -0.024 A 
ATOM     11  C   LIG    1        0.209  -5.192  -1.524  0.00  0.00    +0.008 A 
ATOM     12  C   LIG    1       -0.574  -4.814  -2.599  0.00  0.00    +0.039 A 
ATOM     13  C   LIG    1       -0.781  -3.470  -2.861  0.00  0.00    +0.125 A 
ATOM     14  F   LIG    1       -1.539  -3.098  -3.916  0.00  0.00    -0.205 F 
ATOM     15  C   LIG    1       -0.213  -2.509  -2.048  0.00  0.00    +0.062 A 
ATOM     16  C   LIG    1        0.572  -2.885  -0.957  0.00  0.00    +0.040 A 
ENDBRANCH   5   7
BRANCH   3  17
ATOM     17  C   LIG    1        3.601   2.178  -0.529  0.00  0.00    -0.018 A 
ATOM     18  C   LIG    1        4.791   1.504  -0.798  0.00  0.00    +0.009 A 
ATOM     19  C   LIG    1        5.944   2.220  -1.049  0.00  0.00    +0.005 A 
ATOM     20  C   LIG    1        5.920   3.603  -1.035  0.00  0.00    -0.032 A 
ATOM     21  C   LIG    1        4.742   4.276  -0.768  0.00  0.00    +0.005 A 
ATOM     22  C   LIG    1        3.582   3.571  -0.521  0.00  0.00    +0.009 A 
BRANCH  20  23
ATOM     23  C   LIG    1        7.183   4.379  -1.310  0.00  0.00    +0.146 C 
BRANCH  23  24
ATOM     24  N   LIG    1        7.292   4.639  -2.748  0.00  0.00    -0.147 NA
ATOM     25  C   LIG    1        7.843   3.768  -3.799  0.00  0.00    +0.208 C 
ATOM     26  C   LIG    1        7.760   4.426  -5.138  0.00  0.00    +0.224 C 
ATOM     27  N   LIG    1        7.243   5.598  -5.160  0.00  0.00    -0.083 NA
ATOM     28  S   LIG    1        6.814   5.995  -3.600  0.00  0.00    +0.142 S 
ATOM     29  O   LIG    1        7.652   7.068  -3.193  0.00  0.00    -0.134 OA
ATOM     30  O   LIG    1        5.396   6.051  -3.549  0.00  0.00    -0.134 OA
BRANCH  26  31
ATOM     31  O   LIG    1        8.204   3.821  -6.259  0.00  0.00    -0.494 OA
ATOM     32  H   LIG    1        8.578   2.963  -6.211  0.00  0.00    +0.293 HD
ENDBRANCH  26  31
ENDBRANCH  23  24
ENDBRANCH  20  23
ENDBRANCH   3  17
TORSDOF 5
