REMARK  Name = ZINC00001504
REMARK                            x       y       z     vdW  Elec       q    Type
REMARK                         _______ _______ _______ _____ _____    ______ ____
ROOT
ATOM      1  C   LIG    1       -0.017   1.377   0.010  0.00  0.00    +0.064 A 
ATOM      2  C   LIG    1        1.186   2.092   0.002  0.00  0.00    +0.066 A 
ATOM      3  C   LIG    1        2.404   1.404  -0.013  0.00  0.00    +0.064 A 
ATOM      4  C   LIG    1        2.416   0.023  -0.021  0.00  0.00    +0.163 A 
ATOM      5  C   LIG    1        1.217  -0.685  -0.014  0.00  0.00    +0.201 A 
ATOM      6  C   LIG    1        0.002  -0.004   0.002  0.00  0.00    +0.163 A 
ENDROOT
BRANCH   2   7
ATOM      7  C   LIG    1        1.169   3.564   0.009  0.00  0.00    +0.337 C 
ATOM      8  O   LIG    1        0.103   4.164   0.022  0.00  0.00    -0.245 OA
BRANCH   7   9
ATOM      9  O   LIG    1        2.222   4.188   0.003  0.00  0.00    -0.477 OA
ATOM     10  H   LIG    1        3.039   3.728  -0.007  0.00  0.00    +0.295 HD
ENDBRANCH   7   9
ENDBRANCH   2   7
BRANCH   4  11
ATOM     11  O   LIG    1        3.600  -0.646  -0.036  0.00  0.00    -0.503 OA
ATOM     12  H   LIG    1        3.951  -0.844   0.843  0.00  0.00    +0.292 HD
ENDBRANCH   4  11
BRANCH   5  13
ATOM     13  O   LIG    1        1.232  -2.044  -0.022  0.00  0.00    -0.501 OA
ATOM     14  H   LIG    1        1.244  -2.442   0.860  0.00  0.00    +0.292 HD
ENDBRANCH   5  13
BRANCH   6  15
ATOM     15  O   LIG    1       -1.167  -0.699   0.010  0.00  0.00    -0.503 OA
ATOM     16  H   LIG    1       -1.514  -0.896  -0.871  0.00  0.00    +0.292 HD
ENDBRANCH   6  15
TORSDOF 5
