REMARK  Name = ZINC28710494
REMARK                            x       y       z     vdW  Elec       q    Type
REMARK                         _______ _______ _______ _____ _____    ______ ____
ROOT
ATOM      1  C   LIG    1       -1.004  10.323  -0.015  0.00  0.00    +0.128 A 
ATOM      2  C   LIG    1        0.107   9.505  -0.065  0.00  0.00    +0.047 A 
ATOM      3  C   LIG    1       -0.007   8.127  -0.043  0.00  0.00    +0.016 A 
ATOM      4  C   LIG    1       -1.257   7.518   0.025  0.00  0.00    +0.030 A 
ATOM      5  C   LIG    1       -2.451   8.361   0.081  0.00  0.00    -0.004 A 
ATOM      6  C   LIG    1       -3.734   7.806   0.155  0.00  0.00    +0.009 A 
ATOM      7  C   LIG    1       -4.822   8.626   0.206  0.00  0.00    +0.001 A 
ATOM      8  C   LIG    1       -4.674  10.011   0.185  0.00  0.00    +0.001 A 
ATOM      9  C   LIG    1       -3.440  10.583   0.113  0.00  0.00    +0.012 A 
ATOM     10  C   LIG    1       -2.299   9.768   0.059  0.00  0.00    +0.024 A 
ENDROOT
BRANCH   4  11
ATOM     11  C   LIG    1       -1.375   6.053   0.045  0.00  0.00    +0.194 C 
ATOM     12  O   LIG    1       -1.118   5.435   1.062  0.00  0.00    -0.287 OA
BRANCH  11  13
ATOM     13  C   LIG    1       -1.805   5.331  -1.166  0.00  0.00    +0.030 A 
ATOM     14  C   LIG    1       -2.212   6.025  -2.299  0.00  0.00    +0.012 A 
ATOM     15  C   LIG    1       -2.617   5.343  -3.438  0.00  0.00    +0.001 A 
ATOM     16  C   LIG    1       -2.632   3.983  -3.493  0.00  0.00    +0.008 A 
ATOM     17  C   LIG    1       -2.234   3.216  -2.385  0.00  0.00    -0.017 A 
ATOM     18  C   LIG    1       -2.245   1.811  -2.426  0.00  0.00    +0.008 A 
ATOM     19  C   LIG    1       -1.852   1.103  -1.332  0.00  0.00    +0.001 A 
ATOM     20  C   LIG    1       -1.444   1.748  -0.167  0.00  0.00    +0.001 A 
ATOM     21  C   LIG    1       -1.416   3.110  -0.095  0.00  0.00    +0.009 A 
ATOM     22  C   LIG    1       -1.813   3.870  -1.201  0.00  0.00    -0.007 A 
ENDBRANCH  11  13
ENDBRANCH   4  11
BRANCH   1  23
ATOM     23  O   LIG    1       -0.849  11.670  -0.035  0.00  0.00    -0.491 OA
BRANCH  23  24
ATOM     24  C   LIG    1        0.488  12.168  -0.111  0.00  0.00    +0.229 C 
BRANCH  24  25
ATOM     25  C   LIG    1        0.462  13.698  -0.124  0.00  0.00    +0.041 C 
BRANCH  25  26
ATOM     26  C   LIG    1        1.894  14.231  -0.205  0.00  0.00    +0.003 C 
BRANCH  26  28
ATOM     27  C   LIG    1        3.300  16.295  -0.299  0.00  0.00    +0.004 C 
ATOM     28  C   LIG    1        1.868  15.761  -0.218  0.00  0.00    -0.003 C 
ENDBRANCH  26  28
ENDBRANCH  25  26
ENDBRANCH  24  25
ENDBRANCH  23  24
ENDBRANCH   1  23
TORSDOF 7
