REMARK  Name = ZINC26941126
REMARK                            x       y       z     vdW  Elec       q    Type
REMARK                         _______ _______ _______ _____ _____    ______ ____
ROOT
ATOM      1  C   LIG    1        1.677  -1.941  -0.090  0.00  0.00    +0.068 C 
ATOM      2  C   LIG    1        1.273  -0.492   0.005  0.00  0.00    +0.071 A 
ATOM      3  C   LIG    1        2.107   0.576   0.066  0.00  0.00    +0.064 A 
ATOM      4  C   LIG    1        1.240   1.692   0.145  0.00  0.00    +0.363 A 
ATOM      5  O   LIG    1       -0.008   1.199   0.124  0.00  0.00    -0.326 OA
ATOM      6  O   LIG    1        1.563   2.866   0.216  0.00  0.00    -0.243 OA
ATOM      7  N   LIG    1        0.004  -0.008   0.048  0.00  0.00    -0.125 N 
ATOM      8  C   LIG    1       -1.102  -0.777   0.008  0.00  0.00    +0.350 C 
ATOM      9  N   LIG    1       -2.320  -0.212   0.124  0.00  0.00    -0.281 N 
ATOM     10  C   LIG    1       -2.469   1.250   0.136  0.00  0.00    +0.109 C 
ATOM     11  C   LIG    1       -3.482   1.651  -0.940  0.00  0.00    +0.019 C 
ATOM     12  C   LIG    1       -4.788   0.884  -0.716  0.00  0.00    +0.009 C 
ATOM     13  C   LIG    1       -4.526  -0.619  -0.836  0.00  0.00    +0.032 C 
ATOM     14  C   LIG    1       -3.525  -1.045   0.236  0.00  0.00    +0.115 C 
ATOM     15  O   LIG    1       -1.001  -1.980  -0.133  0.00  0.00    -0.246 OA
ENDROOT
BRANCH   3  16
ATOM     16  C   LIG    1        3.614   0.575   0.052  0.00  0.00    +0.022 C 
ATOM     17  C   LIG    1        4.136   1.216   1.340  0.00  0.00    +0.012 C 
ATOM     18  C   LIG    1        4.114   1.374  -1.153  0.00  0.00    +0.012 C 
ENDBRANCH   3  16
BRANCH  13  19
ATOM     19  C   LIG    1       -5.838  -1.383  -0.644  0.00  0.00    +0.160 C 
BRANCH  19  20
ATOM     20  O   LIG    1       -5.615  -2.776  -0.870  0.00  0.00    -0.395 OA
ATOM     21  H   LIG    1       -6.448  -3.488  -0.777  0.00  0.00    +0.209 HD
ENDBRANCH  19  20
ENDBRANCH  13  19
TORSDOF 3
