REMARK  Name = ZINC58638454
REMARK                            x       y       z     vdW  Elec       q    Type
REMARK                         _______ _______ _______ _____ _____    ______ ____
ROOT
ATOM      1  C   LIG    1        4.788   1.452   0.068  0.00  0.00    +0.131 A 
ATOM      2  C   LIG    1        6.034   2.210   0.176  0.00  0.00    +0.026 A 
ATOM      3  C   LIG    1        6.077   3.606   0.194  0.00  0.00    +0.031 A 
ATOM      4  C   LIG    1        7.294   4.221   0.298  0.00  0.00    +0.111 A 
ATOM      5  N   LIG    1        8.419   3.531   0.381  0.00  0.00    -0.263 NA
ATOM      6  C   LIG    1        8.446   2.215   0.369  0.00  0.00    +0.120 A 
ATOM      7  C   LIG    1        7.255   1.500   0.266  0.00  0.00    +0.013 A 
ATOM      8  C   LIG    1        7.196   0.036   0.246  0.00  0.00    +0.010 A 
ATOM      9  C   LIG    1        8.357  -0.737   0.332  0.00  0.00    +0.011 A 
ATOM     10  C   LIG    1        8.278  -2.096   0.312  0.00  0.00    +0.016 A 
ATOM     11  C   LIG    1        7.032  -2.734   0.205  0.00  0.00    +0.061 A 
ATOM     12  C   LIG    1        5.864  -1.987   0.118  0.00  0.00    +0.043 A 
ATOM     13  C   LIG    1        5.931  -0.587   0.138  0.00  0.00    +0.075 A 
ATOM     14  N   LIG    1        4.803   0.141   0.061  0.00  0.00    -0.231 NA
ENDROOT
BRANCH   1  15
ATOM     15  N   LIG    1        3.583   2.124  -0.021  0.00  0.00    -0.299 N 
ATOM     16  H   LIG    1        3.571   3.091  -0.094  0.00  0.00    +0.154 HD
BRANCH  15  19
ATOM     17  C   LIG    1        1.086  -0.460   0.754  0.00  0.00    +0.003 A 
ATOM     18  C   LIG    1        2.274   0.244   0.741  0.00  0.00    +0.023 A 
ATOM     19  C   LIG    1        2.381   1.410  -0.006  0.00  0.00    +0.034 A 
ATOM     20  C   LIG    1        1.292   1.865  -0.738  0.00  0.00    +0.043 A 
ATOM     21  C   LIG    1        0.105   1.157  -0.720  0.00  0.00    +0.043 A 
ATOM     22 CL   LIG    1       -1.257   1.725  -1.634  0.00  0.00    -0.083 Cl
ATOM     23  C   LIG    1        0.003  -0.005   0.025  0.00  0.00    +0.020 A 
ENDBRANCH  15  19
ENDBRANCH   1  15
BRANCH  11  24
ATOM     24  C   LIG    1        6.963  -4.208   0.183  0.00  0.00    +0.337 C 
ATOM     25  O   LIG    1        7.988  -4.869   0.259  0.00  0.00    -0.245 OA
BRANCH  24  26
ATOM     26  O   LIG    1        5.879  -4.767   0.090  0.00  0.00    -0.477 OA
ATOM     27  H   LIG    1        5.093  -4.260   0.032  0.00  0.00    +0.295 HD
ENDBRANCH  24  26
ENDBRANCH  11  24
TORSDOF 4
