REMARK  Name = ZINC34271593
REMARK                            x       y       z     vdW  Elec       q    Type
REMARK                         _______ _______ _______ _____ _____    ______ ____
ROOT
ATOM      1  N   LIG    1       -4.801  -2.790  -2.938  0.00  0.00    -0.280 N 
ATOM      2  H   LIG    1       -5.149  -3.045  -2.069  0.00  0.00    +0.258 HD
ATOM      3  C   LIG    1       -5.436  -3.135  -4.021  0.00  0.00    +0.342 C 
ENDROOT
BRANCH   3   4
ATOM      4  N   LIG    1       -6.605  -3.863  -3.933  0.00  0.00    -0.172 N 
ATOM      5  H   LIG    1       -7.007  -4.032  -3.067  0.00  0.00    +0.254 HD
ATOM      6  C   LIG    1       -7.188  -4.340  -5.051  0.00  0.00    +0.328 C 
ATOM      7  O   LIG    1       -6.631  -4.220  -6.126  0.00  0.00    -0.250 OA
BRANCH   6   8
ATOM      8  C   LIG    1       -8.499  -5.006  -4.972  0.00  0.00    +0.183 A 
ATOM      9  C   LIG    1       -9.159  -5.402  -6.147  0.00  0.00    +0.151 A 
ATOM     10  N   LIG    1      -10.341  -6.001  -6.069  0.00  0.00    -0.213 NA
ATOM     11  C   LIG    1      -10.893  -6.224  -4.883  0.00  0.00    +0.156 A 
ATOM     12  C   LIG    1      -10.232  -5.828  -3.714  0.00  0.00    +0.170 A 
ATOM     13 CL   LIG    1      -10.961  -6.123  -2.166  0.00  0.00    -0.058 Cl
ATOM     14  N   LIG    1       -9.059  -5.239  -3.785  0.00  0.00    -0.222 NA
BRANCH  11  15
ATOM     15  N   LIG    1      -12.126  -6.849  -4.802  0.00  0.00    -0.341 N 
ATOM     16  H   LIG    1      -12.530  -7.013  -3.936  0.00  0.00    +0.144 HD
ATOM     17  H   LIG    1      -12.585  -7.123  -5.611  0.00  0.00    +0.144 HD
ENDBRANCH  11  15
BRANCH   9  18
ATOM     18  N   LIG    1       -8.581  -5.167  -7.380  0.00  0.00    -0.341 N 
ATOM     19  H   LIG    1       -9.070  -5.371  -8.193  0.00  0.00    +0.144 HD
ATOM     20  H   LIG    1       -7.685  -4.799  -7.434  0.00  0.00    +0.144 HD
ENDBRANCH   9  18
ENDBRANCH   6   8
ENDBRANCH   3   4
BRANCH   3  21
ATOM     21  N   LIG    1       -4.942  -2.773  -5.252  0.00  0.00    -0.293 N 
ATOM     22  H   LIG    1       -5.378  -3.086  -6.060  0.00  0.00    +0.254 HD
ATOM     23  H   LIG    1       -4.158  -2.205  -5.312  0.00  0.00    +0.254 HD
ENDBRANCH   3  21
BRANCH   1  24
ATOM     24  C   LIG    1       -3.560  -2.016  -3.031  0.00  0.00    +0.195 C 
BRANCH  24  25
ATOM     25  C   LIG    1       -3.021  -1.745  -1.625  0.00  0.00    +0.037 C 
BRANCH  25  26
ATOM     26  C   LIG    1       -1.726  -0.938  -1.722  0.00  0.00    +0.008 C 
BRANCH  26  27
ATOM     27  C   LIG    1       -1.187  -0.667  -0.316  0.00  0.00    +0.035 C 
BRANCH  27  33
ATOM     28  C   LIG    1        0.043   1.511  -0.410  0.00  0.00    +0.007 A 
ATOM     29  C   LIG    1        1.212   2.243  -0.498  0.00  0.00    +0.046 A 
ATOM     30  C   LIG    1        2.433   1.590  -0.587  0.00  0.00    +0.121 A 
ATOM     31  C   LIG    1        2.477   0.203  -0.589  0.00  0.00    +0.046 A 
ATOM     32  C   LIG    1        1.305  -0.524  -0.501  0.00  0.00    +0.007 A 
ATOM     33  C   LIG    1        0.090   0.129  -0.412  0.00  0.00    -0.047 A 
BRANCH  30  34
ATOM     34  O   LIG    1        3.583   2.307  -0.674  0.00  0.00    -0.489 OA
BRANCH  34  35
ATOM     35  C   LIG    1        4.803   1.568  -0.763  0.00  0.00    +0.262 C 
BRANCH  35  36
ATOM     36  C   LIG    1        5.982   2.539  -0.852  0.00  0.00    +0.177 C 
BRANCH  36  37
ATOM     37  O   LIG    1        5.899   3.280  -2.072  0.00  0.00    -0.386 OA
ATOM     38  H   LIG    1        5.920   2.731  -2.868  0.00  0.00    +0.210 HD
ENDBRANCH  36  37
BRANCH  36  39
ATOM     39  C   LIG    1        7.294   1.753  -0.823  0.00  0.00    +0.190 C 
BRANCH  39  40
ATOM     40  O   LIG    1        8.395   2.663  -0.788  0.00  0.00    -0.392 OA
ATOM     41  H   LIG    1        9.261   2.233  -0.768  0.00  0.00    +0.210 HD
ENDBRANCH  39  40
ENDBRANCH  36  39
ENDBRANCH  35  36
ENDBRANCH  34  35
ENDBRANCH  30  34
ENDBRANCH  27  33
ENDBRANCH  26  27
ENDBRANCH  25  26
ENDBRANCH  24  25
ENDBRANCH   1  24
TORSDOF 16
