REMARK  Name = ZINC28524413
REMARK                            x       y       z     vdW  Elec       q    Type
REMARK                         _______ _______ _______ _____ _____    ______ ____
ROOT
ATOM      1  N   LIG    1        6.254  -2.331  -0.526  0.00  0.00    -0.332 N 
ATOM      2  C   LIG    1        7.586  -2.463  -0.849  0.00  0.00    +0.050 A 
ATOM      3  C   LIG    1        8.310  -3.457  -1.501  0.00  0.00    +0.028 A 
ATOM      4  C   LIG    1        9.666  -3.313  -1.686  0.00  0.00    +0.025 A 
ATOM      5  C   LIG    1       10.328  -2.175  -1.224  0.00  0.00    +0.034 A 
ATOM      6  C   LIG    1        9.629  -1.177  -0.575  0.00  0.00    +0.033 A 
ATOM      7  C   LIG    1        8.248  -1.312  -0.380  0.00  0.00    +0.002 A 
ATOM      8  C   LIG    1        7.268  -0.489   0.226  0.00  0.00    +0.041 A 
ATOM      9  C   LIG    1        6.073  -1.129   0.130  0.00  0.00    +0.106 A 
ENDROOT
BRANCH   5  10
ATOM     10  N   LIG    1       11.709  -2.044  -1.420  0.00  0.00    -0.285 N 
ATOM     11  H   LIG    1       12.122  -1.104  -1.815  0.00  0.00    +0.155 HD
ATOM     12  C   LIG    1       12.532  -3.070  -1.124  0.00  0.00    +0.218 C 
ATOM     13  O   LIG    1       12.072  -4.126  -0.745  0.00  0.00    -0.275 OA
BRANCH  12  14
ATOM     14  C   LIG    1       14.023  -2.905  -1.264  0.00  0.00    +0.102 C 
BRANCH  14  15
ATOM     15  C   LIG    1       14.720  -4.208  -0.869  0.00  0.00    -0.029 C 
ATOM     16  C   LIG    1       14.379  -4.548   0.583  0.00  0.00    +0.011 C 
ATOM     17  C   LIG    1       16.234  -4.040  -1.012  0.00  0.00    +0.011 C 
ATOM     18  C   LIG    1       14.244  -5.338  -1.783  0.00  0.00    +0.011 C 
ENDBRANCH  14  15
ENDBRANCH  12  14
ENDBRANCH   5  10
BRANCH   9  19
ATOM     19  C   LIG    1        4.791  -0.620   0.638  0.00  0.00    +0.265 C 
ATOM     20  N   LIG    1        3.709  -1.423   0.661  0.00  0.00    -0.280 N 
ATOM     21  H   LIG    1        3.803  -2.481   0.375  0.00  0.00    +0.155 HD
ATOM     22  O   LIG    1        4.707   0.526   1.038  0.00  0.00    -0.268 OA
BRANCH  20  23
ATOM     23  C   LIG    1        2.467  -0.911   1.049  0.00  0.00    +0.034 A 
ATOM     24  C   LIG    1        1.300  -1.413   0.485  0.00  0.00    +0.023 A 
ATOM     25  C   LIG    1        0.075  -0.905   0.871  0.00  0.00    +0.002 A 
ATOM     26  C   LIG    1        0.009   0.101   1.816  0.00  0.00    +0.000 A 
ATOM     27  C   LIG    1        1.167   0.604   2.379  0.00  0.00    +0.002 A 
ATOM     28  C   LIG    1        2.396   0.100   1.998  0.00  0.00    +0.023 A 
ENDBRANCH  20  23
ENDBRANCH   9  19
BRANCH   1  29
ATOM     29  C   LIG    1        5.202  -3.304  -0.828  0.00  0.00    +0.157 C 
BRANCH  29  35
ATOM     30  C   LIG    1        3.252  -5.320   3.317  0.00  0.00    +0.044 C 
ATOM     31  C   LIG    1        4.269  -5.350   2.205  0.00  0.00    -0.050 A 
ATOM     32  C   LIG    1        5.201  -6.369   2.148  0.00  0.00    +0.003 A 
ATOM     33  C   LIG    1        6.133  -6.397   1.128  0.00  0.00    +0.001 A 
ATOM     34  C   LIG    1        6.131  -5.407   0.162  0.00  0.00    +0.005 A 
ATOM     35  C   LIG    1        5.202  -4.386   0.222  0.00  0.00    -0.027 A 
ATOM     36  C   LIG    1        4.269  -4.358   1.242  0.00  0.00    +0.008 A 
ENDBRANCH  29  35
ENDBRANCH   1  29
TORSDOF 7
