REMARK  Name = ZINC22113519
REMARK                            x       y       z     vdW  Elec       q    Type
REMARK                         _______ _______ _______ _____ _____    ______ ____
ROOT
ATOM      1  C   LIG    1        3.651   2.159  -0.022  0.00  0.00    +0.172 C 
ATOM      2  O   LIG    1        4.708   1.564  -0.035  0.00  0.00    -0.292 OA
ENDROOT
BRANCH   1   5
ATOM      3  C   LIG    1       -0.017   1.382   0.010  0.00  0.00    +0.021 A 
ATOM      4  C   LIG    1        1.165   2.091   0.002  0.00  0.00    +0.014 A 
ATOM      5  C   LIG    1        2.386   1.409  -0.013  0.00  0.00    +0.036 A 
ATOM      6  C   LIG    1        2.398   0.008  -0.021  0.00  0.00    +0.053 A 
ATOM      7 CL   LIG    1        3.907  -0.849  -0.041  0.00  0.00    -0.083 Cl
ATOM      8  C   LIG    1        1.207  -0.688  -0.013  0.00  0.00    +0.040 A 
ATOM      9  C   LIG    1        0.002  -0.004   0.002  0.00  0.00    +0.042 A 
ATOM     10 CL   LIG    1       -1.492  -0.888   0.012  0.00  0.00    -0.083 Cl
ENDBRANCH   1   5
BRANCH   1  11
ATOM     11  C   LIG    1        3.633   3.666  -0.014  0.00  0.00    +0.166 C 
BRANCH  11  12
ATOM     12  C   LIG    1        5.048   4.184  -0.025  0.00  0.00    +0.246 C 
ATOM     13  O   LIG    1        5.975   3.410  -0.038  0.00  0.00    -0.285 OA
BRANCH  12  14
ATOM     14  C   LIG    1        5.304   5.656  -0.020  0.00  0.00    +0.373 C 
ATOM     15  O   LIG    1        6.450   6.076  -0.029  0.00  0.00    -0.242 OA
BRANCH  14  16
ATOM     16  O   LIG    1        4.368   6.438  -0.007  0.00  0.00    -0.475 OA
ATOM     17  H   LIG    1        3.488   6.115  -0.000  0.00  0.00    +0.295 HD
ENDBRANCH  14  16
ENDBRANCH  12  14
ENDBRANCH  11  12
ENDBRANCH   1  11
TORSDOF 5
