REMARK  Name = ZINC26823248
REMARK                            x       y       z     vdW  Elec       q    Type
REMARK                         _______ _______ _______ _____ _____    ______ ____
ROOT
ATOM      1  C   LIG    1       -0.017   1.379   0.010  0.00  0.00    +0.020 A 
ATOM      2  C   LIG    1        1.174   2.080   0.002  0.00  0.00    +0.007 A 
ATOM      3  C   LIG    1        2.380   1.403  -0.016  0.00  0.00    -0.021 A 
ATOM      4  C   LIG    1        2.405   0.023  -0.031  0.00  0.00    +0.022 A 
ATOM      5  N   LIG    1        3.595  -0.695  -0.070  0.00  0.00    -0.352 NA
ATOM      6  H   LIG    1        3.769  -0.974  -1.024  0.00  0.00    +0.131 HD
ATOM      7  H   LIG    1        3.485  -1.528   0.489  0.00  0.00    +0.131 HD
ATOM      8  C   LIG    1        4.693   0.001   0.391  0.00  0.00    +0.192 C 
ATOM      9  C   LIG    1        4.792   1.301   0.436  0.00  0.00    +0.158 C 
ATOM     10  C   LIG    1        1.207  -0.679  -0.017  0.00  0.00    +0.042 A 
ATOM     11  C   LIG    1        3.666   2.189  -0.015  0.00  0.00    +0.102 C 
ATOM     12  C   LIG    1        0.002  -0.004   0.002  0.00  0.00    +0.043 A 
ATOM     13 CL   LIG    1       -1.489  -0.892   0.017  0.00  0.00    -0.083 Cl
ENDROOT
BRANCH   9  14
ATOM     14  N   LIG    1        6.040   1.915   0.943  0.00  0.00    +0.007 N 
ATOM     15  O   LIG    1        6.953   1.213   1.309  0.00  0.00    -0.130 OA
BRANCH  14  16
ATOM     16  O   LIG    1        6.145   3.118   0.991  0.00  0.00    -0.396 OA
ATOM     17  H   LIG    1        5.437   3.662   0.707  0.00  0.00    +0.329 HD
ENDBRANCH  14  16
ENDBRANCH   9  14
BRANCH   8  18
ATOM     18  O   LIG    1        5.753  -0.723   0.831  0.00  0.00    -0.495 OA
ATOM     19  H   LIG    1        5.721  -1.659   0.814  0.00  0.00    +0.293 HD
ENDBRANCH   8  18
TORSDOF 3
