REMARK  Name = ZINC21983255
REMARK                            x       y       z     vdW  Elec       q    Type
REMARK                         _______ _______ _______ _____ _____    ______ ____
ROOT
ATOM      1  N   LIG    1       -4.545   7.706   0.086  0.00  0.00    -0.223 N 
ATOM      2  C   LIG    1       -5.700   7.011   0.092  0.00  0.00    +0.242 C 
ATOM      3  C   LIG    1       -5.298   5.549   0.080  0.00  0.00    +0.232 C 
ATOM      4  N   LIG    1       -3.826   5.595   0.066  0.00  0.00    -0.168 N 
ATOM      5  O   LIG    1       -6.826   7.461   0.105  0.00  0.00    -0.273 OA
ATOM      6  C   LIG    1       -3.481   6.895   0.076  0.00  0.00    +0.331 C 
ATOM      7  O   LIG    1       -2.331   7.289   0.073  0.00  0.00    -0.250 OA
ENDROOT
BRANCH   4   8
ATOM      8  N   LIG    1       -2.955   4.498   0.052  0.00  0.00    -0.180 NA
ATOM      9  C   LIG    1       -1.668   4.689   0.042  0.00  0.00    +0.176 C 
BRANCH   9  10
ATOM     10  C   LIG    1       -0.757   3.543   0.027  0.00  0.00    +0.148 A 
ATOM     11  C   LIG    1        0.609   3.605   0.015  0.00  0.00    +0.051 A 
ATOM     12  C   LIG    1        1.077   2.284   0.004  0.00  0.00    +0.050 A 
ATOM     13  C   LIG    1       -0.018   1.472   0.010  0.00  0.00    +0.136 A 
ATOM     14  O   LIG    1       -1.121   2.244   0.019  0.00  0.00    -0.454 OA
BRANCH  13  15
ATOM     15  C   LIG    1        0.002  -0.004   0.002  0.00  0.00    +0.017 A 
ATOM     16  C   LIG    1        1.219  -0.689  -0.019  0.00  0.00    +0.013 A 
ATOM     17  C   LIG    1        1.231  -2.068  -0.021  0.00  0.00    +0.021 A 
ATOM     18  C   LIG    1        0.040  -2.774  -0.014  0.00  0.00    +0.041 A 
ATOM     19 CL   LIG    1        0.063  -4.510  -0.024  0.00  0.00    -0.084 Cl
ATOM     20  C   LIG    1       -1.171  -2.101   0.002  0.00  0.00    +0.021 A 
ATOM     21  C   LIG    1       -1.196  -0.722   0.010  0.00  0.00    +0.013 A 
ENDBRANCH  13  15
ENDBRANCH   9  10
ENDBRANCH   4   8
BRANCH   1  22
ATOM     22  C   LIG    1       -4.465   9.169   0.095  0.00  0.00    +0.118 C 
BRANCH  22  23
ATOM     23  C   LIG    1       -4.424   9.668   1.540  0.00  0.00    +0.021 C 
BRANCH  23  24
ATOM     24  C   LIG    1       -4.340  11.196   1.550  0.00  0.00    +0.017 C 
BRANCH  24  25
ATOM     25  C   LIG    1       -4.298  11.696   2.995  0.00  0.00    +0.084 C 
BRANCH  25  31
ATOM     26  C   LIG    1       -3.046  17.150   3.761  0.00  0.00    -0.096 C 
ATOM     27  N   LIG    1       -3.126  15.683   3.752  0.00  0.00    +0.379 N 
ATOM     28  H   LIG    1       -2.315  15.298   4.388  0.00  0.00    -0.082 HD
ATOM     29  C   LIG    1       -4.403  15.222   4.315  0.00  0.00    -0.064 C 
ATOM     30  C   LIG    1       -4.414  13.692   4.361  0.00  0.00    +0.066 C 
ATOM     31  N   LIG    1       -4.218  13.163   3.004  0.00  0.00    -0.306 NA
ATOM     32  C   LIG    1       -2.941  13.624   2.442  0.00  0.00    +0.066 C 
ATOM     33  C   LIG    1       -2.930  15.153   2.396  0.00  0.00    -0.064 C 
ENDBRANCH  25  31
ENDBRANCH  24  25
ENDBRANCH  23  24
ENDBRANCH  22  23
ENDBRANCH   1  22
TORSDOF 8
