REMARK  Name = ZINC00007253
REMARK                            x       y       z     vdW  Elec       q    Type
REMARK                         _______ _______ _______ _____ _____    ______ ____
ROOT
ATOM      1  C   LIG    1       -0.017   1.379   0.010  0.00  0.00    +0.019 A 
ATOM      2  C   LIG    1        1.166   2.096   0.002  0.00  0.00    +0.049 A 
ATOM      3  C   LIG    1        2.379   1.431  -0.009  0.00  0.00    +0.145 A 
ATOM      4  C   LIG    1        2.392   0.030  -0.003  0.00  0.00    +0.097 A 
ATOM      5  N   LIG    1        3.646  -0.598   0.029  0.00  0.00    -0.223 N 
ATOM      6  C   LIG    1        4.774   0.139   0.381  0.00  0.00    +0.197 A 
ATOM      7  C   LIG    1        4.645   1.604   0.737  0.00  0.00    +0.307 C 
ATOM      8  N   LIG    1        5.796  -0.623   0.336  0.00  0.00    -0.055 NA
ATOM      9  O   LIG    1        5.356  -1.917  -0.056  0.00  0.00    -0.295 OA
ATOM     10  C   LIG    1        4.020  -1.850  -0.228  0.00  0.00    +0.447 A 
ATOM     11  O   LIG    1        3.290  -2.765  -0.556  0.00  0.00    -0.220 OA
ATOM     12  C   LIG    1        1.211  -0.681  -0.005  0.00  0.00    +0.045 A 
ATOM     13  O   LIG    1        3.550   2.125  -0.040  0.00  0.00    -0.482 OA
ATOM     14  C   LIG    1        0.002  -0.004   0.002  0.00  0.00    +0.020 A 
ATOM     15 BR   LIG    1       -1.623  -0.971   0.002  0.00  0.00    -0.050 Br
ENDROOT
TORSDOF 0
