REMARK  Name = ZINC27714862
REMARK                            x       y       z     vdW  Elec       q    Type
REMARK                         _______ _______ _______ _____ _____    ______ ____
ROOT
ATOM      1  C   LIG    1       -2.017   2.448   3.499  0.00  0.00    +0.047 C 
ATOM      2  C   LIG    1       -2.683   1.575   2.467  0.00  0.00    -0.005 A 
ATOM      3  C   LIG    1       -4.008   1.207   2.625  0.00  0.00    +0.054 A 
ATOM      4  C   LIG    1       -4.622   0.406   1.678  0.00  0.00    +0.141 A 
ATOM      5  C   LIG    1       -3.906  -0.031   0.566  0.00  0.00    +0.075 A 
ATOM      6  C   LIG    1       -2.580   0.343   0.407  0.00  0.00    +0.072 A 
ATOM      7  C   LIG    1       -1.968   1.141   1.361  0.00  0.00    +0.125 A 
ENDROOT
BRANCH   5   8
ATOM      8  N   LIG    1       -4.525  -0.842  -0.393  0.00  0.00    -0.331 N 
ATOM      9  C   LIG    1       -3.681  -0.983  -1.587  0.00  0.00    +0.086 C 
ATOM     10  C   LIG    1       -4.426  -1.808  -2.640  0.00  0.00    -0.063 C 
ATOM     11  N   LIG    1       -4.763  -3.124  -2.078  0.00  0.00    +0.381 N 
ATOM     12  H   LIG    1       -3.839  -3.651  -1.798  0.00  0.00    -0.086 HD
ATOM     13  H   LIG    1       -5.309  -3.714  -2.829  0.00  0.00    -0.086 HD
ATOM     14  C   LIG    1       -5.607  -2.982  -0.883  0.00  0.00    -0.063 C 
ATOM     15  C   LIG    1       -4.863  -2.157   0.169  0.00  0.00    +0.086 C 
ENDBRANCH   5   8
BRANCH   4  16
ATOM     16  O   LIG    1       -5.925   0.044   1.835  0.00  0.00    -0.493 OA
ATOM     17  C   LIG    1       -6.597   0.528   2.999  0.00  0.00    +0.277 C 
ENDBRANCH   4  16
BRANCH   7  18
ATOM     18  O   LIG    1       -0.666   1.504   1.210  0.00  0.00    -0.495 OA
ATOM     19  C   LIG    1        0.011   1.022   0.047  0.00  0.00    +0.277 C 
ENDBRANCH   7  18
TORSDOF 3
