REMARK  Name = ZINC53064461
REMARK                            x       y       z     vdW  Elec       q    Type
REMARK                         _______ _______ _______ _____ _____    ______ ____
ROOT
ATOM      1  C   LIG    1       -1.527  -7.400   4.899  0.00  0.00    +0.076 C 
ATOM      2  C   LIG    1       -0.318  -6.810   5.235  0.00  0.00    +0.037 C 
ATOM      3  C   LIG    1        0.450  -7.349   6.258  0.00  0.00    +0.083 C 
ATOM      4  N   LIG    1        0.065  -8.412   6.926  0.00  0.00    -0.313 NA
ATOM      5  H   LIG    1        0.633  -8.756   7.634  0.00  0.00    +0.122 HD
ATOM      6  C   LIG    1       -1.088  -9.034   6.657  0.00  0.00    +0.059 C 
ATOM      7  C   LIG    1       -1.480 -10.172   7.386  0.00  0.00    +0.019 C 
ATOM      8  C   LIG    1       -2.663 -10.781   7.113  0.00  0.00    +0.010 C 
ATOM      9  C   LIG    1       -3.502 -10.303   6.094  0.00  0.00    +0.019 C 
ATOM     10  C   LIG    1       -3.142  -9.190   5.356  0.00  0.00    +0.015 C 
ATOM     11  C   LIG    1       -1.932  -8.542   5.632  0.00  0.00    +0.027 C 
ENDROOT
BRANCH   9  12
ATOM     12  C   LIG    1       -4.782 -10.996   5.808  0.00  0.00    -0.044 A 
ATOM     13  C   LIG    1       -5.617 -10.531   4.794  0.00  0.00    +0.004 A 
ATOM     14  C   LIG    1       -6.807 -11.180   4.532  0.00  0.00    +0.000 A 
ATOM     15  C   LIG    1       -7.170 -12.289   5.273  0.00  0.00    +0.000 A 
ATOM     16  C   LIG    1       -6.345 -12.755   6.281  0.00  0.00    +0.000 A 
ATOM     17  C   LIG    1       -5.151 -12.118   6.548  0.00  0.00    +0.004 A 
ENDBRANCH   9  12
BRANCH   1  18
ATOM     18  N   LIG    1       -2.316  -6.885   3.883  0.00  0.00    -0.341 N 
ATOM     19  H   LIG    1       -3.206  -7.240   3.732  0.00  0.00    +0.146 HD
BRANCH  18  23
ATOM     20  C   LIG    1       -0.866  -3.806   1.474  0.00  0.00    +0.030 A 
ATOM     21  C   LIG    1       -2.191  -3.797   1.890  0.00  0.00    +0.025 A 
ATOM     22  C   LIG    1       -2.671  -4.816   2.688  0.00  0.00    +0.025 A 
ATOM     23  C   LIG    1       -1.829  -5.851   3.074  0.00  0.00    +0.027 A 
ATOM     24  C   LIG    1       -0.504  -5.861   2.657  0.00  0.00    +0.025 A 
ATOM     25  C   LIG    1       -0.025  -4.844   1.855  0.00  0.00    +0.025 A 
BRANCH  20  30
ATOM     26  C   LIG    1        1.221   1.068   0.109  0.00  0.00    +0.105 C 
ATOM     27  N   LIG    1        0.683  -0.292  -0.031  0.00  0.00    -0.302 NA
ATOM     28  C   LIG    1       -0.700  -0.365   0.458  0.00  0.00    +0.103 C 
ATOM     29  C   LIG    1       -1.282  -1.744   0.130  0.00  0.00    +0.120 C 
ATOM     30  N   LIG    1       -0.378  -2.772   0.666  0.00  0.00    -0.327 N 
ATOM     31  C   LIG    1        1.051  -2.686   0.331  0.00  0.00    +0.120 C 
ATOM     32  C   LIG    1        1.542  -1.270   0.650  0.00  0.00    +0.103 C 
ENDBRANCH  20  30
ENDBRANCH  18  23
ENDBRANCH   1  18
TORSDOF 4
