REMARK  Name = ZINC21982951
REMARK                            x       y       z     vdW  Elec       q    Type
REMARK                         _______ _______ _______ _____ _____    ______ ____
ROOT
ATOM      1  C   LIG    1        0.220   2.441   9.106  0.00  0.00    +0.144 C 
ATOM      2  N   LIG    1        0.391   3.418   9.996  0.00  0.00    -0.283 NA
ATOM      3  H   LIG    1       -0.258   4.162   9.738  0.00  0.00    +0.125 HD
ATOM      4  C   LIG    1        0.219   3.198  11.283  0.00  0.00    +0.121 C 
ATOM      5  C   LIG    1        0.416   4.335  12.252  0.00  0.00    +0.041 C 
ATOM      6  N   LIG    1       -0.116   2.012  11.748  0.00  0.00    -0.286 NA
ATOM      7  H   LIG    1       -0.231   1.887  12.703  0.00  0.00    +0.125 HD
ATOM      8  C   LIG    1       -0.300   0.982  10.924  0.00  0.00    +0.128 C 
ATOM      9  C   LIG    1       -0.134   1.173   9.556  0.00  0.00    +0.073 C 
ENDROOT
BRANCH   8  10
ATOM     10  N   LIG    1       -0.653  -0.263  11.422  0.00  0.00    -0.291 NA
ATOM     11  C   LIG    1       -0.964  -0.447  12.848  0.00  0.00    +0.067 C 
ATOM     12  C   LIG    1       -2.303  -1.184  12.963  0.00  0.00    -0.063 C 
ATOM     13  N   LIG    1       -2.241  -2.431  12.190  0.00  0.00    +0.383 N 
ATOM     14  H   LIG    1       -1.458  -2.983  12.508  0.00  0.00    -0.082 HD
ATOM     15  C   LIG    1       -2.077  -2.128  10.763  0.00  0.00    -0.063 C 
ATOM     16  C   LIG    1       -0.733  -1.436  10.539  0.00  0.00    +0.067 C 
BRANCH  13  17
ATOM     17  C   LIG    1       -3.483  -3.190  12.389  0.00  0.00    -0.051 C 
BRANCH  17  18
ATOM     18  C   LIG    1       -3.370  -4.545  11.687  0.00  0.00    +0.137 C 
BRANCH  18  19
ATOM     19  O   LIG    1       -2.348  -5.322  12.313  0.00  0.00    -0.397 OA
ATOM     20  H   LIG    1       -2.221  -6.196  11.918  0.00  0.00    +0.209 HD
ENDBRANCH  18  19
ENDBRANCH  17  18
ENDBRANCH  13  17
ENDBRANCH   8  10
BRANCH   1  21
ATOM     21  N   LIG    1        0.399   2.684   7.751  0.00  0.00    -0.308 N 
ATOM     22  H   LIG    1        0.349   1.952   7.116  0.00  0.00    +0.149 HD
BRANCH  21  26
ATOM     23  C   LIG    1        1.090   6.234   6.073  0.00  0.00    +0.095 A 
ATOM     24  C   LIG    1        1.062   6.219   7.460  0.00  0.00    +0.133 A 
ATOM     25  N   LIG    1        0.836   5.059   8.025  0.00  0.00    -0.233 NA
ATOM     26  C   LIG    1        0.646   3.967   7.306  0.00  0.00    +0.160 A 
ATOM     27  S   LIG    1        0.769   4.514   5.718  0.00  0.00    -0.048 S 
BRANCH  23  30
ATOM     28  N   LIG    1        1.293   7.143   3.824  0.00  0.00    -0.280 N 
ATOM     29  H   LIG    1        1.051   6.272   3.472  0.00  0.00    +0.155 HD
ATOM     30  C   LIG    1        1.314   7.351   5.155  0.00  0.00    +0.256 C 
ATOM     31  O   LIG    1        1.519   8.468   5.594  0.00  0.00    -0.269 OA
BRANCH  28  39
ATOM     32  C   LIG    1        3.277   6.658   1.843  0.00  0.00    +0.046 C 
ATOM     33  C   LIG    1        2.584   7.990   1.967  0.00  0.00    -0.028 A 
ATOM     34  C   LIG    1        2.901   9.018   1.100  0.00  0.00    +0.005 A 
ATOM     35  C   LIG    1        2.266  10.241   1.212  0.00  0.00    +0.002 A 
ATOM     36  C   LIG    1        1.311  10.440   2.193  0.00  0.00    +0.022 A 
ATOM     37  C   LIG    1        0.989   9.417   3.063  0.00  0.00    +0.062 A 
ATOM     38 CL   LIG    1       -0.210   9.667   4.294  0.00  0.00    -0.082 Cl
ATOM     39  C   LIG    1        1.621   8.184   2.949  0.00  0.00    +0.055 A 
ENDBRANCH  28  39
ENDBRANCH  23  30
ENDBRANCH  21  26
ENDBRANCH   1  21
TORSDOF 8
