REMARK  Name = ZINC19278906
REMARK                            x       y       z     vdW  Elec       q    Type
REMARK                         _______ _______ _______ _____ _____    ______ ____
ROOT
ATOM      1  C   UNK A  0        3.698  -0.683  -0.037  0.00  0.00    +0.250 C 
ATOM      2  N   HIS A  1        4.276  -1.004  -1.212  0.00  0.00    -0.298 N 
ATOM      3  H   HIS A  1        3.843  -0.764  -2.046  0.00  0.00    +0.150 HD
ATOM      4  O   UNK A  0        4.240  -0.983   1.009  0.00  0.00    -0.270 OA
ENDROOT
BRANCH   1   9
ATOM      5  C   UNK A  0       -0.017   1.379   0.010  0.00  0.00    +0.006 A 
ATOM      6  C   UNK A  0        1.167   2.095   0.002  0.00  0.00    +0.039 A 
ATOM      7  C   UNK A  0        2.380   1.432  -0.013  0.00  0.00    +0.138 A 
ATOM      8  F   UNK A  0        3.535   2.133  -0.021  0.00  0.00    -0.205 F 
ATOM      9  C   UNK A  0        2.408   0.033  -0.021  0.00  0.00    +0.107 A 
ATOM     10  C   UNK A  0        1.206  -0.683  -0.013  0.00  0.00    +0.138 A 
ATOM     11  F   UNK A  0        1.222  -2.034  -0.021  0.00  0.00    -0.205 F 
ATOM     12  C   UNK A  0        0.002  -0.004   0.002  0.00  0.00    +0.039 A 
ENDBRANCH   1   9
BRANCH   2  13
ATOM     13  CA  HIS A  1        5.556  -1.714  -1.228  0.00  0.00    +0.188 C 
BRANCH  13  14
ATOM     14  C   HIS A  1        6.684  -0.721  -1.111  0.00  0.00    +0.326 C 
ATOM     15  O   HIS A  1        6.440   0.470  -1.021  0.00  0.00    -0.249 OA
BRANCH  14  16
ATOM     16  OXT HIS A  1        7.840  -1.109  -1.105  0.00  0.00    -0.479 OA
ATOM     17  HXT HIS A  1        8.027  -2.024  -1.173  0.00  0.00    +0.295 HD
ENDBRANCH  14  16
ENDBRANCH  13  14
BRANCH  13  18
ATOM     18  CB  HIS A  1        5.694  -2.488  -2.541  0.00  0.00    +0.090 C 
BRANCH  18  19
ATOM     19  CG  HIS A  1        4.640  -3.563  -2.603  0.00  0.00    +0.061 A 
ATOM     20  ND1 HIS A  1        4.437  -4.522  -1.687  0.00  0.00    -0.241 NA
ATOM     21  CE1 HIS A  1        3.441  -5.275  -2.065  0.00  0.00    +0.196 A 
ATOM     22  NE2 HIS A  1        2.980  -4.820  -3.250  0.00  0.00    -0.351 N 
ATOM     23  HE2 HIS A  1        2.246  -5.193  -3.763  0.00  0.00    +0.166 HD
ATOM     24  CD2 HIS A  1        3.740  -3.734  -3.591  0.00  0.00    +0.107 A 
ENDBRANCH  18  19
ENDBRANCH  13  18
ENDBRANCH   2  13
TORSDOF 6
