REMARK  Name = ZINC28767088
REMARK                            x       y       z     vdW  Elec       q    Type
REMARK                         _______ _______ _______ _____ _____    ______ ____
ROOT
ATOM      1  C   LIG    1       -3.936  -0.537  -1.181  0.00  0.00    +0.001 A 
ATOM      2  C   LIG    1       -4.379  -1.075   0.014  0.00  0.00    +0.004 A 
ATOM      3  C   LIG    1       -3.841  -0.641   1.210  0.00  0.00    +0.046 A 
ATOM      4  C   LIG    1       -2.856   0.336   1.212  0.00  0.00    +0.132 A 
ATOM      5  C   LIG    1       -2.413   0.874   0.012  0.00  0.00    +0.005 A 
ATOM      6  C   LIG    1       -2.957   0.440  -1.181  0.00  0.00    +0.008 A 
ENDROOT
BRANCH   4   7
ATOM      7  O   LIG    1       -2.326   0.765   2.387  0.00  0.00    -0.453 OA
BRANCH   7   8
ATOM      8  C   LIG    1       -2.863   0.288   3.541  0.00  0.00    +0.163 A 
ATOM      9  C   LIG    1       -3.858   1.002   4.192  0.00  0.00    +0.049 A 
ATOM     10  C   LIG    1       -4.405   0.513   5.363  0.00  0.00    +0.004 A 
ATOM     11  C   LIG    1       -3.955  -0.683   5.892  0.00  0.00    +0.003 A 
ATOM     12  C   LIG    1       -2.959  -1.395   5.249  0.00  0.00    +0.042 A 
ATOM     13  C   LIG    1       -2.411  -0.913   4.074  0.00  0.00    +0.165 A 
ATOM     14  F   LIG    1       -1.439  -1.609   3.446  0.00  0.00    -0.202 F 
ENDBRANCH   7   8
ENDBRANCH   4   7
BRANCH   5  15
ATOM     15  C   LIG    1       -1.343   1.935   0.011  0.00  0.00    +0.159 C 
BRANCH  15  16
ATOM     16  C   LIG    1        0.014   1.281   0.052  0.00  0.00    +0.309 C 
ATOM     17  O   LIG    1        0.103   0.076   0.079  0.00  0.00    -0.251 OA
BRANCH  16  18
ATOM     18  O   LIG    1        1.123   2.037   0.052  0.00  0.00    -0.480 OA
ATOM     19  H   LIG    1        1.054   2.971   0.031  0.00  0.00    +0.295 HD
ENDBRANCH  16  18
ENDBRANCH  15  16
ENDBRANCH   5  15
TORSDOF 5
