REMARK  Name = ZINC14980224
REMARK                            x       y       z     vdW  Elec       q    Type
REMARK                         _______ _______ _______ _____ _____    ______ ____
ROOT
ATOM      1  C   LIG    1       -0.017   1.382   0.010  0.00  0.00    +0.007 A 
ATOM      2  C   LIG    1        1.160   2.101   0.002  0.00  0.00    +0.050 A 
ATOM      3  C   LIG    1        2.380   1.435  -0.013  0.00  0.00    +0.174 A 
ATOM      4  C   LIG    1        2.402   0.032  -0.021  0.00  0.00    +0.119 A 
ATOM      5  C   LIG    1        3.818  -0.360  -0.036  0.00  0.00    +0.263 A 
ATOM      6  N   LIG    1        4.523   0.735  -0.037  0.00  0.00    -0.039 NA
ATOM      7  C   LIG    1        1.203  -0.684  -0.013  0.00  0.00    +0.139 A 
ATOM      8  F   LIG    1        1.218  -2.035  -0.021  0.00  0.00    -0.205 F 
ATOM      9  O   LIG    1        3.662   1.855  -0.023  0.00  0.00    -0.351 OA
ATOM     10  C   LIG    1        0.002  -0.004   0.002  0.00  0.00    +0.039 A 
ENDROOT
BRANCH   5  11
ATOM     11  O   LIG    1        4.301  -1.627  -0.049  0.00  0.00    -0.490 OA
ATOM     12  H   LIG    1        3.710  -2.354  -0.047  0.00  0.00    +0.294 HD
ENDBRANCH   5  11
TORSDOF 1
