REMARK  Name = ZINC21991120
REMARK                            x       y       z     vdW  Elec       q    Type
REMARK                         _______ _______ _______ _____ _____    ______ ____
ROOT
ATOM      1  C   LIG    1       -0.727   1.032   3.833  0.00  0.00    +0.008 C 
ATOM      2  C   LIG    1       -1.186  -0.065   4.795  0.00  0.00    +0.021 C 
ATOM      3  C   LIG    1       -2.171   0.528   3.785  0.00  0.00    +0.056 C 
ENDROOT
BRANCH   3   4
ATOM      4  C   LIG    1       -3.245   1.442   4.314  0.00  0.00    +0.309 C 
ATOM      5  O   LIG    1       -2.951   2.528   4.755  0.00  0.00    -0.250 OA
BRANCH   4   6
ATOM      6  O   LIG    1       -4.529   1.050   4.296  0.00  0.00    -0.480 OA
ATOM      7  H   LIG    1       -4.757   0.208   3.954  0.00  0.00    +0.295 HD
ENDBRANCH   4   6
ENDBRANCH   3   4
BRANCH   1   8
ATOM      8  C   LIG    1        0.203   0.624   2.688  0.00  0.00    -0.007 C 
BRANCH   8  10
ATOM      9  C   LIG    1        1.204   1.362   0.521  0.00  0.00    +0.004 C 
ATOM     10  C   LIG    1        0.400   1.811   1.743  0.00  0.00    +0.000 C 
ENDBRANCH   8  10
BRANCH   8  11
ATOM     11  C   LIG    1        1.556   0.195   3.258  0.00  0.00    +0.000 C 
ATOM     12  C   LIG    1        1.383  -1.089   4.072  0.00  0.00    +0.004 C 
ENDBRANCH   8  11
ENDBRANCH   1   8
BRANCH   3  13
ATOM     13  C   LIG    1       -2.574  -0.346   2.596  0.00  0.00    -0.068 C 
BRANCH  13  14
ATOM     14  N   LIG    1       -3.944  -0.840   2.793  0.00  0.00    +0.379 N 
ATOM     15  H   LIG    1       -3.989  -1.435   3.718  0.00  0.00    -0.090 HD
ATOM     16  H   LIG    1       -4.633   0.013   2.872  0.00  0.00    -0.090 HD
ATOM     17  H   LIG    1       -4.234  -1.469   1.938  0.00  0.00    -0.090 HD
ENDBRANCH  13  14
ENDBRANCH   3  13
TORSDOF 7
