REMARK  Name = ZINC35636075
REMARK                            x       y       z     vdW  Elec       q    Type
REMARK                         _______ _______ _______ _____ _____    ______ ____
ROOT
ATOM      1  C   LIG    1       -1.677  -2.277  -0.505  0.00  0.00    +0.124 C 
ATOM      2  C   LIG    1       -3.141  -2.638  -0.616  0.00  0.00    +0.041 A 
ATOM      3  C   LIG    1       -3.669  -3.294  -1.671  0.00  0.00    -0.015 A 
ATOM      4  C   LIG    1       -2.888  -3.746  -2.879  0.00  0.00    +0.069 C 
ATOM      5  CA  LIG    1       -1.392  -3.740  -2.536  0.00  0.00    +0.167 C 
ATOM      6  C   LIG    1       -0.590  -3.885  -3.789  0.00  0.00    +0.235 C 
ATOM      7  O   LIG    1       -0.705  -4.915  -4.419  0.00  0.00    -0.274 OA
ATOM      8  N   LIG    1        0.250  -2.986  -4.262  0.00  0.00    -0.302 N 
ATOM      9  H   LIG    1        0.724  -3.184  -5.085  0.00  0.00    +0.150 HD
ATOM     10  CA  LIG    1        0.493  -1.704  -3.623  0.00  0.00    +0.160 C 
ATOM     11  C   LIG    1       -0.248  -1.571  -2.333  0.00  0.00    +0.237 C 
ATOM     12  O   LIG    1       -0.098  -0.548  -1.697  0.00  0.00    -0.274 OA
ATOM     13  C   LIG    1       -5.085  -3.455  -1.405  0.00  0.00    +0.003 A 
ATOM     14  C   LIG    1       -6.121  -4.052  -2.128  0.00  0.00    +0.014 A 
ATOM     15  C   LIG    1       -7.372  -4.019  -1.565  0.00  0.00    +0.046 A 
ATOM     16  C   LIG    1       -7.610  -3.422  -0.332  0.00  0.00    +0.122 A 
ATOM     17  C   LIG    1       -6.598  -2.824   0.406  0.00  0.00    +0.071 A 
ATOM     18  C   LIG    1       -5.318  -2.845  -0.145  0.00  0.00    +0.050 A 
ATOM     19  N   LIG    1       -4.122  -2.364   0.301  0.00  0.00    -0.356 N 
ATOM     20  H   LIG    1       -3.986  -1.899   1.142  0.00  0.00    +0.166 HD
ATOM     21  N   LIG    1       -1.064  -2.500  -1.832  0.00  0.00    -0.280 N 
ENDROOT
BRANCH  16  22
ATOM     22  O   LIG    1       -8.875  -3.424   0.166  0.00  0.00    -0.495 OA
ATOM     23  C   LIG    1       -9.884  -4.050  -0.628  0.00  0.00    +0.277 C 
ENDBRANCH  16  22
BRANCH   1  24
ATOM     24  C   LIG    1       -1.532  -0.807  -0.106  0.00  0.00    +0.031 C 
BRANCH  24  26
ATOM     25  C   LIG    1       -2.005   1.516  -0.893  0.00  0.00    +0.007 C 
ATOM     26  C   LIG    1       -2.441   0.052  -0.986  0.00  0.00    -0.015 C 
ATOM     27  C   LIG    1       -2.340  -0.419  -2.438  0.00  0.00    +0.007 C 
ENDBRANCH  24  26
ENDBRANCH   1  24
BRANCH  10  28
ATOM     28  C   LIG    1        0.050  -0.586  -4.569  0.00  0.00    +0.043 C 
BRANCH  28  29
ATOM     29  C   LIG    1        0.890  -0.636  -5.846  0.00  0.00    +0.123 C 
BRANCH  29  30
ATOM     30  C   LIG    1        0.453   0.465  -6.778  0.00  0.00    +0.308 C 
ATOM     31  O   LIG    1       -0.439   1.213  -6.454  0.00  0.00    -0.251 OA
BRANCH  30  32
ATOM     32  O   LIG    1        1.055   0.615  -7.969  0.00  0.00    -0.459 OA
BRANCH  32  33
ATOM     33  C   LIG    1        0.590   1.680  -8.801  0.00  0.00    +0.105 C 
ATOM     34  C   LIG    1       -0.893   1.472  -9.114  0.00  0.00    +0.055 C 
ATOM     35  C   LIG    1        1.389   1.693 -10.106  0.00  0.00    +0.055 C 
ATOM     36  C   LIG    1        0.776   3.014  -8.075  0.00  0.00    +0.055 C 
ENDBRANCH  32  33
ENDBRANCH  30  32
ENDBRANCH  29  30
ENDBRANCH  28  29
ENDBRANCH  10  28
TORSDOF 8
