REMARK  Name = ZINC22055510
REMARK                            x       y       z     vdW  Elec       q    Type
REMARK                         _______ _______ _______ _____ _____    ______ ____
ROOT
ATOM      1  C   LIG    1       -0.751   1.597   3.567  0.00  0.00    +0.162 A 
ATOM      2  C   LIG    1       -0.207   1.225   4.790  0.00  0.00    +0.054 A 
ATOM      3  C   LIG    1        0.929   0.445   4.836  0.00  0.00    -0.028 A 
ATOM      4  C   LIG    1        1.539   0.025   3.653  0.00  0.00    +0.029 A 
ATOM      5  C   LIG    1        2.729  -0.791   3.963  0.00  0.00    +0.190 C 
ATOM      6  C   LIG    1        2.865  -0.883   5.425  0.00  0.00    +0.001 C 
ATOM      7  C   LIG    1        3.812  -1.531   6.101  0.00  0.00    -0.016 C 
ATOM      8  O   LIG    1        3.472  -1.303   3.147  0.00  0.00    -0.287 OA
ATOM      9  C   LIG    1        0.985   0.396   2.420  0.00  0.00    +0.061 A 
ATOM     10  C   LIG    1        1.716  -0.093   6.006  0.00  0.00    +0.074 C 
ATOM     11  C   LIG    1       -0.148   1.182   2.381  0.00  0.00    +0.162 A 
ENDROOT
BRANCH   7  12
ATOM     12  C   LIG    1        4.893  -2.273   5.359  0.00  0.00    +0.009 C 
ATOM     13  C   LIG    1        4.851  -3.755   5.743  0.00  0.00    -0.011 C 
ATOM     14  C   LIG    1        5.989  -4.493   5.033  0.00  0.00    -0.078 C 
ATOM     15  N   LIG    1        7.276  -3.903   5.424  0.00  0.00    +0.382 N 
ATOM     16  H   LIG    1        7.343  -3.944   6.521  0.00  0.00    -0.081 HD
ATOM     17  C   LIG    1        7.357  -2.493   5.024  0.00  0.00    -0.078 C 
ATOM     18  C   LIG    1        6.260  -1.695   5.733  0.00  0.00    -0.011 C 
BRANCH  15  19
ATOM     19  C   LIG    1        8.398  -4.673   4.871  0.00  0.00    -0.043 C 
BRANCH  19  20
ATOM     20  C   LIG    1        8.155  -6.144   5.092  0.00  0.00    -0.064 A 
ATOM     21  C   LIG    1        8.612  -6.755   6.244  0.00  0.00    +0.002 A 
ATOM     22  C   LIG    1        8.386  -8.103   6.449  0.00  0.00    +0.000 A 
ATOM     23  C   LIG    1        7.710  -8.842   5.496  0.00  0.00    +0.000 A 
ATOM     24  C   LIG    1        7.256  -8.232   4.341  0.00  0.00    +0.000 A 
ATOM     25  C   LIG    1        7.479  -6.883   4.139  0.00  0.00    +0.002 A 
ENDBRANCH  19  20
ENDBRANCH  15  19
ENDBRANCH   7  12
BRANCH   1  27
ATOM     26  C   LIG    1       -2.434   2.755   4.782  0.00  0.00    +0.277 C 
ATOM     27  O   LIG    1       -1.869   2.366   3.528  0.00  0.00    -0.491 OA
ENDBRANCH   1  27
BRANCH  11  28
ATOM     28  O   LIG    1       -0.682   1.547   1.184  0.00  0.00    -0.491 OA
ATOM     29  C   LIG    1       -0.013   1.086   0.008  0.00  0.00    +0.277 C 
ENDBRANCH  11  28
TORSDOF 5
