REMARK  Name = ZINC53092456
REMARK                            x       y       z     vdW  Elec       q    Type
REMARK                         _______ _______ _______ _____ _____    ______ ____
ROOT
ATOM      1  C   LIG    1       -3.336  -1.100  -1.298  0.00  0.00    -0.033 A 
ATOM      2  C   LIG    1       -3.570  -2.460  -1.384  0.00  0.00    +0.008 A 
ATOM      3  C   LIG    1       -4.863  -2.944  -1.338  0.00  0.00    +0.046 A 
ATOM      4  C   LIG    1       -5.928  -2.064  -1.206  0.00  0.00    +0.121 A 
ATOM      5  C   LIG    1       -5.690  -0.700  -1.120  0.00  0.00    +0.046 A 
ATOM      6  C   LIG    1       -4.395  -0.221  -1.161  0.00  0.00    +0.008 A 
ENDROOT
BRANCH   1   7
ATOM      7  C   LIG    1       -1.924  -0.575  -1.349  0.00  0.00    +0.117 C 
BRANCH   7   8
ATOM      8  N   LIG    1       -1.376  -0.512   0.012  0.00  0.00    -0.302 NA
ATOM      9  H   LIG    1       -1.426  -1.413   0.464  0.00  0.00    +0.123 HD
BRANCH   8  11
ATOM     10  C   LIG    1       -0.019   1.526   0.010  0.00  0.00    +0.034 C 
ATOM     11  C   LIG    1        0.002  -0.004   0.002  0.00  0.00    +0.137 C 
BRANCH  11  12
ATOM     12  C   LIG    1        0.731  -0.503   1.223  0.00  0.00    +0.227 C 
ATOM     13  N   LIG    1        2.019  -0.161   1.426  0.00  0.00    -0.328 N 
ATOM     14  H   LIG    1        2.488  -0.483   2.212  0.00  0.00    +0.145 HD
ATOM     15  H   LIG    1        2.476   0.406   0.786  0.00  0.00    +0.145 HD
ATOM     16  O   LIG    1        0.159  -1.213   2.023  0.00  0.00    -0.274 OA
ENDBRANCH  11  12
ENDBRANCH   8  11
ENDBRANCH   7   8
ENDBRANCH   1   7
BRANCH   4  17
ATOM     17  O   LIG    1       -7.201  -2.537  -1.161  0.00  0.00    -0.487 OA
BRANCH  17  18
ATOM     18  C   LIG    1       -8.247  -1.573  -1.023  0.00  0.00    +0.264 C 
BRANCH  18  19
ATOM     19  C   LIG    1       -9.578  -2.278  -0.992  0.00  0.00    -0.010 A 
ATOM     20  C   LIG    1      -10.261  -2.518  -2.170  0.00  0.00    +0.007 A 
ATOM     21  C   LIG    1      -11.483  -3.164  -2.141  0.00  0.00    +0.000 A 
ATOM     22  C   LIG    1      -12.021  -3.572  -0.935  0.00  0.00    +0.000 A 
ATOM     23  C   LIG    1      -11.338  -3.333   0.243  0.00  0.00    +0.000 A 
ATOM     24  C   LIG    1      -10.114  -2.690   0.214  0.00  0.00    +0.007 A 
ENDBRANCH  18  19
ENDBRANCH  17  18
ENDBRANCH   4  17
TORSDOF 7
