REMARK  Name = ZINC19802119
REMARK                            x       y       z     vdW  Elec       q    Type
REMARK                         _______ _______ _______ _____ _____    ______ ____
ROOT
ATOM      1  S   LIG    1       -0.260  -0.151   5.176  0.00  0.00    -0.093 S 
ENDROOT
BRANCH   1   2
ATOM      2  C   LIG    1        0.708  -0.797   6.499  0.00  0.00    +0.123 C 
ATOM      3  N   LIG    1        0.702  -0.192   7.687  0.00  0.00    -0.382 N 
ATOM      4  H   LIG    1        1.235  -0.547   8.415  0.00  0.00    +0.158 HD
ATOM      5  H   LIG    1        0.164   0.604   7.823  0.00  0.00    +0.158 HD
BRANCH   2   6
ATOM      6  N   LIG    1        1.447  -1.890   6.312  0.00  0.00    -0.340 N 
ATOM      7  H   LIG    1        1.980  -2.246   7.040  0.00  0.00    +0.144 HD
ATOM      8  H   LIG    1        1.452  -2.331   5.448  0.00  0.00    +0.144 HD
ENDBRANCH   2   6
ENDBRANCH   1   2
BRANCH   1   9
ATOM      9  C   LIG    1        0.669  -0.610   3.687  0.00  0.00    +0.075 C 
BRANCH   9  10
ATOM     10  C   LIG    1       -0.071  -0.103   2.448  0.00  0.00    -0.008 C 
BRANCH  10  11
ATOM     11  C   LIG    1        0.713  -0.491   1.192  0.00  0.00    -0.079 C 
BRANCH  11  13
ATOM     12  C   LIG    1       -0.018   1.465   0.010  0.00  0.00    -0.097 C 
ATOM     13  N   LIG    1        0.002  -0.004   0.002  0.00  0.00    +0.376 N 
ATOM     14  H   LIG    1       -0.945  -0.353   0.009  0.00  0.00    -0.083 HD
ATOM     15  C   LIG    1        0.690  -0.478  -1.207  0.00  0.00    -0.097 C 
ENDBRANCH  11  13
ENDBRANCH  10  11
ENDBRANCH   9  10
ENDBRANCH   1   9
TORSDOF 6
