REMARK  Name = ZINC13759268
REMARK                            x       y       z     vdW  Elec       q    Type
REMARK                         _______ _______ _______ _____ _____    ______ ____
ROOT
ATOM      1  N   LIG    1        3.567   2.005  -0.050  0.00  0.00    -0.072 NA
ATOM      2  C   LIG    1        3.797   2.992   0.785  0.00  0.00    +0.382 C 
ENDROOT
BRANCH   1   5
ATOM      3  C   LIG    1       -0.043   1.514  -0.281  0.00  0.00    +0.023 A 
ATOM      4  C   LIG    1        1.176   2.169  -0.259  0.00  0.00    +0.049 A 
ATOM      5  C   LIG    1        2.336   1.405  -0.079  0.00  0.00    +0.160 A 
ATOM      6  C   LIG    1        2.216   0.022   0.071  0.00  0.00    +0.156 A 
ATOM      7  N   LIG    1        1.032  -0.554   0.043  0.00  0.00    -0.260 NA
ATOM      8  C   LIG    1       -0.077   0.141  -0.126  0.00  0.00    +0.111 A 
ENDBRANCH   1   5
BRANCH   2   9
ATOM      9  N   LIG    1        4.990   3.670   0.735  0.00  0.00    -0.289 N 
ATOM     10  H   LIG    1        5.160   4.399   1.351  0.00  0.00    +0.255 HD
ATOM     11  H   LIG    1        5.662   3.419   0.082  0.00  0.00    +0.255 HD
ENDBRANCH   2   9
BRANCH   2  12
ATOM     12  N   LIG    1        2.846   3.346   1.708  0.00  0.00    -0.289 N 
ATOM     13  H   LIG    1        2.971   4.138   2.255  0.00  0.00    +0.255 HD
ATOM     14  H   LIG    1        2.048   2.805   1.814  0.00  0.00    +0.255 HD
ENDBRANCH   2  12
TORSDOF 3
