REMARK  Name = ZINC19811901
REMARK                            x       y       z     vdW  Elec       q    Type
REMARK                         _______ _______ _______ _____ _____    ______ ____
ROOT
ATOM      1  C   LIG    1        1.407  -4.257   3.551  0.00  0.00    +0.019 A 
ATOM      2  C   LIG    1        1.376  -2.855   3.578  0.00  0.00    +0.031 A 
ATOM      3  C   LIG    1        1.468  -2.190   4.781  0.00  0.00    +0.042 A 
ATOM      4 CL   LIG    1        1.429  -0.455   4.814  0.00  0.00    -0.084 Cl
ATOM      5  C   LIG    1        1.591  -2.901   5.967  0.00  0.00    +0.023 A 
ATOM      6  C   LIG    1        1.622  -4.281   5.957  0.00  0.00    +0.048 A 
ATOM      7  C   LIG    1        1.526  -4.971   4.758  0.00  0.00    +0.128 A 
ENDROOT
BRANCH   1  13
ATOM      8  N   LIG    1       -1.685  -3.415   0.780  0.00  0.00    -0.186 N 
ATOM      9  C   LIG    1       -0.762  -3.701   1.722  0.00  0.00    +0.264 C 
ATOM     10  C   LIG    1        0.329  -4.630   1.368  0.00  0.00    +0.097 C 
ATOM     11  C   LIG    1        0.326  -5.179  -0.003  0.00  0.00    +0.218 C 
ATOM     12  N   LIG    1       -0.665  -4.802  -0.837  0.00  0.00    -0.127 NA
ATOM     13  C   LIG    1        1.310  -4.972   2.279  0.00  0.00    +0.029 C 
ATOM     14  O   LIG    1       -0.827  -3.208   2.831  0.00  0.00    -0.269 OA
ATOM     15  C   LIG    1       -1.628  -3.956  -0.445  0.00  0.00    +0.340 C 
ATOM     16  O   LIG    1       -2.494  -3.660  -1.244  0.00  0.00    -0.250 OA
BRANCH   8  22
ATOM     17  C   LIG    1       -3.614  -0.308   1.183  0.00  0.00    +0.002 A 
ATOM     18  C   LIG    1       -4.796  -0.797   1.709  0.00  0.00    +0.003 A 
ATOM     19  C   LIG    1       -4.949  -2.154   1.927  0.00  0.00    +0.040 A 
ATOM     20  C   LIG    1       -3.920  -3.026   1.621  0.00  0.00    +0.145 A 
ATOM     21  F   LIG    1       -4.069  -4.351   1.834  0.00  0.00    -0.204 F 
ATOM     22  C   LIG    1       -2.731  -2.535   1.092  0.00  0.00    +0.081 A 
ATOM     23  C   LIG    1       -2.582  -1.173   0.875  0.00  0.00    +0.027 A 
ENDBRANCH   8  22
BRANCH  11  24
ATOM     24  O   LIG    1        1.191  -5.952  -0.369  0.00  0.00    -0.493 OA
ATOM     25  H   LIG    1        1.873  -6.205   0.222  0.00  0.00    +0.294 HD
ENDBRANCH  11  24
ENDBRANCH   1  13
BRANCH   7  26
ATOM     26  O   LIG    1        1.551  -6.327   4.748  0.00  0.00    -0.487 OA
BRANCH  26  27
ATOM     27  C   LIG    1        1.673  -6.983   6.012  0.00  0.00    +0.264 C 
BRANCH  27  28
ATOM     28  C   LIG    1        1.684  -8.475   5.805  0.00  0.00    -0.010 A 
ATOM     29  C   LIG    1        0.497  -9.184   5.819  0.00  0.00    +0.009 A 
ATOM     30  C   LIG    1        0.506 -10.552   5.625  0.00  0.00    +0.033 A 
ATOM     31  C   LIG    1        1.703 -11.214   5.424  0.00  0.00    +0.122 A 
ATOM     32  C   LIG    1        2.891 -10.506   5.415  0.00  0.00    +0.033 A 
ATOM     33  C   LIG    1        2.881  -9.137   5.606  0.00  0.00    +0.009 A 
BRANCH  31  34
ATOM     34  N   LIG    1        1.713 -12.680   5.220  0.00  0.00    +0.006 N 
ATOM     35  O   LIG    1        2.768 -13.263   5.044  0.00  0.00    -0.130 OA
BRANCH  34  36
ATOM     36  O   LIG    1        0.667 -13.303   5.228  0.00  0.00    -0.396 OA
ATOM     37  H   LIG    1       -0.145 -12.855   5.363  0.00  0.00    +0.329 HD
ENDBRANCH  34  36
ENDBRANCH  31  34
ENDBRANCH  27  28
ENDBRANCH  26  27
ENDBRANCH   7  26
TORSDOF 8
