REMARK  Name = ZINC00008508
REMARK                            x       y       z     vdW  Elec       q    Type
REMARK                         _______ _______ _______ _____ _____    ______ ____
ROOT
ATOM      1  C   LIG    1        2.482   1.497  -0.013  0.00  0.00    +0.158 C 
ENDROOT
BRANCH   1   7
ATOM      2  C   LIG    1        1.456   4.421   0.011  0.00  0.00    +0.086 C 
ATOM      3  C   LIG    1        0.610   3.174   0.013  0.00  0.00    +0.107 A 
ATOM      4  N   LIG    1       -0.695   3.141   0.025  0.00  0.00    -0.241 NA
ATOM      5  C   LIG    1       -1.105   1.864   0.017  0.00  0.00    +0.130 A 
ATOM      6  C   LIG    1       -0.013   1.076   0.008  0.00  0.00    +0.107 A 
ATOM      7  N   LIG    1        1.075   1.907   0.002  0.00  0.00    -0.330 N 
ENDBRANCH   1   7
BRANCH   1   8
ATOM      8  C   LIG    1        3.012   1.469   1.397  0.00  0.00    -0.025 A 
ATOM      9  C   LIG    1        3.598   2.594   1.958  0.00  0.00    +0.025 A 
ATOM     10  C   LIG    1        4.069   2.532   3.256  0.00  0.00    +0.111 A 
ATOM     11  N   LIG    1        3.975   1.418   3.955  0.00  0.00    -0.263 NA
ATOM     12  C   LIG    1        3.429   0.328   3.452  0.00  0.00    +0.111 A 
ATOM     13  C   LIG    1        2.931   0.316   2.163  0.00  0.00    +0.025 A 
ENDBRANCH   1   8
TORSDOF 2
