REMARK  Name = ZINC45390920
REMARK                            x       y       z     vdW  Elec       q    Type
REMARK                         _______ _______ _______ _____ _____    ______ ____
ROOT
ATOM      1  C   LIG    1        4.350  -1.419   7.348  0.00  0.00    -0.030 A 
ATOM      2  C   LIG    1        5.629  -0.921   7.176  0.00  0.00    +0.005 A 
ATOM      3  C   LIG    1        6.128   0.035   8.042  0.00  0.00    +0.001 A 
ATOM      4  C   LIG    1        5.352   0.499   9.084  0.00  0.00    +0.013 A 
ATOM      5  C   LIG    1        4.060   0.001   9.263  0.00  0.00    +0.037 A 
ATOM      6  C   LIG    1        3.561  -0.960   8.382  0.00  0.00    +0.018 A 
ENDROOT
BRANCH   5   7
ATOM      7  C   LIG    1        3.223   0.493  10.378  0.00  0.00    +0.248 C 
ATOM      8  N   LIG    1        3.707   1.424  11.224  0.00  0.00    -0.281 N 
ATOM      9  H   LIG    1        4.626   1.722  11.143  0.00  0.00    +0.155 HD
ATOM     10  O   LIG    1        2.099   0.057  10.531  0.00  0.00    -0.270 OA
BRANCH   8  11
ATOM     11  C   LIG    1        2.882   1.960  12.218  0.00  0.00    +0.034 A 
ATOM     12  C   LIG    1        1.933   1.161  12.843  0.00  0.00    +0.023 A 
ATOM     13  C   LIG    1        1.124   1.699  13.822  0.00  0.00    +0.005 A 
ATOM     14  C   LIG    1        1.253   3.031  14.186  0.00  0.00    -0.048 A 
ATOM     15  C   LIG    1        2.196   3.826  13.570  0.00  0.00    -0.060 A 
ATOM     16  C   LIG    1        2.375   5.275  13.942  0.00  0.00    -0.046 C 
ATOM     17  N   LIG    1        1.191   5.777  14.646  0.00  0.00    +0.382 N 
ATOM     18  H   LIG    1        0.402   5.782  14.017  0.00  0.00    -0.085 HD
ATOM     19  H   LIG    1        1.367   6.714  14.977  0.00  0.00    -0.085 HD
ATOM     20  C   LIG    1        0.904   4.897  15.789  0.00  0.00    -0.077 C 
ATOM     21  C   LIG    1        0.344   3.576  15.258  0.00  0.00    +0.016 C 
ATOM     22  C   LIG    1        3.014   3.290  12.589  0.00  0.00    +0.025 A 
ENDBRANCH   8  11
ENDBRANCH   5   7
BRANCH   1  23
ATOM     23  C   LIG    1        3.815  -2.462   6.400  0.00  0.00    +0.139 C 
BRANCH  23  25
ATOM     24  C   LIG    1        2.591  -2.540   4.295  0.00  0.00    +0.244 C 
ATOM     25  N   LIG    1        3.149  -1.802   5.274  0.00  0.00    -0.307 N 
ATOM     26  H   LIG    1        3.110  -0.833   5.234  0.00  0.00    +0.149 HD
ATOM     27  O   LIG    1        2.639  -3.754   4.346  0.00  0.00    -0.270 OA
BRANCH  24  31
ATOM     28  C   LIG    1        0.662  -0.621   1.030  0.00  0.00    +0.162 A 
ATOM     29  C   LIG    1        1.236   0.138   2.041  0.00  0.00    +0.050 A 
ATOM     30  C   LIG    1        1.863  -0.481   3.101  0.00  0.00    +0.017 A 
ATOM     31  C   LIG    1        1.920  -1.875   3.160  0.00  0.00    +0.040 A 
ATOM     32  C   LIG    1        1.341  -2.640   2.144  0.00  0.00    +0.062 A 
ATOM     33  C   LIG    1        0.710  -2.013   1.087  0.00  0.00    +0.162 A 
BRANCH  28  35
ATOM     34  C   LIG    1        0.032   1.423  -0.006  0.00  0.00    +0.277 C 
ATOM     35  O   LIG    1        0.046  -0.006  -0.012  0.00  0.00    -0.491 OA
ENDBRANCH  28  35
BRANCH  33  36
ATOM     36  O   LIG    1        0.142  -2.754   0.098  0.00  0.00    -0.491 OA
ATOM     37  C   LIG    1        0.229  -4.175   0.220  0.00  0.00    +0.277 C 
ENDBRANCH  33  36
ENDBRANCH  24  31
ENDBRANCH  23  25
ENDBRANCH   1  23
TORSDOF 7
