REMARK  Name = ZINC40394908
REMARK                            x       y       z     vdW  Elec       q    Type
REMARK                         _______ _______ _______ _____ _____    ______ ____
ROOT
ATOM      1  N   LIG    1       -1.372  -0.511   0.012  0.00  0.00    -0.322 N 
ATOM      2  C   LIG    1       -1.999  -0.747   1.222  0.00  0.00    +0.056 A 
ATOM      3  C   LIG    1       -1.321  -0.502   2.412  0.00  0.00    +0.049 A 
ATOM      4  C   LIG    1       -1.940  -0.734   3.622  0.00  0.00    +0.078 A 
ATOM      5 CL   LIG    1       -1.084  -0.425   5.100  0.00  0.00    -0.081 Cl
ATOM      6  C   LIG    1       -3.245  -1.215   3.668  0.00  0.00    +0.142 A 
ATOM      7  F   LIG    1       -3.837  -1.439   4.862  0.00  0.00    -0.204 F 
ATOM      8  C   LIG    1       -3.934  -1.465   2.503  0.00  0.00    +0.053 A 
ATOM      9  C   LIG    1       -3.317  -1.233   1.267  0.00  0.00    +0.044 A 
ATOM     10  C   LIG    1       -4.043  -1.495   0.019  0.00  0.00    +0.144 A 
ATOM     11  C   LIG    1       -3.396  -1.252  -1.190  0.00  0.00    +0.149 A 
ATOM     12  C   LIG    1       -3.768  -1.384  -2.548  0.00  0.00    +0.373 A 
ATOM     13  O   LIG    1       -4.841  -1.778  -2.971  0.00  0.00    -0.242 OA
ATOM     14  O   LIG    1       -2.719  -0.977  -3.285  0.00  0.00    -0.310 OA
ATOM     15  N   LIG    1       -1.659  -0.595  -2.433  0.00  0.00    -0.055 NA
ATOM     16  C   LIG    1       -2.018  -0.739  -1.185  0.00  0.00    +0.191 A 
ENDROOT
BRANCH   1  18
ATOM     17  C   LIG    1       -0.019   1.526   0.010  0.00  0.00    +0.027 C 
ATOM     18  C   LIG    1        0.002  -0.004   0.002  0.00  0.00    +0.120 C 
ENDBRANCH   1  18
BRANCH  10  19
ATOM     19  O   LIG    1       -5.309  -1.961   0.042  0.00  0.00    -0.505 OA
ATOM     20  H   LIG    1       -5.734  -2.120   0.861  0.00  0.00    +0.292 HD
ENDBRANCH  10  19
TORSDOF 2
