REMARK  Name = ZINC19426088
REMARK                            x       y       z     vdW  Elec       q    Type
REMARK                         _______ _______ _______ _____ _____    ______ ____
ROOT
ATOM      1  C   LIG    1       -0.742   1.585  -1.213  0.00  0.00    +0.201 C 
ATOM      2  N   LIG    1       -0.561   0.976  -2.401  0.00  0.00    -0.303 N 
ATOM      3  C   LIG    1        0.317  -0.177  -2.649  0.00  0.00    +0.108 C 
ATOM      4  C   LIG    1        0.221  -0.512  -4.152  0.00  0.00    +0.020 C 
ATOM      5  C   LIG    1       -0.262   0.825  -4.774  0.00  0.00    +0.020 C 
ATOM      6  C   LIG    1       -1.208   1.358  -3.670  0.00  0.00    +0.108 C 
ATOM      7  O   LIG    1       -1.490   2.535  -1.126  0.00  0.00    -0.277 OA
ENDROOT
BRANCH   1   9
ATOM      8  C   LIG    1        1.423   1.615  -0.003  0.00  0.00    -0.005 C 
ATOM      9  C   LIG    1       -0.013   1.086   0.008  0.00  0.00    +0.010 C 
BRANCH   9  10
ATOM     10  N   LIG    1       -0.700   1.560   1.217  0.00  0.00    +0.385 N 
ATOM     11  H   LIG    1       -0.168   1.195   2.108  0.00  0.00    -0.089 HD
ATOM     12  H   LIG    1       -0.715   2.659   1.223  0.00  0.00    -0.089 HD
ATOM     13  H   LIG    1       -1.732   1.179   1.224  0.00  0.00    -0.089 HD
ENDBRANCH   9  10
ENDBRANCH   1   9
TORSDOF 2
