REMARK  Name = ZINC33902580
REMARK                            x       y       z     vdW  Elec       q    Type
REMARK                         _______ _______ _______ _____ _____    ______ ____
ROOT
ATOM      1  C   LIG    1       -1.406  -0.519   0.017  0.00  0.00    +0.046 C 
ATOM      2  C   LIG    1       -1.980  -0.826  -1.157  0.00  0.00    +0.046 C 
ENDROOT
BRANCH   1   4
ATOM      3  C   LIG    1        0.017   1.511   0.069  0.00  0.00    +0.009 C 
ATOM      4  C   LIG    1        0.015  -0.019   0.054  0.00  0.00    +0.039 C 
ENDBRANCH   1   4
BRANCH   1   5
ATOM      5  C   LIG    1       -2.168  -0.672   1.274  0.00  0.00    +0.333 C 
ATOM      6  O   LIG    1       -3.285  -1.167   1.255  0.00  0.00    -0.245 OA
BRANCH   5   7
ATOM      7  O   LIG    1       -1.680  -0.304   2.333  0.00  0.00    -0.477 OA
ATOM      8  H   LIG    1       -0.824   0.075   2.347  0.00  0.00    +0.295 HD
ENDBRANCH   5   7
ENDBRANCH   1   5
BRANCH   2   9
ATOM      9  C   LIG    1       -3.324  -1.438  -1.185  0.00  0.00    +0.333 C 
ATOM     10  O   LIG    1       -4.314  -0.734  -1.323  0.00  0.00    -0.245 OA
BRANCH   9  11
ATOM     11  O   LIG    1       -3.447  -2.649  -1.069  0.00  0.00    -0.477 OA
ATOM     12  H   LIG    1       -2.689  -3.189  -0.964  0.00  0.00    +0.295 HD
ENDBRANCH   9  11
ENDBRANCH   2   9
BRANCH   2  13
ATOM     13  C   LIG    1       -1.253  -0.546  -2.447  0.00  0.00    +0.039 C 
ATOM     14  C   LIG    1       -0.509  -1.805  -2.897  0.00  0.00    +0.009 C 
ENDBRANCH   2  13
TORSDOF 6
