REMARK  Name = ZINC13925582
REMARK                            x       y       z     vdW  Elec       q    Type
REMARK                         _______ _______ _______ _____ _____    ______ ____
ROOT
ATOM      1  C   LIG    1        2.481   1.131  -0.016  0.00  0.00    +0.044 C 
ATOM      2  C   LIG    1        3.643   1.863  -0.127  0.00  0.00    +0.152 C 
ATOM      3  C   LIG    1        5.018   1.343  -0.262  0.00  0.00    +0.364 C 
ATOM      4  O   LIG    1        5.804   2.438  -0.337  0.00  0.00    -0.402 OA
ATOM      5  C   LIG    1        5.026   3.535  -0.259  0.00  0.00    +0.232 C 
ATOM      6  O   LIG    1        5.367   0.178  -0.299  0.00  0.00    -0.243 OA
ATOM      7  N   LIG    1        3.765   3.221  -0.142  0.00  0.00    -0.205 NA
ENDROOT
BRANCH   1  10
ATOM      8  C   LIG    1       -0.137   3.808   0.041  0.00  0.00    +0.020 A 
ATOM      9  C   LIG    1        1.112   3.216   0.022  0.00  0.00    +0.011 A 
ATOM     10  C   LIG    1        1.183   1.813  -0.002  0.00  0.00    -0.005 A 
ATOM     11  C   LIG    1       -0.009   1.078  -0.013  0.00  0.00    +0.118 A 
ATOM     12  N   LIG    1       -1.173   1.692   0.001  0.00  0.00    -0.263 NA
ATOM     13  C   LIG    1       -1.267   3.009   0.024  0.00  0.00    +0.111 A 
ENDBRANCH   1  10
BRANCH   5  14
ATOM     14  C   LIG    1        5.536   4.920  -0.305  0.00  0.00    +0.037 A 
ATOM     15  C   LIG    1        4.651   5.997  -0.223  0.00  0.00    +0.015 A 
ATOM     16  C   LIG    1        5.135   7.288  -0.261  0.00  0.00    +0.033 A 
ATOM     17  C   LIG    1        6.493   7.517  -0.393  0.00  0.00    +0.122 A 
ATOM     18  C   LIG    1        7.375   6.455  -0.481  0.00  0.00    +0.033 A 
ATOM     19  C   LIG    1        6.906   5.159  -0.438  0.00  0.00    +0.015 A 
BRANCH  17  20
ATOM     20  N   LIG    1        7.004   8.906  -0.439  0.00  0.00    +0.006 N 
ATOM     21  O   LIG    1        8.199   9.111  -0.555  0.00  0.00    -0.130 OA
BRANCH  20  22
ATOM     22  O   LIG    1        6.230   9.843  -0.362  0.00  0.00    -0.396 OA
ATOM     23  H   LIG    1        5.311   9.685  -0.273  0.00  0.00    +0.329 HD
ENDBRANCH  20  22
ENDBRANCH  17  20
ENDBRANCH   5  14
TORSDOF 4
