REMARK  Name = ZINC34007762
REMARK                            x       y       z     vdW  Elec       q    Type
REMARK                         _______ _______ _______ _____ _____    ______ ____
ROOT
ATOM      1  C   LIG    1        0.571   0.030  -3.651  0.00  0.00    +0.220 A 
ATOM      2  N   LIG    1        1.871  -0.180  -3.759  0.00  0.00    -0.200 NA
ATOM      3  C   LIG    1        2.491  -0.044  -4.928  0.00  0.00    +0.132 A 
ATOM      4  C   LIG    1        3.975  -0.293  -5.010  0.00  0.00    +0.088 C 
ATOM      5  N   LIG    1        1.836   0.304  -6.012  0.00  0.00    -0.213 NA
ATOM      6  C   LIG    1        0.516   0.530  -5.957  0.00  0.00    +0.169 A 
ATOM      7  C   LIG    1       -0.438   0.903  -6.903  0.00  0.00    +0.051 A 
ATOM      8  C   LIG    1       -1.673   0.967  -6.244  0.00  0.00    +0.070 A 
ATOM      9  C   LIG    1       -2.990   1.331  -6.881  0.00  0.00    +0.068 C 
ATOM     10  N   LIG    1       -1.494   0.671  -4.980  0.00  0.00    -0.167 NA
ATOM     11  N   LIG    1       -0.144   0.388  -4.761  0.00  0.00    -0.183 N 
ENDROOT
BRANCH   7  12
ATOM     12  C   LIG    1       -0.194   1.165  -8.341  0.00  0.00    +0.009 A 
ATOM     13  C   LIG    1       -0.292   0.130  -9.279  0.00  0.00    +0.015 A 
ATOM     14  C   LIG    1       -0.056   0.424 -10.608  0.00  0.00    +0.068 A 
ATOM     15  C   LIG    1        0.268   1.726 -10.969  0.00  0.00    +0.215 A 
ATOM     16  N   LIG    1        0.353   2.682 -10.059  0.00  0.00    -0.218 NA
ATOM     17  C   LIG    1        0.130   2.446  -8.781  0.00  0.00    +0.050 A 
ATOM     18  C   LIG    1        0.234   3.573  -7.785  0.00  0.00    +0.066 C 
BRANCH  15  19
ATOM     19  O   LIG    1        0.501   2.022 -12.273  0.00  0.00    -0.480 OA
ATOM     20  C   LIG    1        0.829   3.377 -12.583  0.00  0.00    +0.279 C 
ENDBRANCH  15  19
ENDBRANCH   7  12
BRANCH   1  21
ATOM     21  N   LIG    1       -0.055  -0.114  -2.441  0.00  0.00    -0.311 N 
ATOM     22  H   LIG    1       -1.010   0.038  -2.368  0.00  0.00    +0.149 HD
BRANCH  21  23
ATOM     23  C   LIG    1        0.718  -0.497  -1.257  0.00  0.00    +0.070 C 
ATOM     24  C   LIG    1        0.849  -2.021  -1.205  0.00  0.00    +0.028 C 
BRANCH  23  26
ATOM     25  C   LIG    1       -0.019   1.526   0.010  0.00  0.00    +0.005 C 
ATOM     26  C   LIG    1        0.002  -0.004   0.002  0.00  0.00    +0.018 C 
ENDBRANCH  23  26
ENDBRANCH  21  23
ENDBRANCH   1  21
TORSDOF 5
