REMARK  Name = ZINC22454243
REMARK                            x       y       z     vdW  Elec       q    Type
REMARK                         _______ _______ _______ _____ _____    ______ ____
ROOT
ATOM      1  C   LIG    1        1.448  -2.049   6.518  0.00  0.00    -0.006 C 
ENDROOT
BRANCH   1   2
ATOM      2  N   LIG    1        0.835  -1.437   7.705  0.00  0.00    +0.390 N 
ATOM      3  H   LIG    1       -0.001  -1.945   7.951  0.00  0.00    -0.080 HD
ATOM      4  C   LIG    1        1.784  -1.485   8.825  0.00  0.00    -0.058 C 
ATOM      5  C   LIG    1        1.139  -0.865  10.067  0.00  0.00    +0.037 C 
ATOM      6  C   LIG    1        2.135  -0.897  11.228  0.00  0.00    +0.022 C 
ATOM      7  N   LIG    1        0.766   0.527   9.778  0.00  0.00    -0.299 NA
ATOM      8  C   LIG    1       -0.164   0.593   8.642  0.00  0.00    +0.069 C 
ATOM      9  C   LIG    1        0.491  -0.039   7.412  0.00  0.00    -0.056 C 
ATOM     10  C   LIG    1       -0.483   0.010   6.233  0.00  0.00    -0.012 C 
BRANCH   7  11
ATOM     11  C   LIG    1        0.195   1.176  10.965  0.00  0.00    +0.111 C 
BRANCH  11  12
ATOM     12  C   LIG    1        0.053   2.654  10.711  0.00  0.00    -0.019 C 
ATOM     13  C   LIG    1       -1.111   3.236  10.861  0.00  0.00    +0.005 C 
ENDBRANCH  11  12
ENDBRANCH   7  11
ENDBRANCH   1   2
BRANCH   1  17
ATOM     14  C   LIG    1       -1.494  -2.449   3.441  0.00  0.00    +0.037 A 
ATOM     15  C   LIG    1       -0.235  -1.927   3.143  0.00  0.00    +0.013 A 
ATOM     16  C   LIG    1        0.710  -1.800   4.140  0.00  0.00    +0.003 A 
ATOM     17  C   LIG    1        0.411  -2.190   5.434  0.00  0.00    -0.057 A 
ATOM     18  C   LIG    1       -0.836  -2.708   5.736  0.00  0.00    +0.003 A 
ATOM     19  C   LIG    1       -1.791  -2.835   4.749  0.00  0.00    +0.013 A 
BRANCH  14  21
ATOM     20  N   LIG    1       -2.164  -3.080   1.172  0.00  0.00    -0.298 N 
ATOM     21  C   LIG    1       -2.511  -2.587   2.377  0.00  0.00    +0.247 C 
ATOM     22  O   LIG    1       -3.662  -2.256   2.589  0.00  0.00    -0.270 OA
BRANCH  20  24
ATOM     23  C   LIG    1       -3.796  -4.539   0.081  0.00  0.00    +0.024 C 
ATOM     24  C   LIG    1       -3.154  -3.150   0.095  0.00  0.00    +0.104 C 
ENDBRANCH  20  24
BRANCH  20  25
ATOM     25  C   LIG    1       -0.795  -3.547   0.939  0.00  0.00    +0.104 C 
ATOM     26  C   LIG    1       -0.024  -2.491   0.144  0.00  0.00    +0.024 C 
ENDBRANCH  20  25
ENDBRANCH  14  21
ENDBRANCH   1  17
BRANCH   1  27
ATOM     27  C   LIG    1        1.988  -3.409   6.876  0.00  0.00    -0.053 A 
ATOM     28  C   LIG    1        1.267  -4.240   7.714  0.00  0.00    +0.002 A 
ATOM     29  C   LIG    1        1.760  -5.489   8.045  0.00  0.00    +0.004 A 
ATOM     30  C   LIG    1        2.975  -5.910   7.539  0.00  0.00    +0.045 A 
ATOM     31  C   LIG    1        3.700  -5.078   6.699  0.00  0.00    +0.117 A 
ATOM     32  C   LIG    1        3.200  -3.828   6.363  0.00  0.00    +0.047 A 
BRANCH  31  33
ATOM     33  O   LIG    1        4.895  -5.489   6.200  0.00  0.00    -0.507 OA
ATOM     34  H   LIG    1        4.830  -5.956   5.356  0.00  0.00    +0.292 HD
ENDBRANCH  31  33
ENDBRANCH   1  27
TORSDOF 9
