REMARK  Name = ZINC13834533
REMARK                            x       y       z     vdW  Elec       q    Type
REMARK                         _______ _______ _______ _____ _____    ______ ____
ROOT
ATOM      1  C   LIG    1       -0.017   1.377   0.010  0.00  0.00    +0.003 A 
ATOM      2  C   LIG    1        1.163   2.098   0.002  0.00  0.00    +0.015 A 
ATOM      3  C   LIG    1        2.390   1.440  -0.013  0.00  0.00    +0.064 A 
ATOM      4  C   LIG    1        2.420   0.029  -0.021  0.00  0.00    +0.101 A 
ATOM      5  C   LIG    1        1.211  -0.685  -0.013  0.00  0.00    +0.067 A 
ATOM      6  N   LIG    1        1.559  -2.022  -0.024  0.00  0.00    -0.335 N 
ATOM      7  C   LIG    1        2.917  -2.082  -0.038  0.00  0.00    +0.213 A 
ATOM      8  H   LIG    1        0.950  -2.776  -0.022  0.00  0.00    +0.167 HD
ATOM      9  N   LIG    1        3.416  -0.878  -0.036  0.00  0.00    -0.223 NA
ATOM     10  C   LIG    1        0.002  -0.004   0.002  0.00  0.00    +0.028 A 
ENDROOT
BRANCH   3  11
ATOM     11  C   LIG    1        3.647   2.210  -0.022  0.00  0.00    +0.244 C 
ATOM     12  N   LIG    1        3.611   3.557  -0.015  0.00  0.00    -0.325 N 
ATOM     13  H   LIG    1        4.439   4.064  -0.021  0.00  0.00    +0.145 HD
ATOM     14  H   LIG    1        2.759   4.020  -0.004  0.00  0.00    +0.145 HD
ATOM     15  O   LIG    1        4.715   1.630  -0.036  0.00  0.00    -0.270 OA
ENDBRANCH   3  11
BRANCH   7  16
ATOM     16  C   LIG    1        3.725  -3.353  -0.052  0.00  0.00    +0.450 C 
ATOM     17  F   LIG    1        3.675  -3.924  -1.329  0.00  0.00    -0.163 F 
ATOM     18  F   LIG    1        3.198  -4.252   0.881  0.00  0.00    -0.163 F 
ATOM     19  F   LIG    1        5.054  -3.065   0.278  0.00  0.00    -0.163 F 
ENDBRANCH   7  16
TORSDOF 2
