REMARK  Name = ZINC27075479
REMARK                            x       y       z     vdW  Elec       q    Type
REMARK                         _______ _______ _______ _____ _____    ______ ____
ROOT
ATOM      1  C   LIG    1        2.424  -1.698  -3.484  0.00  0.00    -0.018 A 
ATOM      2  C   LIG    1        1.417  -2.248  -4.283  0.00  0.00    -0.002 A 
ATOM      3  C   LIG    1        1.763  -3.275  -5.167  0.00  0.00    +0.010 A 
ATOM      4  C   LIG    1        3.073  -3.704  -5.216  0.00  0.00    +0.050 A 
ATOM      5  N   LIG    1        3.993  -3.157  -4.444  0.00  0.00    -0.255 NA
ATOM      6  C   LIG    1        3.710  -2.182  -3.601  0.00  0.00    +0.048 A 
ENDROOT
BRANCH   2   7
ATOM      7  C   LIG    1        0.022  -1.756  -4.196  0.00  0.00    +0.024 A 
ATOM      8  C   LIG    1       -0.386  -0.669  -4.967  0.00  0.00    +0.015 A 
ATOM      9  C   LIG    1       -1.686  -0.215  -4.884  0.00  0.00    +0.039 A 
ATOM     10  C   LIG    1       -2.589  -0.835  -4.034  0.00  0.00    +0.127 A 
ATOM     11  F   LIG    1       -3.860  -0.384  -3.957  0.00  0.00    -0.205 F 
ATOM     12  C   LIG    1       -2.193  -1.915  -3.264  0.00  0.00    +0.084 A 
ATOM     13  C   LIG    1       -0.892  -2.385  -3.344  0.00  0.00    +0.127 A 
BRANCH  13  14
ATOM     14  O   LIG    1       -0.504  -3.448  -2.593  0.00  0.00    -0.506 OA
ATOM     15  H   LIG    1       -0.159  -3.209  -1.722  0.00  0.00    +0.292 HD
ENDBRANCH  13  14
ENDBRANCH   2   7
BRANCH   4  16
ATOM     16  C   LIG    1        3.459  -4.810  -6.163  0.00  0.00    +0.032 C 
ATOM     17  C   LIG    1        4.238  -5.885  -5.402  0.00  0.00    +0.014 C 
ATOM     18  C   LIG    1        4.335  -4.241  -7.282  0.00  0.00    +0.014 C 
ENDBRANCH   4  16
BRANCH   6  19
ATOM     19  C   LIG    1        4.806  -1.594  -2.749  0.00  0.00    +0.032 C 
ATOM     20  C   LIG    1        5.850  -0.930  -3.649  0.00  0.00    +0.014 C 
ATOM     21  C   LIG    1        5.469  -2.705  -1.933  0.00  0.00    +0.014 C 
ENDBRANCH   6  19
BRANCH   3  22
ATOM     22  C   LIG    1        0.719  -3.906  -6.053  0.00  0.00    +0.144 C 
ATOM     23  C   LIG    1       -0.108  -4.902  -5.237  0.00  0.00    +0.043 C 
BRANCH  22  24
ATOM     24  O   LIG    1       -0.139  -2.889  -6.575  0.00  0.00    -0.387 OA
ATOM     25  H   LIG    1       -0.779  -2.548  -5.936  0.00  0.00    +0.210 HD
ENDBRANCH  22  24
ENDBRANCH   3  22
BRANCH   1  26
ATOM     26  C   LIG    1        2.110  -0.589  -2.513  0.00  0.00    +0.037 C 
BRANCH  26  27
ATOM     27  C   LIG    1        2.415   0.761  -3.165  0.00  0.00    +0.004 C 
BRANCH  27  29
ATOM     28  C   LIG    1        2.402   3.237  -2.832  0.00  0.00    +0.004 C 
ATOM     29  C   LIG    1        2.096   1.887  -2.180  0.00  0.00    -0.003 C 
ENDBRANCH  27  29
ENDBRANCH  26  27
ENDBRANCH   1  26
TORSDOF 9
