REMARK  Name = ZINC18274777
REMARK                            x       y       z     vdW  Elec       q    Type
REMARK                         _______ _______ _______ _____ _____    ______ ____
ROOT
ATOM      1  C   LIG    1       -1.081  -2.091   0.092  0.00  0.00    +0.034 A 
ATOM      2  C   LIG    1        0.155  -2.716   0.178  0.00  0.00    +0.027 A 
ATOM      3  C   LIG    1        0.228  -4.093   0.259  0.00  0.00    +0.047 A 
ATOM      4  C   LIG    1       -0.934  -4.850   0.255  0.00  0.00    +0.117 A 
ATOM      5  C   LIG    1       -2.169  -4.226   0.168  0.00  0.00    +0.047 A 
ATOM      6  C   LIG    1       -2.244  -2.849   0.093  0.00  0.00    +0.027 A 
ENDROOT
BRANCH   1   9
ATOM      7  C   LIG    1       -2.194   1.470   0.609  0.00  0.00    +0.109 C 
ATOM      8  C   LIG    1       -2.169  -0.037   0.608  0.00  0.00    +0.214 C 
ATOM      9  N   LIG    1       -1.156  -0.694   0.009  0.00  0.00    -0.286 N 
ATOM     10  H   LIG    1       -0.478  -0.200  -0.478  0.00  0.00    +0.155 HD
ATOM     11  O   LIG    1       -3.061  -0.658   1.146  0.00  0.00    -0.276 OA
ENDBRANCH   1   9
BRANCH   4  12
ATOM     12  O   LIG    1       -0.861  -6.206   0.334  0.00  0.00    -0.507 OA
ATOM     13  H   LIG    1       -0.876  -6.548   1.239  0.00  0.00    +0.292 HD
ENDBRANCH   4  12
TORSDOF 2
