REMARK  Name = ZINC15016661
REMARK                            x       y       z     vdW  Elec       q    Type
REMARK                         _______ _______ _______ _____ _____    ______ ____
ROOT
ATOM      1  C   LIG    1       -1.074   2.333   0.020  0.00  0.00    +0.028 C 
ATOM      2  C   LIG    1       -0.113   1.534  -0.516  0.00  0.00    +0.078 C 
ATOM      3  C   LIG    1       -0.170   0.103  -0.889  0.00  0.00    +0.275 C 
ATOM      4  N   LIG    1        0.929  -0.412  -1.398  0.00  0.00    -0.168 NA
ATOM      5  C   LIG    1        2.031   0.300  -1.572  0.00  0.00    +0.102 C 
ATOM      6  O   LIG    1       -1.180  -0.564  -0.734  0.00  0.00    -0.267 OA
ATOM      7  S   LIG    1        1.572   1.919  -0.975  0.00  0.00    -0.066 S 
ENDROOT
BRANCH   1  11
ATOM      8  C   LIG    1       -0.414   6.507   0.359  0.00  0.00    +0.120 A 
ATOM      9  C   LIG    1        0.487   5.718  -0.348  0.00  0.00    +0.046 A 
ATOM     10  C   LIG    1        0.278   4.363  -0.461  0.00  0.00    +0.011 A 
ATOM     11  C   LIG    1       -0.846   3.777   0.138  0.00  0.00    -0.024 A 
ATOM     12  C   LIG    1       -1.753   4.578   0.844  0.00  0.00    +0.011 A 
ATOM     13  C   LIG    1       -1.531   5.931   0.955  0.00  0.00    +0.046 A 
BRANCH   8  15
ATOM     14  C   LIG    1       -1.168   8.595   1.206  0.00  0.00    +0.277 C 
ATOM     15  O   LIG    1       -0.203   7.843   0.467  0.00  0.00    -0.495 OA
ENDBRANCH   8  15
ENDBRANCH   1  11
BRANCH   5  16
ATOM     16  C   LIG    1        3.327  -0.139  -2.127  0.00  0.00    +0.005 A 
ATOM     17  C   LIG    1        4.385   0.766  -2.240  0.00  0.00    +0.010 A 
ATOM     18  C   LIG    1        5.594   0.348  -2.754  0.00  0.00    +0.001 A 
ATOM     19  C   LIG    1        5.758  -0.963  -3.168  0.00  0.00    +0.000 A 
ATOM     20  C   LIG    1        4.713  -1.863  -3.065  0.00  0.00    +0.001 A 
ATOM     21  C   LIG    1        3.499  -1.460  -2.547  0.00  0.00    +0.010 A 
ENDBRANCH   5  16
TORSDOF 3
