REMARK  Name = ZINC00002191
REMARK                            x       y       z     vdW  Elec       q    Type
REMARK                         _______ _______ _______ _____ _____    ______ ____
ROOT
ATOM      1  C   LIG    1        0.186  -4.989   1.238  0.00  0.00    +0.090 A 
ATOM      2  C   LIG    1        0.192  -4.444   2.507  0.00  0.00    +0.031 A 
ATOM      3  C   LIG    1        0.333  -5.503   3.408  0.00  0.00    +0.024 A 
ATOM      4  C   LIG    1        0.408  -6.651   2.691  0.00  0.00    +0.030 A 
ATOM      5  N   LIG    1        0.314  -6.354   1.373  0.00  0.00    -0.344 N 
ATOM      6  C   LIG    1        0.347  -7.322   0.274  0.00  0.00    +0.149 C 
ENDROOT
BRANCH   1   7
ATOM      7  C   LIG    1        0.059  -4.252  -0.021  0.00  0.00    +0.209 C 
ATOM      8  O   LIG    1       -0.057  -4.856  -1.072  0.00  0.00    -0.285 OA
BRANCH   7  13
ATOM      9  C   LIG    1        0.110   1.503  -0.002  0.00  0.00    +0.044 C 
ATOM     10  C   LIG    1        0.097  -0.004  -0.007  0.00  0.00    -0.050 A 
ATOM     11  C   LIG    1       -0.581  -0.683  -1.004  0.00  0.00    +0.004 A 
ATOM     12  C   LIG    1       -0.597  -2.062  -1.015  0.00  0.00    +0.012 A 
ATOM     13  C   LIG    1        0.072  -2.773  -0.017  0.00  0.00    +0.024 A 
ATOM     14  C   LIG    1        0.754  -2.081   0.987  0.00  0.00    +0.012 A 
ATOM     15  C   LIG    1        0.767  -0.702   0.982  0.00  0.00    +0.004 A 
ENDBRANCH   7  13
ENDBRANCH   1   7
BRANCH   4  16
ATOM     16  C   LIG    1        0.565  -8.035   3.268  0.00  0.00    +0.173 C 
BRANCH  16  17
ATOM     17  C   LIG    1       -0.790  -8.581   3.639  0.00  0.00    +0.311 C 
ATOM     18  O   LIG    1       -1.790  -7.909   3.451  0.00  0.00    -0.251 OA
BRANCH  17  19
ATOM     19  O   LIG    1       -0.886  -9.695   4.125  0.00  0.00    -0.480 OA
ATOM     20  H   LIG    1       -0.117 -10.211   4.269  0.00  0.00    +0.295 HD
ENDBRANCH  17  19
ENDBRANCH  16  17
ENDBRANCH   4  16
TORSDOF 5
