REMARK  Name = ZINC34633676
REMARK                            x       y       z     vdW  Elec       q    Type
REMARK                         _______ _______ _______ _____ _____    ______ ____
ROOT
ATOM      1  C   LIG    1       -0.018   1.698   0.438  0.00  0.00    +0.014 C 
ATOM      2  C   LIG    1       -0.022   0.199   0.124  0.00  0.00    +0.001 C 
ATOM      3  C   LIG    1       -1.447  -0.281  -0.053  0.00  0.00    +0.022 C 
ATOM      4  C   LIG    1       -1.916  -0.893   1.277  0.00  0.00    +0.046 C 
ATOM      5  C   LIG    1       -1.303  -0.076   2.393  0.00  0.00    -0.055 C 
ATOM      6  C   LIG    1       -1.873   0.900   3.072  0.00  0.00    -0.044 C 
ATOM      7  C   LIG    1       -3.219   1.485   2.705  0.00  0.00    +0.043 C 
ATOM      8  C   LIG    1       -3.195   3.009   2.889  0.00  0.00    +0.083 C 
ATOM      9  C   LIG    1       -2.703   3.343   4.271  0.00  0.00    +0.157 C 
ATOM     10  C   LIG    1       -1.621   2.630   4.811  0.00  0.00    +0.050 C 
ATOM     11  O   LIG    1       -3.236   4.223   4.910  0.00  0.00    -0.293 OA
ATOM     12  C   LIG    1       -1.171   1.508   4.213  0.00  0.00    -0.041 C 
ATOM     13  C   LIG    1        0.103   0.855   4.698  0.00  0.00    +0.036 C 
ATOM     14  C   LIG    1        0.931   0.529   3.447  0.00  0.00    +0.013 C 
ATOM     15  C   LIG    1        0.166  -0.438   2.578  0.00  0.00    +0.020 C 
ATOM     16  C   LIG    1        0.877  -0.010  -1.111  0.00  0.00    +0.072 C 
ATOM     17  C   LIG    1        2.316   0.006  -0.542  0.00  0.00    +0.035 C 
ATOM     18  C   LIG    1        2.185  -0.120   1.000  0.00  0.00    +0.007 C 
ATOM     19  C   LIG    1        0.741  -0.610   1.192  0.00  0.00    +0.005 C 
ENDROOT
BRANCH   4  20
ATOM     20  C   LIG    1       -3.407  -1.101   1.348  0.00  0.00    -0.040 A 
ATOM     21  C   LIG    1       -4.248  -0.340   0.556  0.00  0.00    +0.006 A 
ATOM     22  C   LIG    1       -5.614  -0.527   0.619  0.00  0.00    +0.023 A 
ATOM     23  C   LIG    1       -6.144  -1.481   1.478  0.00  0.00    +0.029 A 
ATOM     24  C   LIG    1       -5.297  -2.244   2.272  0.00  0.00    +0.023 A 
ATOM     25  C   LIG    1       -3.931  -2.055   2.200  0.00  0.00    +0.006 A 
BRANCH  23  26
ATOM     26  N   LIG    1       -7.526  -1.673   1.544  0.00  0.00    -0.336 N 
ATOM     27  C   LIG    1       -8.092  -2.588   2.538  0.00  0.00    +0.129 C 
ATOM     28  C   LIG    1       -8.410  -0.959   0.619  0.00  0.00    +0.129 C 
ENDBRANCH  23  26
ENDBRANCH   4  20
BRANCH  16  29
ATOM     29  O   LIG    1        0.597  -1.267  -1.722  0.00  0.00    -0.388 OA
ATOM     30  H   LIG    1        1.135  -1.451  -2.505  0.00  0.00    +0.210 HD
ENDBRANCH  16  29
BRANCH  16  31
ATOM     31  C   LIG    1        0.678   1.135  -2.102  0.00  0.00    +0.037 C 
BRANCH  31  32
ATOM     32  C   LIG    1        1.575   0.914  -3.321  0.00  0.00    +0.031 C 
BRANCH  32  33
ATOM     33  C   LIG    1        1.377   2.061  -4.314  0.00  0.00    +0.156 C 
BRANCH  33  34
ATOM     34  O   LIG    1        2.215   1.856  -5.453  0.00  0.00    -0.395 OA
ATOM     35  H   LIG    1        2.141   2.546  -6.126  0.00  0.00    +0.209 HD
ENDBRANCH  33  34
ENDBRANCH  32  33
ENDBRANCH  31  32
ENDBRANCH  16  31
TORSDOF 7
