REMARK  Name = ZINC19281179
REMARK                            x       y       z     vdW  Elec       q    Type
REMARK                         _______ _______ _______ _____ _____    ______ ____
ROOT
ATOM      1  C   LIG    1        1.094   5.930   0.121  0.00  0.00    +0.248 C 
ATOM      2  N   LIG    1       -0.063   5.246   0.028  0.00  0.00    -0.281 N 
ATOM      3  H   LIG    1       -1.018   5.787  -0.037  0.00  0.00    +0.155 HD
ATOM      4  O   LIG    1        2.155   5.336   0.109  0.00  0.00    -0.270 OA
ENDROOT
BRANCH   1   7
ATOM      5  C   LIG    1       -0.154   9.464   0.365  0.00  0.00    +0.001 A 
ATOM      6  C   LIG    1       -0.142   8.089   0.255  0.00  0.00    +0.013 A 
ATOM      7  C   LIG    1        1.074   7.404   0.239  0.00  0.00    +0.038 A 
ATOM      8  C   LIG    1        2.271   8.116   0.342  0.00  0.00    +0.025 A 
ATOM      9  C   LIG    1        2.244   9.491   0.447  0.00  0.00    +0.056 A 
ATOM     10  C   LIG    1        1.036  10.164   0.461  0.00  0.00    +0.012 A 
BRANCH   9  11
ATOM     11  C   LIG    1        3.535  10.261   0.553  0.00  0.00    +0.417 C 
ATOM     12  F   LIG    1        4.312  10.028  -0.587  0.00  0.00    -0.166 F 
ATOM     13  F   LIG    1        4.236   9.843   1.689  0.00  0.00    -0.166 F 
ATOM     14  F   LIG    1        3.255  11.628   0.654  0.00  0.00    -0.166 F 
ENDBRANCH   9  11
ENDBRANCH   1   7
BRANCH   2  15
ATOM     15  C   LIG    1       -0.049   3.847   0.014  0.00  0.00    +0.035 A 
ATOM     16  C   LIG    1       -1.074   3.135   0.624  0.00  0.00    +0.023 A 
ATOM     17  C   LIG    1       -1.061   1.754   0.611  0.00  0.00    +0.004 A 
ATOM     18  C   LIG    1       -0.028   1.076  -0.008  0.00  0.00    +0.023 A 
ATOM     19  C   LIG    1        1.003   1.782  -0.615  0.00  0.00    +0.026 A 
ATOM     20  C   LIG    1        0.990   3.170  -0.608  0.00  0.00    +0.046 A 
BRANCH  19  21
ATOM     21  N   LIG    1        2.050   1.095  -1.235  0.00  0.00    -0.358 N 
ATOM     22  H   LIG    1        2.058  -0.004  -1.243  0.00  0.00    +0.142 HD
ATOM     23  H   LIG    1        2.866   1.655  -1.715  0.00  0.00    +0.142 HD
ENDBRANCH  19  21
ENDBRANCH   2  15
TORSDOF 4
