REMARK  Name = ZINC13805755
REMARK                            x       y       z     vdW  Elec       q    Type
REMARK                         _______ _______ _______ _____ _____    ______ ____
ROOT
ATOM      1  N   LIG    1       -0.765   3.072  -1.211  0.00  0.00    +0.380 N 
ATOM      2  H   LIG    1        0.202   3.411  -1.149  0.00  0.00    -0.082 HD
ATOM      3  C   LIG    1       -1.520   3.559  -0.037  0.00  0.00    -0.078 C 
ATOM      4  C   LIG    1       -0.801   3.110   1.237  0.00  0.00    -0.011 C 
ATOM      5  C   LIG    1       -0.731   1.580   1.267  0.00  0.00    +0.016 C 
ATOM      6  C   LIG    1       -0.013   1.086   0.008  0.00  0.00    -0.011 C 
ATOM      7  C   LIG    1       -0.754   1.594  -1.231  0.00  0.00    -0.078 C 
ENDROOT
BRANCH   5   8
ATOM      8  C   LIG    1        0.029   1.134   2.489  0.00  0.00    -0.044 A 
ATOM      9  C   LIG    1        1.341   1.532   2.669  0.00  0.00    +0.007 A 
ATOM     10  C   LIG    1        2.038   1.129   3.791  0.00  0.00    +0.045 A 
ATOM     11  C   LIG    1        1.425   0.314   4.732  0.00  0.00    +0.117 A 
ATOM     12  C   LIG    1        0.111  -0.089   4.546  0.00  0.00    +0.045 A 
ATOM     13  C   LIG    1       -0.584   0.322   3.425  0.00  0.00    +0.007 A 
BRANCH  11  14
ATOM     14  O   LIG    1        2.111  -0.090   5.834  0.00  0.00    -0.507 OA
ATOM     15  H   LIG    1        2.590  -0.921   5.716  0.00  0.00    +0.292 HD
ENDBRANCH  11  14
ENDBRANCH   5   8
BRANCH   1  16
ATOM     16  C   LIG    1       -1.375   3.588  -2.454  0.00  0.00    -0.079 C 
BRANCH  16  17
ATOM     17  C   LIG    1       -1.629   5.089  -2.301  0.00  0.00    -0.014 C 
BRANCH  17  18
ATOM     18  C   LIG    1       -2.236   5.638  -3.594  0.00  0.00    +0.033 C 
BRANCH  18  22
ATOM     19  C   LIG    1       -2.944   9.829  -3.168  0.00  0.00    +0.000 A 
ATOM     20  C   LIG    1       -1.731   9.379  -3.655  0.00  0.00    +0.000 A 
ATOM     21  C   LIG    1       -1.502   8.023  -3.793  0.00  0.00    +0.003 A 
ATOM     22  C   LIG    1       -2.485   7.117  -3.443  0.00  0.00    -0.047 A 
ATOM     23  C   LIG    1       -3.700   7.567  -2.962  0.00  0.00    +0.003 A 
ATOM     24  C   LIG    1       -3.928   8.923  -2.819  0.00  0.00    +0.000 A 
ENDBRANCH  18  22
ENDBRANCH  17  18
ENDBRANCH  16  17
ENDBRANCH   1  16
TORSDOF 6
