REMARK  Name = ZINC28236634
REMARK                            x       y       z     vdW  Elec       q    Type
REMARK                         _______ _______ _______ _____ _____    ______ ____
ROOT
ATOM      1  C   LIG    1        1.157   4.095   1.455  0.00  0.00    -0.010 C 
ATOM      2  C   LIG    1       -0.140   3.672   2.150  0.00  0.00    -0.015 C 
ATOM      3  C   LIG    1       -0.155   4.231   3.575  0.00  0.00    -0.078 C 
ATOM      4  N   LIG    1       -0.057   5.695   3.530  0.00  0.00    +0.383 N 
ATOM      5  H   LIG    1       -0.881   6.068   2.905  0.00  0.00    -0.081 HD
ATOM      6  C   LIG    1        1.204   6.123   2.910  0.00  0.00    -0.078 C 
ATOM      7  C   LIG    1        1.259   5.623   1.465  0.00  0.00    -0.015 C 
ENDROOT
BRANCH   4   8
ATOM      8  C   LIG    1       -0.207   6.274   4.872  0.00  0.00    -0.040 C 
ATOM      9  C   LIG    1       -0.453   7.779   4.753  0.00  0.00    -0.013 C 
ATOM     10  C   LIG    1       -0.609   8.382   6.151  0.00  0.00    -0.001 C 
ATOM     11  C   LIG    1       -1.796   7.726   6.860  0.00  0.00    +0.002 C 
ATOM     12  C   LIG    1       -1.549   6.220   6.978  0.00  0.00    +0.030 C 
ATOM     13  C   LIG    1       -1.393   5.617   5.581  0.00  0.00    +0.101 C 
BRANCH  13  14
ATOM     14  O   LIG    1       -2.585   5.847   4.827  0.00  0.00    -0.393 OA
ATOM     15  H   LIG    1       -3.546   5.447   5.183  0.00  0.00    +0.210 HD
ENDBRANCH  13  14
ENDBRANCH   4   8
BRANCH   1  16
ATOM     16  C   LIG    1        1.151   3.592   0.010  0.00  0.00    +0.038 C 
BRANCH  16  20
ATOM     17  C   LIG    1        1.208  -0.679  -0.013  0.00  0.00    +0.000 A 
ATOM     18  C   LIG    1        0.002  -0.004   0.002  0.00  0.00    +0.000 A 
ATOM     19  C   LIG    1       -0.017   1.378   0.010  0.00  0.00    +0.003 A 
ATOM     20  C   LIG    1        1.171   2.086   0.002  0.00  0.00    -0.047 A 
ATOM     21  C   LIG    1        2.377   1.411  -0.015  0.00  0.00    +0.003 A 
ATOM     22  C   LIG    1        2.396   0.029  -0.021  0.00  0.00    +0.000 A 
ENDBRANCH  16  20
ENDBRANCH   1  16
TORSDOF 4
