REMARK  Name = ZINC00026181
REMARK                            x       y       z     vdW  Elec       q    Type
REMARK                         _______ _______ _______ _____ _____    ______ ____
ROOT
ATOM      1  C   LIG    1        0.070  -0.686   6.037  0.00  0.00    +0.261 C 
ATOM      2  N   LIG    1        0.050   0.002   4.878  0.00  0.00    -0.230 N 
ATOM      3  H   LIG    1        0.038   0.972   4.890  0.00  0.00    +0.173 HD
ATOM      4  O   LIG    1        0.086  -1.902   6.021  0.00  0.00    -0.269 OA
ENDROOT
BRANCH   1   9
ATOM      5  C   LIG    1        0.061   2.100   8.549  0.00  0.00    +0.001 A 
ATOM      6  C   LIG    1        0.081   1.394   9.742  0.00  0.00    +0.001 A 
ATOM      7  C   LIG    1        0.098   0.015   9.738  0.00  0.00    +0.015 A 
ATOM      8  C   LIG    1        0.095  -0.678   8.532  0.00  0.00    +0.017 A 
ATOM      9  C   LIG    1        0.074   0.035   7.322  0.00  0.00    +0.051 A 
ATOM     10  C   LIG    1        0.062   1.432   7.345  0.00  0.00    +0.014 A 
BRANCH   8  11
ATOM     11  S   LIG    1        0.118  -2.439   8.522  0.00  0.00    -0.142 S 
ATOM     12  H   LIG    1        0.136  -2.900   9.802  0.00  0.00    +0.107 HD
ENDBRANCH   8  11
ENDBRANCH   1   9
BRANCH   2  13
ATOM     13  N   LIG    1        0.047  -0.684   3.656  0.00  0.00    -0.230 N 
ATOM     14  H   LIG    1        0.059  -1.653   3.644  0.00  0.00    +0.173 HD
ATOM     15  C   LIG    1        0.027   0.005   2.497  0.00  0.00    +0.261 C 
ATOM     16  O   LIG    1        0.011   1.220   2.513  0.00  0.00    -0.269 OA
BRANCH  15  17
ATOM     17  C   LIG    1        0.023  -0.717   1.212  0.00  0.00    +0.051 A 
ATOM     18  C   LIG    1        0.042  -2.114   1.189  0.00  0.00    +0.014 A 
ATOM     19  C   LIG    1        0.039  -2.782  -0.015  0.00  0.00    +0.001 A 
ATOM     20  C   LIG    1        0.018  -2.076  -1.208  0.00  0.00    +0.001 A 
ATOM     21  C   LIG    1       -0.006  -0.697  -1.204  0.00  0.00    +0.015 A 
ATOM     22  C   LIG    1        0.002  -0.004   0.002  0.00  0.00    +0.017 A 
BRANCH  22  23
ATOM     23  S   LIG    1       -0.022   1.758   0.012  0.00  0.00    -0.142 S 
ATOM     24  H   LIG    1       -0.010   2.204   1.296  0.00  0.00    +0.107 HD
ENDBRANCH  22  23
ENDBRANCH  15  17
ENDBRANCH   2  13
TORSDOF 5
