REMARK  Name = ZINC19735907
REMARK                            x       y       z     vdW  Elec       q    Type
REMARK                         _______ _______ _______ _____ _____    ______ ____
ROOT
ATOM      1  C   LIG    1        1.223  -0.649   0.052  0.00  0.00    +0.022 A 
ATOM      2  C   LIG    1        0.578  -0.027  -1.009  0.00  0.00    +0.037 A 
ATOM      3  C   LIG    1        0.558   1.355  -1.051  0.00  0.00    +0.161 A 
ATOM      4  C   LIG    1        1.183   2.071  -0.035  0.00  0.00    +0.151 A 
ATOM      5  N   LIG    1        1.787   1.441   0.960  0.00  0.00    -0.238 NA
ATOM      6  C   LIG    1        1.821   0.124   1.026  0.00  0.00    +0.113 A 
ENDROOT
BRANCH   4   7
ATOM      7  N   LIG    1        1.171   3.461  -0.065  0.00  0.00    -0.317 N 
ATOM      8  C   LIG    1        0.520   4.008   1.134  0.00  0.00    +0.087 C 
ATOM      9  C   LIG    1        0.457   5.534   1.025  0.00  0.00    -0.063 C 
ATOM     10  N   LIG    1        1.817   6.068   0.879  0.00  0.00    +0.381 N 
ATOM     11  H   LIG    1        2.415   5.797   1.762  0.00  0.00    -0.086 HD
ATOM     12  H   LIG    1        1.773   7.164   0.789  0.00  0.00    -0.086 HD
ATOM     13  C   LIG    1        2.469   5.521  -0.319  0.00  0.00    -0.063 C 
ATOM     14  C   LIG    1        2.532   3.996  -0.211  0.00  0.00    +0.087 C 
ENDBRANCH   4   7
BRANCH   3  15
ATOM     15  N   LIG    1       -0.055   2.003  -2.071  0.00  0.00    +0.009 N 
ATOM     16  O   LIG    1       -0.506   1.371  -3.010  0.00  0.00    -0.130 OA
BRANCH  15  17
ATOM     17  O   LIG    1       -0.155   3.216  -2.049  0.00  0.00    -0.396 OA
ATOM     18  H   LIG    1        0.192   3.702  -1.327  0.00  0.00    +0.329 HD
ENDBRANCH  15  17
ENDBRANCH   3  15
TORSDOF 3
