REMARK  Name = ZINC13803770
REMARK                            x       y       z     vdW  Elec       q    Type
REMARK                         _______ _______ _______ _____ _____    ______ ____
ROOT
ATOM      1  C   LIG    1       -2.501  -4.208   0.003  0.00  0.00    +0.190 C 
ATOM      2  O   LIG    1       -1.472  -4.857  -0.010  0.00  0.00    -0.287 OA
ENDROOT
BRANCH   1   3
ATOM      3  C   LIG    1       -3.808  -4.896   0.012  0.00  0.00    +0.025 A 
ATOM      4  C   LIG    1       -4.992  -4.154   0.022  0.00  0.00    +0.015 A 
ATOM      5  C   LIG    1       -6.209  -4.800   0.029  0.00  0.00    +0.042 A 
ATOM      6  C   LIG    1       -6.262  -6.186   0.028  0.00  0.00    +0.158 A 
ATOM      7  F   LIG    1       -7.458  -6.814   0.037  0.00  0.00    -0.202 F 
ATOM      8  C   LIG    1       -5.089  -6.930   0.019  0.00  0.00    +0.159 A 
ATOM      9  F   LIG    1       -5.147  -8.280   0.018  0.00  0.00    -0.202 F 
ATOM     10  C   LIG    1       -3.865  -6.292   0.005  0.00  0.00    +0.053 A 
ENDBRANCH   1   3
BRANCH   1  12
ATOM     11  C   LIG    1       -1.247  -2.112   0.003  0.00  0.00    +0.205 C 
ATOM     12  C   LIG    1       -2.445  -2.742   0.011  0.00  0.00    +0.104 C 
BRANCH  11  13
ATOM     13  C   LIG    1       -1.190  -0.632   0.010  0.00  0.00    +0.374 C 
ATOM     14  O   LIG    1       -2.217   0.015   0.023  0.00  0.00    -0.242 OA
BRANCH  13  16
ATOM     15  C   LIG    1       -0.017   1.425   0.010  0.00  0.00    +0.280 C 
ATOM     16  O   LIG    1        0.002  -0.004   0.002  0.00  0.00    -0.462 OA
ENDBRANCH  13  16
ENDBRANCH  11  13
BRANCH  11  17
ATOM     17  O   LIG    1       -0.103  -2.833  -0.012  0.00  0.00    -0.501 OA
ATOM     18  H   LIG    1        0.726  -2.396  -0.018  0.00  0.00    +0.292 HD
ENDBRANCH  11  17
ENDBRANCH   1  12
TORSDOF 5
