REMARK  Name = ZINC34633602
REMARK                            x       y       z     vdW  Elec       q    Type
REMARK                         _______ _______ _______ _____ _____    ______ ____
ROOT
ATOM      1  C   LIG    1       -1.264  -0.761   0.011  0.00  0.00    +0.091 C 
ATOM      2  N   LIG    1       -2.451  -0.251   0.019  0.00  0.00    -0.089 NA
ATOM      3  O   LIG    1       -3.470  -1.231   0.019  0.00  0.00    -0.389 OA
ATOM      4  C   LIG    1       -2.873  -2.481   0.422  0.00  0.00    +0.221 C 
ATOM      5  C   LIG    1       -1.396  -2.272   0.004  0.00  0.00    +0.107 C 
ENDROOT
BRANCH   1  11
ATOM      6  C   LIG    1       -0.017   1.393   0.010  0.00  0.00    +0.013 A 
ATOM      7  C   LIG    1        1.168   2.096   0.002  0.00  0.00    +0.046 A 
ATOM      8  C   LIG    1        2.380   1.418  -0.013  0.00  0.00    +0.117 A 
ATOM      9  C   LIG    1        2.404   0.029  -0.022  0.00  0.00    +0.046 A 
ATOM     10  C   LIG    1        1.223  -0.682  -0.014  0.00  0.00    +0.013 A 
ATOM     11  C   LIG    1        0.002  -0.004   0.002  0.00  0.00    -0.000 A 
BRANCH   8  12
ATOM     12  O   LIG    1        3.546   2.115  -0.021  0.00  0.00    -0.507 OA
ATOM     13  H   LIG    1        3.892   2.312   0.860  0.00  0.00    +0.292 HD
ENDBRANCH   8  12
ENDBRANCH   1  11
BRANCH   4  14
ATOM     14  C   LIG    1       -3.494  -3.654  -0.339  0.00  0.00    +0.168 C 
BRANCH  14  15
ATOM     15  C   LIG    1       -4.937  -3.808   0.067  0.00  0.00    +0.311 C 
ATOM     16  O   LIG    1       -5.420  -3.057   0.880  0.00  0.00    -0.251 OA
BRANCH  15  17
ATOM     17  O   LIG    1       -5.687  -4.781  -0.476  0.00  0.00    -0.461 OA
BRANCH  17  18
ATOM     18  C   LIG    1       -7.047  -4.868  -0.046  0.00  0.00    +0.176 C 
ATOM     19  C   LIG    1       -7.139  -5.795   1.168  0.00  0.00    +0.044 C 
ATOM     20  C   LIG    1       -8.595  -5.889   1.629  0.00  0.00    +0.004 C 
ATOM     21  C   LIG    1       -9.454  -6.449   0.493  0.00  0.00    +0.000 C 
ATOM     22  C   LIG    1       -9.362  -5.523  -0.721  0.00  0.00    +0.004 C 
ATOM     23  C   LIG    1       -7.906  -5.429  -1.182  0.00  0.00    +0.044 C 
ENDBRANCH  17  18
ENDBRANCH  15  17
ENDBRANCH  14  15
ENDBRANCH   4  14
TORSDOF 6
