REMARK  Name = ZINC18098320
REMARK                            x       y       z     vdW  Elec       q    Type
REMARK                         _______ _______ _______ _____ _____    ______ ____
ROOT
ATOM      1  C   LIG    1        4.794   0.362  11.140  0.00  0.00    +0.003 C 
ENDROOT
BRANCH   1   2
ATOM      2  C   LIG    1        5.957  -0.545  11.547  0.00  0.00    +0.003 C 
BRANCH   2   3
ATOM      3  C   LIG    1        7.082   0.305  12.142  0.00  0.00    +0.037 C 
BRANCH   3   4
ATOM      4  C   LIG    1        8.245  -0.602  12.550  0.00  0.00    +0.196 C 
BRANCH   4   5
ATOM      5  N   LIG    1        9.322   0.212  13.120  0.00  0.00    -0.276 N 
ATOM      6  H   LIG    1        9.219   1.174  13.187  0.00  0.00    +0.258 HD
BRANCH   5   7
ATOM      7  C   LIG    1       10.478  -0.389  13.559  0.00  0.00    +0.388 C 
ATOM      8  N   LIG    1       10.616  -1.681  13.469  0.00  0.00    -0.129 NA
ATOM      9  H   LIG    1       11.398  -2.112  13.846  0.00  0.00    +0.306 HD
BRANCH   7  10
ATOM     10  N   LIG    1       11.492   0.377  14.096  0.00  0.00    -0.186 N 
ATOM     11  H   LIG    1       11.300   1.266  14.435  0.00  0.00    +0.271 HD
BRANCH  10  12
ATOM     12  C   LIG    1       12.775  -0.119  14.151  0.00  0.00    +0.394 C 
ATOM     13  N   LIG    1       13.714   0.558  14.767  0.00  0.00    -0.073 NA
BRANCH  13  14
ATOM     14  C   LIG    1       13.452   1.814  15.246  0.00  0.00    +0.142 A 
ATOM     15  C   LIG    1       13.078   2.834  14.370  0.00  0.00    +0.047 A 
ATOM     16  C   LIG    1       12.814   4.097  14.858  0.00  0.00    +0.023 A 
ATOM     17  C   LIG    1       12.919   4.354  16.214  0.00  0.00    +0.041 A 
ATOM     18 CL   LIG    1       12.586   5.946  16.821  0.00  0.00    -0.084 Cl
ATOM     19  C   LIG    1       13.290   3.347  17.089  0.00  0.00    +0.023 A 
ATOM     20  C   LIG    1       13.551   2.078  16.613  0.00  0.00    +0.047 A 
ENDBRANCH  13  14
BRANCH  12  21
ATOM     21  N   LIG    1       13.070  -1.323  13.561  0.00  0.00    -0.288 N 
ATOM     22  H   LIG    1       13.893  -1.784  13.787  0.00  0.00    +0.255 HD
ATOM     23  H   LIG    1       12.457  -1.711  12.918  0.00  0.00    +0.255 HD
ENDBRANCH  12  21
ENDBRANCH  10  12
ENDBRANCH   7  10
ENDBRANCH   5   7
ENDBRANCH   4   5
ENDBRANCH   3   4
ENDBRANCH   2   3
ENDBRANCH   1   2
BRANCH   1  24
ATOM     24  C   LIG    1        3.670  -0.488  10.544  0.00  0.00    +0.037 C 
BRANCH  24  25
ATOM     25  C   LIG    1        2.506   0.419  10.137  0.00  0.00    +0.196 C 
BRANCH  25  26
ATOM     26  N   LIG    1        1.429  -0.395   9.567  0.00  0.00    -0.276 N 
ATOM     27  H   LIG    1        1.532  -1.357   9.500  0.00  0.00    +0.258 HD
BRANCH  26  28
ATOM     28  C   LIG    1        0.274   0.206   9.127  0.00  0.00    +0.388 C 
ATOM     29  N   LIG    1        0.136   1.498   9.218  0.00  0.00    -0.129 NA
ATOM     30  H   LIG    1        0.849   2.036   9.595  0.00  0.00    +0.306 HD
BRANCH  28  31
ATOM     31  N   LIG    1       -0.740  -0.560   8.591  0.00  0.00    -0.186 N 
ATOM     32  H   LIG    1       -0.683  -1.528   8.617  0.00  0.00    +0.271 HD
BRANCH  31  34
ATOM     33  N   LIG    1       -2.851  -0.674   7.612  0.00  0.00    -0.073 NA
ATOM     34  C   LIG    1       -1.834   0.049   8.017  0.00  0.00    +0.394 C 
BRANCH  33  36
ATOM     35  C   LIG    1       -3.824  -2.694   8.462  0.00  0.00    +0.047 A 
ATOM     36  C   LIG    1       -2.819  -2.037   7.749  0.00  0.00    +0.142 A 
ATOM     37  C   LIG    1       -1.783  -2.775   7.175  0.00  0.00    +0.047 A 
ATOM     38  C   LIG    1       -1.757  -4.147   7.315  0.00  0.00    +0.023 A 
ATOM     39  C   LIG    1       -2.756  -4.793   8.023  0.00  0.00    +0.041 A 
ATOM     40 CL   LIG    1       -2.717  -6.520   8.195  0.00  0.00    -0.084 Cl
ATOM     41  C   LIG    1       -3.787  -4.066   8.595  0.00  0.00    +0.023 A 
ENDBRANCH  33  36
BRANCH  34  42
ATOM     42  N   LIG    1       -1.860   1.413   7.869  0.00  0.00    -0.288 N 
ATOM     43  H   LIG    1       -1.116   1.950   8.185  0.00  0.00    +0.255 HD
ATOM     44  H   LIG    1       -2.623   1.841   7.449  0.00  0.00    +0.255 HD
ENDBRANCH  34  42
ENDBRANCH  31  34
ENDBRANCH  28  31
ENDBRANCH  26  28
ENDBRANCH  25  26
ENDBRANCH  24  25
ENDBRANCH   1  24
TORSDOF 17
