REMARK  Name = ZINC19362693
REMARK                            x       y       z     vdW  Elec       q    Type
REMARK                         _______ _______ _______ _____ _____    ______ ____
ROOT
ATOM      1  N   LIG    1        1.488  -2.931  -5.356  0.00  0.00    -0.302 NA
ATOM      2  C   LIG    1        0.801  -1.779  -5.955  0.00  0.00    +0.066 C 
ATOM      3  C   LIG    1       -0.291  -2.277  -6.904  0.00  0.00    -0.062 C 
ATOM      4  N   LIG    1        0.314  -3.108  -7.954  0.00  0.00    +0.389 N 
ATOM      5  H   LIG    1        0.993  -2.564  -8.463  0.00  0.00    -0.080 HD
ATOM      6  C   LIG    1        0.975  -4.268  -7.341  0.00  0.00    -0.062 C 
ATOM      7  C   LIG    1        2.078  -3.786  -6.396  0.00  0.00    +0.066 C 
ENDROOT
BRANCH   1   8
ATOM      8  C   LIG    1        2.509  -2.494  -4.394  0.00  0.00    +0.123 C 
BRANCH   8  12
ATOM      9  C   LIG    1        0.606  -0.608  -1.056  0.00  0.00    +0.165 A 
ATOM     10  C   LIG    1        1.173   0.160  -2.063  0.00  0.00    +0.050 A 
ATOM     11  C   LIG    1        1.787  -0.452  -3.139  0.00  0.00    +0.012 A 
ATOM     12  C   LIG    1        1.838  -1.831  -3.217  0.00  0.00    +0.012 A 
ATOM     13  C   LIG    1        1.274  -2.606  -2.216  0.00  0.00    +0.170 A 
ATOM     14  C   LIG    1        0.661  -1.994  -1.128  0.00  0.00    +0.204 A 
BRANCH   9  16
ATOM     15  C   LIG    1       -0.017   1.425   0.010  0.00  0.00    +0.277 C 
ATOM     16  O   LIG    1        0.002  -0.004   0.002  0.00  0.00    -0.491 OA
ENDBRANCH   9  16
BRANCH  13  17
ATOM     17  O   LIG    1        1.325  -3.963  -2.294  0.00  0.00    -0.491 OA
ATOM     18  C   LIG    1        2.456  -4.605  -1.704  0.00  0.00    +0.277 C 
ENDBRANCH  13  17
BRANCH  14  19
ATOM     19  O   LIG    1        0.111  -2.751  -0.140  0.00  0.00    -0.488 OA
ATOM     20  C   LIG    1       -1.260  -3.123  -0.295  0.00  0.00    +0.277 C 
ENDBRANCH  14  19
ENDBRANCH   8  12
ENDBRANCH   1   8
BRANCH   4  21
ATOM     21  C   LIG    1       -0.733  -3.571  -8.875  0.00  0.00    -0.007 C 
BRANCH  21  22
ATOM     22  C   LIG    1       -0.113  -4.424  -9.951  0.00  0.00    -0.057 A 
ATOM     23  C   LIG    1        1.106  -4.069 -10.497  0.00  0.00    +0.005 A 
ATOM     24  C   LIG    1        1.676  -4.850 -11.484  0.00  0.00    +0.038 A 
ATOM     25  C   LIG    1        1.025  -5.990 -11.926  0.00  0.00    +0.123 A 
ATOM     26  F   LIG    1        1.581  -6.755 -12.892  0.00  0.00    -0.205 F 
ATOM     27  C   LIG    1       -0.196  -6.345 -11.379  0.00  0.00    +0.038 A 
ATOM     28  C   LIG    1       -0.761  -5.564 -10.388  0.00  0.00    +0.005 A 
ENDBRANCH  21  22
BRANCH  21  29
ATOM     29  C   LIG    1       -1.411  -2.381  -9.504  0.00  0.00    -0.057 A 
ATOM     30  C   LIG    1       -0.661  -1.288  -9.898  0.00  0.00    +0.005 A 
ATOM     31  C   LIG    1       -1.281  -0.197 -10.476  0.00  0.00    +0.038 A 
ATOM     32  C   LIG    1       -2.654  -0.198 -10.661  0.00  0.00    +0.123 A 
ATOM     33  F   LIG    1       -3.261   0.868 -11.225  0.00  0.00    -0.205 F 
ATOM     34  C   LIG    1       -3.403  -1.294 -10.265  0.00  0.00    +0.038 A 
ATOM     35  C   LIG    1       -2.780  -2.386  -9.693  0.00  0.00    +0.005 A 
ENDBRANCH  21  29
ENDBRANCH   4  21
TORSDOF 8
