REMARK  Name = ZINC26440251
REMARK                            x       y       z     vdW  Elec       q    Type
REMARK                         _______ _______ _______ _____ _____    ______ ____
ROOT
ATOM      1  N   LIG    1        3.496   1.991   1.296  0.00  0.00    -0.310 N 
ATOM      2  H   LIG    1        4.027   1.953   0.334  0.00  0.00    +0.149 HD
ENDROOT
BRANCH   1   3
ATOM      3  C   LIG    1        4.183   2.307   2.450  0.00  0.00    +0.172 A 
ATOM      4  N   LIG    1        3.630   2.384   3.696  0.00  0.00    -0.328 N 
ATOM      5  C   LIG    1        4.644   2.724   4.576  0.00  0.00    +0.065 A 
ATOM      6  C   LIG    1        4.698   2.942   5.944  0.00  0.00    +0.028 A 
ATOM      7  C   LIG    1        5.896   3.276   6.540  0.00  0.00    +0.002 A 
ATOM      8  C   LIG    1        7.050   3.395   5.779  0.00  0.00    +0.002 A 
ATOM      9  C   LIG    1        7.016   3.181   4.419  0.00  0.00    +0.028 A 
ATOM     10  C   LIG    1        5.810   2.843   3.801  0.00  0.00    +0.065 A 
ATOM     11  H   LIG    1        2.557   2.187   3.834  0.00  0.00    +0.169 HD
ATOM     12  N   LIG    1        5.464   2.572   2.514  0.00  0.00    -0.328 N 
ATOM     13  H   LIG    1        6.077   2.550   1.601  0.00  0.00    +0.169 HD
ENDBRANCH   1   3
BRANCH   1  22
ATOM     14  C   LIG    1        1.563  -2.397   2.448  0.00  0.00    +0.000 A 
ATOM     15  C   LIG    1        2.518  -1.611   3.066  0.00  0.00    +0.000 A 
ATOM     16  C   LIG    1        2.662  -0.290   2.694  0.00  0.00    +0.006 A 
ATOM     17  C   LIG    1        1.854   0.257   1.704  0.00  0.00    -0.024 A 
ATOM     18  C   LIG    1        0.907  -0.528   1.087  0.00  0.00    -0.042 A 
ATOM     19  C   LIG    1        0.002  -0.004   0.002  0.00  0.00    +0.035 C 
ATOM     20  C   LIG    1       -0.019   1.523   0.010  0.00  0.00    +0.007 C 
ATOM     21  C   LIG    1        1.430   2.027  -0.001  0.00  0.00    +0.027 C 
ATOM     22  C   LIG    1        2.060   1.707   1.353  0.00  0.00    +0.104 C 
ATOM     23  C   LIG    1        0.762  -1.857   1.464  0.00  0.00    +0.004 A 
ENDBRANCH   1  22
TORSDOF 2
