REMARK  Name = ZINC28526495
REMARK                            x       y       z     vdW  Elec       q    Type
REMARK                         _______ _______ _______ _____ _____    ______ ____
ROOT
ATOM      1  C   LIG    1       -0.013   1.086   0.008  0.00  0.00    +0.160 C 
ENDROOT
BRANCH   1   7
ATOM      2  C   LIG    1       -0.638   0.897  -2.413  0.00  0.00    +0.126 A 
ATOM      3  C   LIG    1       -1.311   1.359  -3.535  0.00  0.00    +0.046 A 
ATOM      4  C   LIG    1       -2.082   2.502  -3.455  0.00  0.00    +0.004 A 
ATOM      5  C   LIG    1       -2.183   3.186  -2.257  0.00  0.00    +0.001 A 
ATOM      6  C   LIG    1       -1.518   2.725  -1.137  0.00  0.00    +0.010 A 
ATOM      7  C   LIG    1       -0.742   1.585  -1.213  0.00  0.00    +0.023 A 
BRANCH   2   8
ATOM      8  O   LIG    1        0.121  -0.228  -2.489  0.00  0.00    -0.492 OA
BRANCH   8   9
ATOM      9  C   LIG    1        0.181  -0.885  -3.757  0.00  0.00    +0.229 C 
BRANCH   9  10
ATOM     10  C   LIG    1        1.076  -2.121  -3.648  0.00  0.00    +0.041 C 
BRANCH  10  11
ATOM     11  C   LIG    1        1.141  -2.824  -5.005  0.00  0.00    +0.003 C 
BRANCH  11  13
ATOM     12  C   LIG    1        2.101  -4.764  -6.254  0.00  0.00    +0.004 C 
ATOM     13  C   LIG    1        2.036  -4.061  -4.897  0.00  0.00    -0.003 C 
ENDBRANCH  11  13
ENDBRANCH  10  11
ENDBRANCH   9  10
ENDBRANCH   8   9
ENDBRANCH   2   8
ENDBRANCH   1   7
BRANCH   1  14
ATOM     14  O   LIG    1       -0.682   1.547   1.184  0.00  0.00    -0.386 OA
ATOM     15  H   LIG    1       -0.293   1.281   2.178  0.00  0.00    +0.210 HD
ENDBRANCH   1  14
BRANCH   1  16
ATOM     16  C   LIG    1        1.423   1.615  -0.003  0.00  0.00    +0.125 C 
BRANCH  16  17
ATOM     17  C   LIG    1        2.169   1.032   1.124  0.00  0.00    -0.099 C 
ATOM     18  C   LIG    1        2.765   0.567   2.022  0.00  0.00    -0.102 C 
BRANCH  18  19
ATOM     19  C   LIG    1        3.511  -0.016   3.149  0.00  0.00    +0.089 C 
BRANCH  19  20
ATOM     20  C   LIG    1        4.947   0.514   3.138  0.00  0.00    +0.024 C 
BRANCH  20  21
ATOM     21  C   LIG    1        5.723  -0.092   4.309  0.00  0.00    +0.121 C 
BRANCH  21  22
ATOM     22  C   LIG    1        7.137   0.429   4.298  0.00  0.00    +0.307 C 
ATOM     23  O   LIG    1        7.488   1.206   3.442  0.00  0.00    -0.251 OA
BRANCH  22  24
ATOM     24  O   LIG    1        8.006   0.031   5.240  0.00  0.00    -0.468 OA
ATOM     25  C   LIG    1        9.351   0.574   5.168  0.00  0.00    +0.280 C 
ENDBRANCH  22  24
ENDBRANCH  21  22
ENDBRANCH  20  21
ENDBRANCH  19  20
ENDBRANCH  18  19
ENDBRANCH  16  17
ENDBRANCH   1  16
TORSDOF 14
