REMARK  Name = ZINC28563767
REMARK                            x       y       z     vdW  Elec       q    Type
REMARK                         _______ _______ _______ _____ _____    ______ ____
ROOT
ATOM      1  C   LIG    1        1.233   4.175   1.793  0.00  0.00    +0.120 C 
ATOM      2  C   LIG    1        0.080   3.328   2.335  0.00  0.00    +0.033 C 
ATOM      3  C   LIG    1       -1.245   3.857   1.783  0.00  0.00    -0.014 C 
ATOM      4  C   LIG    1       -1.434   5.312   2.217  0.00  0.00    -0.075 C 
ATOM      5  C   LIG    1       -0.281   6.160   1.675  0.00  0.00    -0.014 C 
ATOM      6  C   LIG    1        1.045   5.630   2.227  0.00  0.00    +0.033 C 
ENDROOT
BRANCH   1   7
ATOM      7  C   LIG    1        2.538   3.654   2.337  0.00  0.00    +0.018 A 
ATOM      8  C   LIG    1        3.484   3.127   1.477  0.00  0.00    +0.047 A 
ATOM      9  C   LIG    1        4.684   2.651   1.976  0.00  0.00    +0.124 A 
ATOM     10  F   LIG    1        5.609   2.139   1.136  0.00  0.00    -0.205 F 
ATOM     11  C   LIG    1        4.934   2.695   3.338  0.00  0.00    +0.041 A 
ATOM     12  C   LIG    1        3.987   3.217   4.197  0.00  0.00    +0.041 A 
ATOM     13  C   LIG    1        2.788   3.697   3.698  0.00  0.00    +0.129 A 
ATOM     14  F   LIG    1        1.861   4.207   4.538  0.00  0.00    -0.205 F 
ENDBRANCH   1   7
BRANCH   4  15
ATOM     15  N   LIG    1       -1.449   5.388   3.684  0.00  0.00    +0.380 N 
ATOM     16  H   LIG    1       -2.278   4.778   4.074  0.00  0.00    -0.090 HD
ATOM     17  H   LIG    1       -0.497   5.007   4.081  0.00  0.00    -0.090 HD
ATOM     18  H   LIG    1       -1.585   6.434   3.996  0.00  0.00    -0.090 HD
ENDBRANCH   4  15
BRANCH   1  19
ATOM     19  S   LIG    1        1.252   4.083  -0.018  0.00  0.00    +0.007 S 
ATOM     20  O   LIG    1        1.684   2.795  -0.438  0.00  0.00    -0.169 OA
ATOM     21  O   LIG    1        0.067   4.659  -0.551  0.00  0.00    -0.169 OA
BRANCH  19  28
ATOM     22  C   LIG    1        3.727   4.662  -1.014  0.00  0.00    +0.028 A 
ATOM     23  C   LIG    1        4.740   5.517  -1.404  0.00  0.00    +0.022 A 
ATOM     24  C   LIG    1        4.571   6.886  -1.292  0.00  0.00    +0.041 A 
ATOM     25 CL   LIG    1        5.844   7.961  -1.780  0.00  0.00    -0.084 Cl
ATOM     26  C   LIG    1        3.387   7.397  -0.791  0.00  0.00    +0.022 A 
ATOM     27  C   LIG    1        2.375   6.541  -0.402  0.00  0.00    +0.028 A 
ATOM     28  C   LIG    1        2.544   5.174  -0.514  0.00  0.00    +0.089 A 
ENDBRANCH  19  28
ENDBRANCH   1  19
TORSDOF 4
