REMARK  Name = ZINC33696850
REMARK                            x       y       z     vdW  Elec       q    Type
REMARK                         _______ _______ _______ _____ _____    ______ ____
ROOT
ATOM      1  C   LIG    1       -2.583   6.278  -1.358  0.00  0.00    +0.012 C 
ATOM      2  C   LIG    1       -1.919   5.990  -0.014  0.00  0.00    -0.018 C 
ATOM      3  C   LIG    1       -1.560   4.528   0.103  0.00  0.00    +0.008 C 
ATOM      4  C   LIG    1       -2.864   3.709   0.177  0.00  0.00    +0.005 C 
ATOM      5  C   LIG    1       -3.686   4.117   1.387  0.00  0.00    +0.000 C 
ATOM      6  C   LIG    1       -4.037   5.614   1.353  0.00  0.00    -0.004 C 
ATOM      7  C   LIG    1       -5.120   5.868   0.317  0.00  0.00    +0.006 C 
ATOM      8  C   LIG    1       -6.424   5.205   0.786  0.00  0.00    +0.023 C 
ATOM      9  C   LIG    1       -6.128   4.217   1.906  0.00  0.00    +0.079 C 
ATOM     10  N   LIG    1       -7.311   3.436   2.242  0.00  0.00    -0.312 N 
ATOM     11  H   LIG    1       -8.313   3.868   2.102  0.00  0.00    +0.149 HD
ATOM     12  C   LIG    1       -7.258   2.192   2.722  0.00  0.00    +0.213 C 
ATOM     13  O   LIG    1       -8.288   1.673   3.092  0.00  0.00    -0.276 OA
ATOM     14  C   LIG    1       -5.987   1.399   2.825  0.00  0.00    +0.096 C 
ATOM     15  C   LIG    1       -4.769   2.316   2.720  0.00  0.00    +0.018 C 
ATOM     16  C   LIG    1       -4.960   3.296   1.551  0.00  0.00    -0.010 C 
ATOM     17  C   LIG    1       -5.280   2.511   0.283  0.00  0.00    +0.013 C 
ATOM     18  C   LIG    1       -0.746   6.979   0.133  0.00  0.00    +0.081 C 
ATOM     19  C   LIG    1       -1.426   8.298   0.584  0.00  0.00    +0.013 C 
ATOM     20  C   LIG    1       -2.880   7.926   0.995  0.00  0.00    +0.005 C 
ATOM     21  C   LIG    1       -2.782   6.409   1.192  0.00  0.00    -0.001 C 
ENDROOT
BRANCH  18  22
ATOM     22  C   LIG    1       -0.064   7.164  -1.194  0.00  0.00    +0.217 C 
ATOM     23  N   LIG    1        0.404   8.378  -1.547  0.00  0.00    -0.310 N 
ATOM     24  H   LIG    1        0.287   9.233  -0.865  0.00  0.00    +0.149 HD
ATOM     25  O   LIG    1        0.066   6.222  -1.946  0.00  0.00    -0.275 OA
BRANCH  23  26
ATOM     26  C   LIG    1        1.069   8.559  -2.840  0.00  0.00    +0.026 C 
ATOM     27  C   LIG    1        2.300   7.653  -2.912  0.00  0.00    +0.031 C 
ATOM     28  C   LIG    1        1.500  10.019  -2.992  0.00  0.00    +0.031 C 
ATOM     29  C   LIG    1        0.100   8.193  -3.967  0.00  0.00    +0.031 C 
ENDBRANCH  23  26
ENDBRANCH  18  22
TORSDOF 2
