REMARK  Name = ZINC36159894
REMARK                            x       y       z     vdW  Elec       q    Type
REMARK                         _______ _______ _______ _____ _____    ______ ____
ROOT
ATOM      1  C   LIG    1        0.203   1.168   0.545  0.00  0.00    +0.008 A 
ATOM      2  C   LIG    1        1.377   1.875   0.391  0.00  0.00    +0.013 A 
ATOM      3  C   LIG    1        2.344   1.433  -0.496  0.00  0.00    +0.055 A 
ATOM      4  C   LIG    1        2.140   0.281  -1.234  0.00  0.00    +0.013 A 
ATOM      5  C   LIG    1        0.971  -0.437  -1.090  0.00  0.00    +0.008 A 
ATOM      6  C   LIG    1       -0.009   0.003  -0.197  0.00  0.00    -0.025 A 
ENDROOT
BRANCH   3   7
ATOM      7  C   LIG    1        3.624   2.212  -0.659  0.00  0.00    +0.417 C 
ATOM      8  F   LIG    1        3.379   3.568  -0.417  0.00  0.00    -0.166 F 
ATOM      9  F   LIG    1        4.105   2.050  -1.962  0.00  0.00    -0.166 F 
ATOM     10  F   LIG    1        4.575   1.740   0.252  0.00  0.00    -0.166 F 
ENDBRANCH   3   7
BRANCH   6  11
ATOM     11  C   LIG    1       -1.261  -0.759  -0.037  0.00  0.00    +0.008 C 
ATOM     12  C   LIG    1       -1.243  -2.100  -0.098  0.00  0.00    +0.008 C 
BRANCH  12  13
ATOM     13  C   LIG    1        0.043  -2.820  -0.115  0.00  0.00    -0.022 A 
ATOM     14  C   LIG    1        1.113  -2.363   0.658  0.00  0.00    +0.028 A 
ATOM     15  C   LIG    1        2.314  -3.042   0.638  0.00  0.00    +0.043 A 
ATOM     16 CL   LIG    1        3.646  -2.476   1.597  0.00  0.00    -0.083 Cl
ATOM     17  C   LIG    1        2.460  -4.174  -0.146  0.00  0.00    +0.040 A 
ATOM     18  C   LIG    1        1.403  -4.633  -0.915  0.00  0.00    +0.043 A 
ATOM     19 CL   LIG    1        1.597  -6.053  -1.894  0.00  0.00    -0.083 Cl
ATOM     20  C   LIG    1        0.195  -3.966  -0.899  0.00  0.00    +0.028 A 
ENDBRANCH  12  13
ENDBRANCH   6  11
TORSDOF 3
