REMARK  Name = ZINC13860563
REMARK                            x       y       z     vdW  Elec       q    Type
REMARK                         _______ _______ _______ _____ _____    ______ ____
ROOT
ATOM      1  C   LIG    1        0.713   3.593  -1.433  0.00  0.00    -0.018 A 
ATOM      2  C   LIG    1       -0.587   3.471  -0.931  0.00  0.00    -0.002 A 
ATOM      3  C   LIG    1       -1.055   2.193  -0.614  0.00  0.00    +0.010 A 
ATOM      4  C   LIG    1       -0.220   1.110  -0.796  0.00  0.00    +0.050 A 
ATOM      5  N   LIG    1        1.000   1.269  -1.272  0.00  0.00    -0.255 NA
ATOM      6  C   LIG    1        1.479   2.457  -1.589  0.00  0.00    +0.048 A 
ENDROOT
BRANCH   2   7
ATOM      7  C   LIG    1       -1.446   4.665  -0.747  0.00  0.00    +0.024 A 
ATOM      8  C   LIG    1       -2.241   5.124  -1.795  0.00  0.00    +0.015 A 
ATOM      9  C   LIG    1       -3.039   6.235  -1.619  0.00  0.00    +0.039 A 
ATOM     10  C   LIG    1       -3.054   6.898  -0.402  0.00  0.00    +0.127 A 
ATOM     11  F   LIG    1       -3.838   7.986  -0.237  0.00  0.00    -0.205 F 
ATOM     12  C   LIG    1       -2.269   6.450   0.646  0.00  0.00    +0.084 A 
ATOM     13  C   LIG    1       -1.468   5.331   0.483  0.00  0.00    +0.127 A 
BRANCH  13  14
ATOM     14  O   LIG    1       -0.700   4.887   1.512  0.00  0.00    -0.506 OA
ATOM     15  H   LIG    1        0.184   5.277   1.540  0.00  0.00    +0.292 HD
ENDBRANCH  13  14
ENDBRANCH   2   7
BRANCH   4  16
ATOM     16  C   LIG    1       -0.711  -0.273  -0.454  0.00  0.00    +0.032 C 
ATOM     17  C   LIG    1        0.330  -0.982   0.415  0.00  0.00    +0.014 C 
ATOM     18  C   LIG    1       -0.929  -1.070  -1.741  0.00  0.00    +0.014 C 
ENDBRANCH   4  16
BRANCH   6  19
ATOM     19  C   LIG    1        2.881   2.574  -2.127  0.00  0.00    +0.032 C 
ATOM     20  C   LIG    1        2.984   1.815  -3.452  0.00  0.00    +0.014 C 
ATOM     21  C   LIG    1        3.866   1.977  -1.120  0.00  0.00    +0.014 C 
ENDBRANCH   6  19
BRANCH   3  22
ATOM     22  C   LIG    1       -2.450   2.001  -0.076  0.00  0.00    +0.144 C 
ATOM     23  C   LIG    1       -2.492   2.425   1.394  0.00  0.00    +0.043 C 
BRANCH  22  24
ATOM     24  O   LIG    1       -3.365   2.800  -0.828  0.00  0.00    -0.387 OA
ATOM     25  H   LIG    1       -3.348   3.739  -0.599  0.00  0.00    +0.210 HD
ENDBRANCH  22  24
ENDBRANCH   3  22
BRANCH   1  26
ATOM     26  C   LIG    1        1.268   4.946  -1.798  0.00  0.00    +0.037 C 
BRANCH  26  27
ATOM     27  C   LIG    1        1.066   5.194  -3.294  0.00  0.00    +0.005 C 
BRANCH  27  28
ATOM     28  C   LIG    1        1.630   6.567  -3.664  0.00  0.00    +0.000 C 
BRANCH  28  30
ATOM     29  C   LIG    1        1.992   8.188  -5.530  0.00  0.00    +0.004 C 
ATOM     30  C   LIG    1        1.428   6.815  -5.160  0.00  0.00    -0.003 C 
ENDBRANCH  28  30
ENDBRANCH  27  28
ENDBRANCH  26  27
ENDBRANCH   1  26
TORSDOF 10
