REMARK  Name = ZINC15924299
REMARK                            x       y       z     vdW  Elec       q    Type
REMARK                         _______ _______ _______ _____ _____    ______ ____
ROOT
ATOM      1  C   LIG    1       -0.578  -5.052   1.220  0.00  0.00    +0.392 C 
ATOM      2  N   LIG    1       -0.569  -4.357   2.321  0.00  0.00    -0.129 NA
ATOM      3  H   LIG    1       -0.032  -4.649   3.074  0.00  0.00    +0.306 HD
ENDROOT
BRANCH   1   4
ATOM      4  N   LIG    1       -1.257  -4.585   0.118  0.00  0.00    -0.243 N 
ATOM      5  H   LIG    1       -1.339  -5.142  -0.673  0.00  0.00    +0.265 HD
BRANCH   4  10
ATOM      6  C   LIG    1       -3.579   0.590   0.197  0.00  0.00    +0.044 C 
ATOM      7  C   LIG    1       -2.962  -0.785   0.176  0.00  0.00    -0.050 A 
ATOM      8  C   LIG    1       -1.875  -1.066   0.983  0.00  0.00    +0.007 A 
ATOM      9  C   LIG    1       -1.307  -2.325   0.966  0.00  0.00    +0.042 A 
ATOM     10  C   LIG    1       -1.830  -3.309   0.138  0.00  0.00    +0.100 A 
ATOM     11  C   LIG    1       -2.922  -3.024  -0.672  0.00  0.00    +0.042 A 
ATOM     12  C   LIG    1       -3.488  -1.765  -0.646  0.00  0.00    +0.007 A 
ENDBRANCH   4  10
ENDBRANCH   1   4
BRANCH   1  13
ATOM     13  N   LIG    1        0.096  -6.255   1.157  0.00  0.00    -0.189 N 
ATOM     14  H   LIG    1        0.496  -6.630   1.958  0.00  0.00    +0.271 HD
BRANCH  13  15
ATOM     15  C   LIG    1        0.199  -6.923  -0.038  0.00  0.00    +0.350 C 
ATOM     16  N   LIG    1        0.414  -8.236  -0.051  0.00  0.00    -0.291 N 
ATOM     17  H   LIG    1        0.487  -8.708  -0.895  0.00  0.00    +0.255 HD
ATOM     18  H   LIG    1        0.498  -8.722   0.785  0.00  0.00    +0.255 HD
BRANCH  15  19
ATOM     19  N   LIG    1        0.084  -6.256  -1.185  0.00  0.00    -0.291 N 
ATOM     20  H   LIG    1       -0.059  -6.739  -2.014  0.00  0.00    +0.255 HD
ATOM     21  H   LIG    1        0.144  -5.288  -1.191  0.00  0.00    +0.255 HD
ENDBRANCH  15  19
ENDBRANCH  13  15
ENDBRANCH   1  13
TORSDOF 5
