REMARK  Name = ZINC22453001
REMARK                            x       y       z     vdW  Elec       q    Type
REMARK                         _______ _______ _______ _____ _____    ______ ____
ROOT
ATOM      1  N   LIG    1        2.412   1.073   0.043  0.00  0.00    +0.387 N 
ATOM      2  H   LIG    1        2.272   0.263  -0.688  0.00  0.00    -0.081 HD
ATOM      3  C   LIG    1        2.463   0.472   1.383  0.00  0.00    -0.063 C 
ATOM      4  C   LIG    1        3.614  -0.534   1.444  0.00  0.00    +0.066 C 
ATOM      5  N   LIG    1        4.876   0.149   1.127  0.00  0.00    -0.302 NA
ATOM      6  C   LIG    1        4.825   0.750  -0.213  0.00  0.00    +0.066 C 
ATOM      7  C   LIG    1        3.674   1.757  -0.274  0.00  0.00    -0.063 C 
ENDROOT
BRANCH   1   8
ATOM      8  C   LIG    1        1.271   1.991  -0.079  0.00  0.00    +0.019 C 
BRANCH   8  15
ATOM      9  C   LIG    1       -3.431  -1.046  -0.083  0.00  0.00    +0.002 A 
ATOM     10  C   LIG    1       -4.633  -0.502   0.333  0.00  0.00    +0.001 A 
ATOM     11  C   LIG    1       -4.707   0.840   0.650  0.00  0.00    +0.016 A 
ATOM     12  C   LIG    1       -3.579   1.646   0.554  0.00  0.00    +0.029 A 
ATOM     13  C   LIG    1       -2.367   1.101   0.142  0.00  0.00    +0.050 A 
ATOM     14  N   LIG    1       -1.196   1.856   0.035  0.00  0.00    -0.271 N 
ATOM     15  C   LIG    1       -0.014   1.209   0.009  0.00  0.00    +0.203 C 
ATOM     16  O   LIG    1        0.015  -0.003   0.051  0.00  0.00    -0.277 OA
ATOM     17  C   LIG    1       -1.194   3.313  -0.044  0.00  0.00    +0.124 C 
ATOM     18  C   LIG    1       -1.980   3.879   1.143  0.00  0.00    +0.094 C 
ATOM     19  S   LIG    1       -3.712   3.358   0.958  0.00  0.00    -0.122 S 
ATOM     20  C   LIG    1       -2.305  -0.253  -0.178  0.00  0.00    +0.024 A 
ENDBRANCH   8  15
ENDBRANCH   1   8
BRANCH   5  21
ATOM     21  C   LIG    1        6.017  -0.768   1.250  0.00  0.00    +0.119 C 
BRANCH  21  22
ATOM     22  C   LIG    1        6.184  -1.173   2.691  0.00  0.00    -0.033 A 
ATOM     23  C   LIG    1        6.995  -0.430   3.528  0.00  0.00    +0.006 A 
ATOM     24  C   LIG    1        7.144  -0.798   4.852  0.00  0.00    +0.020 A 
ATOM     25  C   LIG    1        6.490  -1.916   5.337  0.00  0.00    +0.041 A 
ATOM     26 CL   LIG    1        6.682  -2.383   6.998  0.00  0.00    -0.084 Cl
ATOM     27  C   LIG    1        5.682  -2.663   4.498  0.00  0.00    +0.020 A 
ATOM     28  C   LIG    1        5.530  -2.291   3.175  0.00  0.00    +0.006 A 
ENDBRANCH  21  22
ENDBRANCH   5  21
TORSDOF 4
