REMARK  Name = ZINC45258649
REMARK                            x       y       z     vdW  Elec       q    Type
REMARK                         _______ _______ _______ _____ _____    ______ ____
ROOT
ATOM      1  C   LIG    1        0.090  -5.064   3.600  0.00  0.00    +0.092 C 
ENDROOT
BRANCH   1   9
ATOM      2  C   LIG    1       -0.018   1.503   0.010  0.00  0.00    +0.044 C 
ATOM      3  C   LIG    1        0.002  -0.004   0.002  0.00  0.00    -0.050 A 
ATOM      4  C   LIG    1        0.006  -0.688  -1.205  0.00  0.00    +0.007 A 
ATOM      5  C   LIG    1        0.025  -2.066  -1.232  0.00  0.00    +0.047 A 
ATOM      6  C   LIG    1        0.041  -2.783  -0.043  0.00  0.00    +0.143 A 
ATOM      7  C   LIG    1        0.037  -2.092   1.180  0.00  0.00    +0.060 A 
ATOM      8  C   LIG    1        0.054  -2.863   2.433  0.00  0.00    +0.138 A 
ATOM      9  C   LIG    1        0.072  -4.228   2.347  0.00  0.00    +0.084 A 
ATOM     10  C   LIG    1        0.075  -4.846   1.087  0.00  0.00    +0.344 A 
ATOM     11  O   LIG    1        0.091  -6.062   1.024  0.00  0.00    -0.245 OA
ATOM     12  O   LIG    1        0.059  -4.133  -0.051  0.00  0.00    -0.422 OA
ATOM     13  C   LIG    1        0.023  -0.696   1.193  0.00  0.00    +0.018 A 
BRANCH   8  14
ATOM     14  O   LIG    1        0.051  -2.240   3.633  0.00  0.00    -0.506 OA
ATOM     15  H   LIG    1        0.038  -1.304   3.676  0.00  0.00    +0.292 HD
ENDBRANCH   8  14
ENDBRANCH   1   9
BRANCH   1  16
ATOM     16  C   LIG    1       -1.318  -5.466   3.956  0.00  0.00    +0.084 A 
ATOM     17  C   LIG    1       -1.809  -6.677   3.554  0.00  0.00    +0.138 A 
ATOM     18  C   LIG    1       -3.190  -7.021   3.927  0.00  0.00    +0.060 A 
ATOM     19  C   LIG    1       -3.756  -8.241   3.550  0.00  0.00    +0.018 A 
ATOM     20  C   LIG    1       -5.051  -8.532   3.916  0.00  0.00    -0.050 A 
ATOM     21  C   LIG    1       -5.667  -9.847   3.511  0.00  0.00    +0.044 C 
ATOM     22  C   LIG    1       -5.792  -7.622   4.656  0.00  0.00    +0.007 A 
ATOM     23  C   LIG    1       -5.245  -6.414   5.035  0.00  0.00    +0.047 A 
ATOM     24  C   LIG    1       -3.940  -6.100   4.676  0.00  0.00    +0.143 A 
ATOM     25  O   LIG    1       -3.389  -4.922   5.040  0.00  0.00    -0.422 OA
ATOM     26  C   LIG    1       -2.128  -4.601   4.708  0.00  0.00    +0.344 A 
ATOM     27  O   LIG    1       -1.677  -3.527   5.065  0.00  0.00    -0.245 OA
BRANCH  17  28
ATOM     28  O   LIG    1       -1.049  -7.532   2.833  0.00  0.00    -0.506 OA
ATOM     29  H   LIG    1       -1.497  -8.358   2.602  0.00  0.00    +0.292 HD
ENDBRANCH  17  28
ENDBRANCH   1  16
TORSDOF 4
