REMARK  Name = ZINC18371391
REMARK                            x       y       z     vdW  Elec       q    Type
REMARK                         _______ _______ _______ _____ _____    ______ ____
ROOT
ATOM      1  C   LIG    1        0.450   1.941  -6.266  0.00  0.00    +0.033 A 
ATOM      2  C   LIG    1        0.430   1.181  -7.437  0.00  0.00    +0.025 A 
ATOM      3  C   LIG    1        0.602   1.773  -8.655  0.00  0.00    +0.030 A 
ATOM      4  C   LIG    1        0.798   3.149  -8.742  0.00  0.00    +0.069 A 
ATOM      5  C   LIG    1        0.819   3.925  -7.567  0.00  0.00    +0.021 A 
ATOM      6  C   LIG    1        1.041   5.304  -7.989  0.00  0.00    +0.143 A 
ATOM      7  N   LIG    1        1.138   5.312  -9.288  0.00  0.00    -0.178 NA
ATOM      8  N   LIG    1        0.995   4.013  -9.789  0.00  0.00    -0.259 N 
ATOM      9  C   LIG    1        0.637   3.307  -6.324  0.00  0.00    +0.034 A 
ENDROOT
BRANCH   1  10
ATOM     10  N   LIG    1        0.272   1.314  -5.027  0.00  0.00    -0.299 N 
ATOM     11  H   LIG    1       -0.198   1.774  -4.313  0.00  0.00    +0.154 HD
BRANCH  10  20
ATOM     12  C   LIG    1       -0.473  -0.942  -1.415  0.00  0.00    +0.122 A 
ATOM     13  C   LIG    1       -0.277  -0.162  -2.542  0.00  0.00    +0.057 A 
ATOM     14  C   LIG    1        0.490  -0.686  -3.585  0.00  0.00    +0.045 A 
ATOM     15  C   LIG    1        1.032  -1.990  -3.446  0.00  0.00    +0.094 A 
ATOM     16  N   LIG    1        1.767  -2.486  -4.451  0.00  0.00    -0.234 NA
ATOM     17  C   LIG    1        1.982  -1.787  -5.537  0.00  0.00    +0.224 A 
ATOM     18  N   LIG    1        1.509  -0.567  -5.735  0.00  0.00    -0.220 NA
ATOM     19  C   LIG    1        0.777  -2.701  -2.267  0.00  0.00    +0.141 A 
ATOM     20  C   LIG    1        0.765   0.043  -4.819  0.00  0.00    +0.134 A 
ATOM     21  N   LIG    1        0.053  -2.158  -1.315  0.00  0.00    -0.238 NA
BRANCH  12  23
ATOM     22  C   LIG    1       -1.912   0.852  -0.500  0.00  0.00    +0.130 C 
ATOM     23  N   LIG    1       -1.234  -0.440  -0.363  0.00  0.00    -0.321 N 
ATOM     24  C   LIG    1       -1.357  -1.202   0.882  0.00  0.00    +0.130 C 
ENDBRANCH  12  23
ENDBRANCH  10  20
ENDBRANCH   1  10
BRANCH   8  25
ATOM     25  C   LIG    1        1.048   3.637 -11.204  0.00  0.00    +0.179 C 
BRANCH  25  26
ATOM     26  C   LIG    1       -0.338   3.702 -11.793  0.00  0.00    -0.026 A 
ATOM     27  C   LIG    1       -1.155   2.588 -11.760  0.00  0.00    +0.005 A 
ATOM     28  C   LIG    1       -2.426   2.648 -12.300  0.00  0.00    +0.000 A 
ATOM     29  C   LIG    1       -2.880   3.821 -12.873  0.00  0.00    +0.000 A 
ATOM     30  C   LIG    1       -2.062   4.936 -12.905  0.00  0.00    +0.000 A 
ATOM     31  C   LIG    1       -0.793   4.877 -12.361  0.00  0.00    +0.005 A 
ENDBRANCH  25  26
ENDBRANCH   8  25
TORSDOF 5
