REMARK  Name = ZINC17222026
REMARK                            x       y       z     vdW  Elec       q    Type
REMARK                         _______ _______ _______ _____ _____    ______ ____
ROOT
ATOM      1  C   LIG    1        5.923   1.490  -0.046  0.00  0.00    +0.193 C 
ATOM      2  O   LIG    1        6.381   0.359  -0.056  0.00  0.00    -0.287 OA
ENDROOT
BRANCH   1   5
ATOM      3  C   LIG    1        8.812   3.909  -0.060  0.00  0.00    +0.008 A 
ATOM      4  C   LIG    1        8.212   2.675  -0.061  0.00  0.00    +0.019 A 
ATOM      5  C   LIG    1        6.825   2.647  -0.048  0.00  0.00    +0.059 A 
ATOM      6  S   LIG    1        6.424   4.386  -0.043  0.00  0.00    -0.093 S 
ATOM      7  C   LIG    1        8.036   5.025  -0.048  0.00  0.00    +0.046 A 
ENDBRANCH   1   5
BRANCH   1   8
ATOM      8  C   LIG    1        4.519   1.685  -0.032  0.00  0.00    +0.052 C 
ATOM      9  C   LIG    1        3.687   0.618  -0.029  0.00  0.00    +0.012 C 
BRANCH   9  10
ATOM     10  C   LIG    1        2.235   0.821  -0.015  0.00  0.00    -0.018 A 
ATOM     11  C   LIG    1        1.318  -0.293  -0.012  0.00  0.00    +0.015 A 
ATOM     12  C   LIG    1        0.002  -0.004   0.002  0.00  0.00    +0.046 A 
ATOM     13  S   LIG    1       -0.022   1.777   0.012  0.00  0.00    -0.104 S 
ATOM     14  C   LIG    1        1.681   2.088  -0.003  0.00  0.00    +0.053 A 
ENDBRANCH   9  10
ENDBRANCH   1   8
TORSDOF 3
