REMARK  Name = ZINC53314424
REMARK                            x       y       z     vdW  Elec       q    Type
REMARK                         _______ _______ _______ _____ _____    ______ ____
ROOT
ATOM      1  O   LIG    1        0.761  -1.940   1.234  0.00  0.00    -0.349 OA
ENDROOT
BRANCH   1   6
ATOM      2  C   LIG    1       -0.019   1.526   0.010  0.00  0.00    -0.027 C 
ATOM      3  C   LIG    1        1.417   2.055  -0.000  0.00  0.00    -0.045 C 
ATOM      4  C   LIG    1        2.157   1.548   1.239  0.00  0.00    +0.131 C 
ATOM      5  C   LIG    1        2.178   0.019   1.231  0.00  0.00    +0.168 C 
ATOM      6  C   LIG    1        0.742  -0.511   1.242  0.00  0.00    +0.138 C 
ATOM      7  C   LIG    1        0.002  -0.004   0.002  0.00  0.00    -0.045 C 
BRANCH   3   8
ATOM      8  N   LIG    1        1.397   3.524   0.008  0.00  0.00    +0.382 N 
ATOM      9  H   LIG    1        0.909   3.858  -0.810  0.00  0.00    -0.090 HD
ATOM     10  H   LIG    1        2.343   3.873   0.001  0.00  0.00    -0.090 HD
ATOM     11  H   LIG    1        0.924   3.850   0.838  0.00  0.00    -0.090 HD
ENDBRANCH   3   8
BRANCH   7  12
ATOM     12  N   LIG    1       -1.376  -0.512   0.012  0.00  0.00    +0.382 N 
ATOM     13  H   LIG    1       -1.848  -0.187   0.843  0.00  0.00    -0.090 HD
ATOM     14  H   LIG    1       -1.362  -1.521   0.007  0.00  0.00    -0.090 HD
ATOM     15  H   LIG    1       -1.864  -0.178  -0.805  0.00  0.00    -0.090 HD
ENDBRANCH   7  12
BRANCH   4  16
ATOM     16  O   LIG    1        3.497   2.043   1.229  0.00  0.00    -0.391 OA
ATOM     17  H   LIG    1        4.027   1.761   1.988  0.00  0.00    +0.210 HD
ENDBRANCH   4  16
BRANCH   5  18
ATOM     18  O   LIG    1        2.869  -0.455   2.388  0.00  0.00    -0.387 OA
ATOM     19  H   LIG    1        3.787  -0.157   2.447  0.00  0.00    +0.210 HD
ENDBRANCH   5  18
ENDBRANCH   1   6
BRANCH   1  20
ATOM     20  C   LIG    1        0.782  -2.528   2.536  0.00  0.00    +0.239 C 
ATOM     21  C   LIG    1        1.051  -4.030   2.413  0.00  0.00    +0.014 C 
ATOM     22  C   LIG    1       -0.089  -4.683   1.626  0.00  0.00    +0.136 C 
ATOM     23  C   LIG    1       -1.417  -4.386   2.331  0.00  0.00    +0.168 C 
ATOM     24  C   LIG    1       -1.591  -2.870   2.456  0.00  0.00    +0.135 C 
ATOM     25  O   LIG    1       -0.481  -2.322   3.172  0.00  0.00    -0.349 OA
BRANCH  21  26
ATOM     26  N   LIG    1        2.322  -4.245   1.708  0.00  0.00    +0.385 N 
ATOM     27  H   LIG    1        2.269  -3.837   0.787  0.00  0.00    -0.089 HD
ATOM     28  H   LIG    1        2.499  -5.235   1.628  0.00  0.00    -0.089 HD
ATOM     29  H   LIG    1        3.071  -3.810   2.226  0.00  0.00    -0.089 HD
ENDBRANCH  21  26
BRANCH  22  30
ATOM     30  O   LIG    1        0.117  -6.096   1.568  0.00  0.00    -0.391 OA
ATOM     31  H   LIG    1       -0.569  -6.574   1.083  0.00  0.00    +0.210 HD
ENDBRANCH  22  30
BRANCH  23  32
ATOM     32  O   LIG    1       -2.495  -4.930   1.567  0.00  0.00    -0.387 OA
ATOM     33  H   LIG    1       -2.446  -5.888   1.444  0.00  0.00    +0.210 HD
ENDBRANCH  23  32
BRANCH  24  34
ATOM     34  C   LIG    1       -2.886  -2.566   3.212  0.00  0.00    -0.052 C 
BRANCH  34  35
ATOM     35  N   LIG    1       -3.114  -1.115   3.228  0.00  0.00    +0.380 N 
ATOM     36  H   LIG    1       -3.968  -0.914   3.727  0.00  0.00    -0.090 HD
ATOM     37  H   LIG    1       -3.190  -0.776   2.281  0.00  0.00    -0.090 HD
ATOM     38  H   LIG    1       -2.341  -0.658   3.689  0.00  0.00    -0.090 HD
ENDBRANCH  34  35
ENDBRANCH  24  34
ENDBRANCH   1  20
TORSDOF 11
