REMARK  Name = ZINC32701813
REMARK                            x       y       z     vdW  Elec       q    Type
REMARK                         _______ _______ _______ _____ _____    ______ ____
ROOT
ATOM      1  C   LIG    1       -0.236   4.304  -0.196  0.00  0.00    +0.023 C 
ATOM      2  C   LIG    1       -0.228   5.647   0.041  0.00  0.00    +0.079 C 
ATOM      3  C   LIG    1        0.832   6.648  -0.211  0.00  0.00    +0.276 C 
ATOM      4  N   LIG    1        0.555   7.890   0.123  0.00  0.00    -0.154 NA
ATOM      5  C   LIG    1       -0.604   8.239   0.658  0.00  0.00    +0.156 C 
ATOM      6  O   LIG    1        1.906   6.339  -0.703  0.00  0.00    -0.267 OA
ATOM      7  S   LIG    1       -1.499   6.695   0.737  0.00  0.00    -0.051 S 
ENDROOT
BRANCH   1   9
ATOM      8  C   LIG    1       -2.696   3.966  -0.658  0.00  0.00    +0.044 C 
ATOM      9  C   LIG    1       -1.412   3.558   0.017  0.00  0.00    -0.049 C 
ATOM     10  C   LIG    1       -1.389   2.474   0.828  0.00  0.00    +0.011 C 
BRANCH  10  11
ATOM     11  C   LIG    1       -0.179   2.161   1.603  0.00  0.00    -0.025 A 
ATOM     12  C   LIG    1        0.119   0.836   1.938  0.00  0.00    +0.008 A 
ATOM     13  C   LIG    1        1.252   0.551   2.669  0.00  0.00    +0.001 A 
ATOM     14  C   LIG    1        2.095   1.573   3.072  0.00  0.00    +0.000 A 
ATOM     15  C   LIG    1        1.807   2.887   2.745  0.00  0.00    +0.001 A 
ATOM     16  C   LIG    1        0.678   3.188   2.014  0.00  0.00    +0.008 A 
ENDBRANCH  10  11
ENDBRANCH   1   9
BRANCH   5  17
ATOM     17  N   LIG    1       -1.020   9.485   1.050  0.00  0.00    -0.296 N 
ATOM     18  H   LIG    1       -2.036   9.627   1.447  0.00  0.00    +0.154 HD
BRANCH  17  19
ATOM     19  C   LIG    1       -0.152  10.576   0.946  0.00  0.00    +0.034 A 
ATOM     20  C   LIG    1       -0.659  11.849   0.714  0.00  0.00    +0.023 A 
ATOM     21  C   LIG    1        0.200  12.925   0.612  0.00  0.00    +0.003 A 
ATOM     22  C   LIG    1        1.564  12.738   0.741  0.00  0.00    +0.020 A 
ATOM     23  C   LIG    1        2.073  11.472   0.972  0.00  0.00    +0.043 A 
ATOM     24 CL   LIG    1        3.786  11.241   1.133  0.00  0.00    -0.083 Cl
ATOM     25  C   LIG    1        1.218  10.391   1.080  0.00  0.00    +0.043 A 
ENDBRANCH  17  19
ENDBRANCH   5  17
TORSDOF 4
