REMARK  Name = ZINC40423900
REMARK                            x       y       z     vdW  Elec       q    Type
REMARK                         _______ _______ _______ _____ _____    ______ ____
ROOT
ATOM      1  C   LIG    1        5.174  -3.445  -0.064  0.00  0.00    +0.138 C 
ENDROOT
BRANCH   1   9
ATOM      2  C   LIG    1       -0.017   1.377   0.010  0.00  0.00    +0.000 A 
ATOM      3  C   LIG    1        1.172   2.084   0.002  0.00  0.00    +0.000 A 
ATOM      4  C   LIG    1        2.376   1.408  -0.013  0.00  0.00    +0.005 A 
ATOM      5  C   LIG    1        2.396   0.024  -0.021  0.00  0.00    -0.025 A 
ATOM      6  C   LIG    1        1.209  -0.682  -0.013  0.00  0.00    -0.025 A 
ATOM      7  C   LIG    1        1.519  -2.158  -0.023  0.00  0.00    +0.143 C 
ATOM      8  N   LIG    1        2.978  -2.306  -0.037  0.00  0.00    -0.292 N 
ATOM      9  C   LIG    1        3.667  -3.465  -0.050  0.00  0.00    +0.233 C 
ATOM     10  O   LIG    1        3.074  -4.523  -0.050  0.00  0.00    -0.274 OA
ATOM     11  C   LIG    1        3.544  -0.953  -0.036  0.00  0.00    +0.143 C 
ATOM     12  C   LIG    1        0.002  -0.004   0.002  0.00  0.00    +0.005 A 
ENDBRANCH   1   9
BRANCH   1  13
ATOM     13  N   LIG    1        5.685  -4.742   0.399  0.00  0.00    -0.320 NA
ATOM     14  H   LIG    1        6.692  -4.734   0.460  0.00  0.00    +0.119 HD
ATOM     15  H   LIG    1        5.365  -5.490  -0.199  0.00  0.00    +0.119 HD
ENDBRANCH   1  13
BRANCH   1  16
ATOM     16  C   LIG    1        5.667  -3.180  -1.488  0.00  0.00    +0.028 C 
BRANCH  16  17
ATOM     17  C   LIG    1        7.191  -3.037  -1.481  0.00  0.00    +0.000 C 
BRANCH  17  18
ATOM     18  C   LIG    1        7.684  -2.772  -2.905  0.00  0.00    -0.019 C 
BRANCH  18  19
ATOM     19  C   LIG    1        9.207  -2.628  -2.898  0.00  0.00    -0.086 C 
BRANCH  19  20
ATOM     20  N   LIG    1        9.681  -2.374  -4.265  0.00  0.00    +0.378 N 
ATOM     21  H   LIG    1       10.686  -2.280  -4.260  0.00  0.00    -0.090 HD
ATOM     22  H   LIG    1        9.265  -1.524  -4.613  0.00  0.00    -0.090 HD
ATOM     23  H   LIG    1        9.419  -3.146  -4.861  0.00  0.00    -0.090 HD
ENDBRANCH  19  20
ENDBRANCH  18  19
ENDBRANCH  17  18
ENDBRANCH  16  17
ENDBRANCH   1  16
TORSDOF 7
