REMARK  Name = ZINC43197966
REMARK                            x       y       z     vdW  Elec       q    Type
REMARK                         _______ _______ _______ _____ _____    ______ ____
ROOT
ATOM      1  N   LIG    1       -5.331  -1.762   0.152  0.00  0.00    -0.312 N 
ATOM      2  C   LIG    1       -6.381  -0.909   0.725  0.00  0.00    +0.125 C 
ATOM      3  C   LIG    1       -7.487  -0.722  -0.322  0.00  0.00    +0.125 C 
ATOM      4  N   LIG    1       -7.858  -2.041  -0.853  0.00  0.00    -0.310 N 
ATOM      5  C   LIG    1       -6.808  -2.895  -1.426  0.00  0.00    +0.125 C 
ATOM      6  C   LIG    1       -5.704  -3.079  -0.385  0.00  0.00    +0.125 C 
ENDROOT
BRANCH   4   7
ATOM      7  C   LIG    1       -9.174  -2.472  -0.814  0.00  0.00    +0.152 A 
ATOM      8  C   LIG    1      -10.047  -2.219  -1.897  0.00  0.00    +0.026 A 
ATOM      9  C   LIG    1       -9.646  -1.533  -3.049  0.00  0.00    +0.012 A 
ATOM     10  C   LIG    1      -10.546  -1.327  -4.052  0.00  0.00    +0.001 A 
ATOM     11  C   LIG    1      -11.856  -1.788  -3.949  0.00  0.00    +0.001 A 
ATOM     12  C   LIG    1      -12.280  -2.458  -2.840  0.00  0.00    +0.010 A 
ATOM     13  C   LIG    1      -11.382  -2.688  -1.790  0.00  0.00    +0.009 A 
ATOM     14  C   LIG    1      -11.743  -3.373  -0.615  0.00  0.00    +0.076 A 
ATOM     15  N   LIG    1      -10.843  -3.549   0.324  0.00  0.00    -0.152 NA
ATOM     16  N   LIG    1       -9.635  -3.132   0.233  0.00  0.00    -0.133 NA
BRANCH  14  17
ATOM     17  C   LIG    1      -13.145  -3.898  -0.437  0.00  0.00    +0.093 C 
BRANCH  17  18
ATOM     18  C   LIG    1      -13.227  -5.303  -0.977  0.00  0.00    -0.042 A 
ATOM     19  C   LIG    1      -13.558  -5.516  -2.302  0.00  0.00    +0.004 A 
ATOM     20  C   LIG    1      -13.634  -6.804  -2.796  0.00  0.00    +0.000 A 
ATOM     21  C   LIG    1      -13.379  -7.880  -1.966  0.00  0.00    +0.000 A 
ATOM     22  C   LIG    1      -13.048  -7.666  -0.641  0.00  0.00    +0.000 A 
ATOM     23  C   LIG    1      -12.967  -6.378  -0.147  0.00  0.00    +0.004 A 
ENDBRANCH  17  18
ENDBRANCH  14  17
ENDBRANCH   4   7
BRANCH   1  27
ATOM     24  C   LIG    1       -1.435  -0.452   0.044  0.00  0.00    +0.002 A 
ATOM     25  C   LIG    1       -1.693  -1.781  -0.265  0.00  0.00    +0.011 A 
ATOM     26  C   LIG    1       -3.002  -2.225  -0.230  0.00  0.00    +0.044 A 
ATOM     27  C   LIG    1       -4.011  -1.330   0.113  0.00  0.00    +0.121 A 
ATOM     28  N   LIG    1       -3.724  -0.070   0.401  0.00  0.00    -0.240 NA
ATOM     29  C   LIG    1       -2.484   0.380   0.380  0.00  0.00    +0.119 A 
BRANCH  24  31
ATOM     30  C   LIG    1       -0.041   1.562  -0.344  0.00  0.00    +0.046 C 
ATOM     31  C   LIG    1       -0.023   0.075   0.018  0.00  0.00    +0.087 C 
ATOM     32  C   LIG    1        0.614  -0.106   1.397  0.00  0.00    +0.046 C 
BRANCH  31  33
ATOM     33  O   LIG    1        0.736  -0.644  -0.956  0.00  0.00    -0.384 OA
ATOM     34  H   LIG    1        0.790  -1.595  -0.789  0.00  0.00    +0.211 HD
ENDBRANCH  31  33
ENDBRANCH  24  31
ENDBRANCH   1  27
TORSDOF 6
