REMARK  Name = ZINC49823270
REMARK                            x       y       z     vdW  Elec       q    Type
REMARK                         _______ _______ _______ _____ _____    ______ ____
ROOT
ATOM      1  C   LIG    1        3.941 -10.907   7.856  0.00  0.00    +0.101 A 
ATOM      2  C   LIG    1        3.971 -12.317   7.842  0.00  0.00    +0.138 A 
ATOM      3  C   LIG    1        5.103 -12.994   8.263  0.00  0.00    +0.045 A 
ATOM      4  C   LIG    1        6.215 -12.296   8.702  0.00  0.00    +0.138 A 
ATOM      5  C   LIG    1        6.206 -10.887   8.724  0.00  0.00    +0.101 A 
ATOM      6  C   LIG    1        5.065 -10.191   8.294  0.00  0.00    +0.145 A 
ENDROOT
BRANCH   3   7
ATOM      7  C   LIG    1        5.124 -14.500   8.244  0.00  0.00    +0.064 C 
ATOM      8  C   LIG    1        5.839 -14.984   6.980  0.00  0.00    +0.062 C 
ATOM      9  C   LIG    1        7.338 -14.698   7.135  0.00  0.00    +0.204 C 
ATOM     10  O   LIG    1        7.838 -15.491   8.214  0.00  0.00    -0.484 OA
ATOM     11  C   LIG    1        7.154 -15.468   9.388  0.00  0.00    +0.129 A 
ATOM     12  C   LIG    1        7.793 -15.923  10.535  0.00  0.00    +0.091 A 
ATOM     13  C   LIG    1        7.132 -15.919  11.749  0.00  0.00    +0.120 A 
ATOM     14  C   LIG    1        5.825 -15.459  11.820  0.00  0.00    +0.046 A 
ATOM     15  C   LIG    1        5.191 -15.006  10.681  0.00  0.00    +0.011 A 
ATOM     16  C   LIG    1        5.851 -15.007   9.464  0.00  0.00    +0.002 A 
BRANCH   9  17
ATOM     17  C   LIG    1        8.058 -15.061   5.862  0.00  0.00    -0.007 A 
ATOM     18  C   LIG    1        8.370 -16.382   5.597  0.00  0.00    +0.011 A 
ATOM     19  C   LIG    1        9.030 -16.716   4.431  0.00  0.00    +0.046 A 
ATOM     20  C   LIG    1        9.381 -15.726   3.526  0.00  0.00    +0.117 A 
ATOM     21  C   LIG    1        9.068 -14.401   3.793  0.00  0.00    +0.046 A 
ATOM     22  C   LIG    1        8.402 -14.072   4.959  0.00  0.00    +0.011 A 
BRANCH  20  23
ATOM     23  O   LIG    1       10.032 -16.052   2.378  0.00  0.00    -0.507 OA
ATOM     24  H   LIG    1        9.444 -16.248   1.635  0.00  0.00    +0.292 HD
ENDBRANCH  20  23
ENDBRANCH   9  17
BRANCH  13  25
ATOM     25  O   LIG    1        7.760 -16.363  12.869  0.00  0.00    -0.507 OA
ATOM     26  H   LIG    1        7.646 -17.309  13.034  0.00  0.00    +0.292 HD
ENDBRANCH  13  25
ENDBRANCH   3   7
BRANCH   6  27
ATOM     27  O   LIG    1        5.048  -8.838   8.306  0.00  0.00    -0.505 OA
ATOM     28  H   LIG    1        4.729  -8.456   9.135  0.00  0.00    +0.292 HD
ENDBRANCH   6  27
BRANCH   5  29
ATOM     29  C   LIG    1        7.381 -10.153   9.189  0.00  0.00    +0.170 C 
ATOM     30  O   LIG    1        8.368 -10.757   9.556  0.00  0.00    -0.292 OA
BRANCH  29  31
ATOM     31  C   LIG    1        7.368  -8.646   9.212  0.00  0.00    +0.080 C 
BRANCH  31  32
ATOM     32  C   LIG    1        8.711  -8.132   9.736  0.00  0.00    +0.008 C 
BRANCH  32  33
ATOM     33  C   LIG    1        8.697  -6.602   9.759  0.00  0.00    +0.000 C 
BRANCH  33  34
ATOM     34  C   LIG    1       10.040  -6.088  10.284  0.00  0.00    +0.000 C 
BRANCH  34  35
ATOM     35  C   LIG    1       10.026  -4.559  10.307  0.00  0.00    +0.000 C 
BRANCH  35  36
ATOM     36  C   LIG    1       11.369  -4.045  10.831  0.00  0.00    +0.000 C 
BRANCH  36  37
ATOM     37  C   LIG    1       11.355  -2.515  10.855  0.00  0.00    -0.000 C 
BRANCH  37  38
ATOM     38  C   LIG    1       12.698  -2.001  11.379  0.00  0.00    -0.000 C 
BRANCH  38  39
ATOM     39  C   LIG    1       12.684  -0.472  11.402  0.00  0.00    -0.000 C 
BRANCH  39  40
ATOM     40  C   LIG    1       14.027   0.042  11.927  0.00  0.00    -0.003 C 
ATOM     41  C   LIG    1       14.013   1.572  11.950  0.00  0.00    +0.004 C 
ENDBRANCH  39  40
ENDBRANCH  38  39
ENDBRANCH  37  38
ENDBRANCH  36  37
ENDBRANCH  35  36
ENDBRANCH  34  35
ENDBRANCH  33  34
ENDBRANCH  32  33
ENDBRANCH  31  32
ENDBRANCH  29  31
ENDBRANCH   5  29
BRANCH   4  42
ATOM     42  O   LIG    1        7.316 -12.970   9.111  0.00  0.00    -0.506 OA
ATOM     43  H   LIG    1        7.324 -13.907   9.097  0.00  0.00    +0.292 HD
ENDBRANCH   4  42
BRANCH   2  44
ATOM     44  O   LIG    1        2.889 -13.010   7.415  0.00  0.00    -0.506 OA
ATOM     45  H   LIG    1        2.891 -13.197   6.467  0.00  0.00    +0.292 HD
ENDBRANCH   2  44
BRANCH   1  46
ATOM     46  C   LIG    1        2.745 -10.195   7.410  0.00  0.00    +0.170 C 
ATOM     47  O   LIG    1        1.774 -10.817   7.032  0.00  0.00    -0.292 OA
BRANCH  46  48
ATOM     48  C   LIG    1        2.718  -8.688   7.421  0.00  0.00    +0.080 C 
BRANCH  48  49
ATOM     49  C   LIG    1        1.361  -8.199   6.911  0.00  0.00    +0.008 C 
BRANCH  49  50
ATOM     50  C   LIG    1        1.333  -6.669   6.921  0.00  0.00    +0.000 C 
BRANCH  50  51
ATOM     51  C   LIG    1       -0.024  -6.180   6.411  0.00  0.00    +0.000 C 
BRANCH  51  52
ATOM     52  C   LIG    1       -0.051  -4.650   6.421  0.00  0.00    +0.000 C 
BRANCH  52  53
ATOM     53  C   LIG    1       -1.408  -4.161   5.912  0.00  0.00    +0.000 C 
BRANCH  53  54
ATOM     54  C   LIG    1       -1.436  -2.632   5.922  0.00  0.00    -0.000 C 
BRANCH  54  55
ATOM     55  C   LIG    1       -2.793  -2.143   5.412  0.00  0.00    -0.000 C 
BRANCH  55  56
ATOM     56  C   LIG    1       -2.821  -0.613   5.422  0.00  0.00    -0.000 C 
BRANCH  56  58
ATOM     57  C   LIG    1       -4.205   1.406   4.923  0.00  0.00    +0.004 C 
ATOM     58  C   LIG    1       -4.178  -0.124   4.912  0.00  0.00    -0.003 C 
ENDBRANCH  56  58
ENDBRANCH  55  56
ENDBRANCH  54  55
ENDBRANCH  53  54
ENDBRANCH  52  53
ENDBRANCH  51  52
ENDBRANCH  50  51
ENDBRANCH  49  50
ENDBRANCH  48  49
ENDBRANCH  46  48
ENDBRANCH   1  46
TORSDOF 29
