REMARK  Name = ZINC26504557
REMARK                            x       y       z     vdW  Elec       q    Type
REMARK                         _______ _______ _______ _____ _____    ______ ____
ROOT
ATOM      1  C   LIG    1       -3.023   4.719  -0.660  0.00  0.00    +0.185 C 
ATOM      2  C   LIG    1       -4.065   4.009   0.202  0.00  0.00    +0.052 C 
ATOM      3  C   LIG    1       -4.127   2.537  -0.229  0.00  0.00    +0.012 C 
ATOM      4  C   LIG    1       -4.463   2.446  -1.719  0.00  0.00    +0.012 C 
ATOM      5  C   LIG    1       -2.772   1.929   0.027  0.00  0.00    -0.020 C 
ATOM      6  C   LIG    1       -1.681   2.652  -0.093  0.00  0.00    -0.044 C 
ATOM      7  C   LIG    1       -0.377   2.034   0.240  0.00  0.00    -0.000 C 
ATOM      8  C   LIG    1        0.686   2.801   0.412  0.00  0.00    -0.023 C 
ATOM      9  C   LIG    1        0.677   4.293   0.281  0.00  0.00    +0.012 C 
ATOM     10  C   LIG    1        1.550   4.896   1.383  0.00  0.00    +0.012 C 
ATOM     11  C   LIG    1       -0.738   4.864   0.398  0.00  0.00    +0.007 C 
ATOM     12  C   LIG    1       -1.660   4.082  -0.539  0.00  0.00    +0.063 C 
ENDROOT
BRANCH   1  13
ATOM     13  O   LIG    1       -3.446   4.670  -2.048  0.00  0.00    -0.460 OA
BRANCH  13  14
ATOM     14  C   LIG    1       -4.252   5.655  -2.475  0.00  0.00    +0.313 C 
ATOM     15  O   LIG    1       -4.593   6.529  -1.713  0.00  0.00    -0.250 OA
BRANCH  14  16
ATOM     16  C   LIG    1       -4.732   5.670  -3.903  0.00  0.00    +0.062 C 
ATOM     17  C   LIG    1       -5.525   4.393  -4.188  0.00  0.00    +0.022 C 
ATOM     18  C   LIG    1       -3.529   5.744  -4.845  0.00  0.00    +0.022 C 
BRANCH  16  20
ATOM     19  C   LIG    1       -6.117   6.904  -5.577  0.00  0.00    +0.005 C 
ATOM     20  C   LIG    1       -5.630   6.889  -4.126  0.00  0.00    +0.014 C 
ENDBRANCH  16  20
ENDBRANCH  14  16
ENDBRANCH  13  14
ENDBRANCH   1  13
BRANCH  11  21
ATOM     21  C   LIG    1       -1.229   4.727   1.840  0.00  0.00    +0.008 C 
BRANCH  21  22
ATOM     22  C   LIG    1       -0.912   3.321   2.355  0.00  0.00    +0.045 C 
BRANCH  22  23
ATOM     23  C   LIG    1       -1.269   3.230   3.840  0.00  0.00    +0.179 C 
ATOM     24  C   LIG    1       -1.063   1.793   4.328  0.00  0.00    +0.076 C 
ATOM     25  C   LIG    1       -1.370   1.717   5.827  0.00  0.00    +0.129 C 
ATOM     26  C   LIG    1       -0.424   2.662   6.578  0.00  0.00    +0.152 C 
ATOM     27  C   LIG    1       -0.517   4.033   5.945  0.00  0.00    +0.310 C 
ATOM     28  O   LIG    1       -0.685   5.020   6.621  0.00  0.00    -0.251 OA
ATOM     29  O   LIG    1       -0.408   4.122   4.603  0.00  0.00    -0.461 OA
BRANCH  25  30
ATOM     30  O   LIG    1       -1.174   0.379   6.288  0.00  0.00    -0.391 OA
ATOM     31  H   LIG    1       -1.347   0.130   7.345  0.00  0.00    +0.210 HD
ENDBRANCH  25  30
ENDBRANCH  22  23
ENDBRANCH  21  22
ENDBRANCH  11  21
TORSDOF 8
