REMARK  Name = ZINC20745549
REMARK                            x       y       z     vdW  Elec       q    Type
REMARK                         _______ _______ _______ _____ _____    ______ ____
ROOT
ATOM      1  C   LIG    1       -3.904   1.165   7.254  0.00  0.00    +0.001 A 
ATOM      2  C   LIG    1       -3.479   2.390   7.751  0.00  0.00    +0.002 A 
ATOM      3  C   LIG    1       -2.474   3.094   7.127  0.00  0.00    +0.030 A 
ATOM      4  C   LIG    1       -1.871   2.571   5.980  0.00  0.00    +0.100 A 
ATOM      5  C   LIG    1       -2.305   1.325   5.478  0.00  0.00    +0.068 A 
ATOM      6  C   LIG    1       -1.655   0.796   4.269  0.00  0.00    +0.278 A 
ATOM      7  N   LIG    1       -0.675   1.545   3.712  0.00  0.00    -0.210 N 
ATOM      8  N   LIG    1       -0.312   2.765   4.288  0.00  0.00    -0.062 NA
ATOM      9  O   LIG    1       -1.986  -0.273   3.788  0.00  0.00    -0.265 OA
ATOM     10  N   LIG    1       -0.877   3.236   5.339  0.00  0.00    -0.131 NA
ATOM     11  C   LIG    1       -3.325   0.628   6.125  0.00  0.00    +0.015 A 
ENDROOT
BRANCH   7  12
ATOM     12  C   LIG    1        0.011   1.072   2.506  0.00  0.00    +0.151 C 
BRANCH  12  13
ATOM     13  C   LIG    1       -0.729   1.579   1.267  0.00  0.00    +0.045 C 
BRANCH  13  14
ATOM     14  C   LIG    1       -0.013   1.086   0.008  0.00  0.00    +0.124 C 
BRANCH  14  15
ATOM     15  N   LIG    1       -0.721   1.571  -1.179  0.00  0.00    -0.338 N 
ATOM     16  C   LIG    1       -1.734   0.929  -1.839  0.00  0.00    +0.104 A 
ATOM     17  C   LIG    1       -2.096   1.724  -2.864  0.00  0.00    +0.101 A 
ATOM     18  N   LIG    1       -1.319   2.817  -2.836  0.00  0.00    -0.352 N 
ATOM     19  H   LIG    1       -1.446   3.602  -3.596  0.00  0.00    +0.166 HD
ATOM     20  C   LIG    1       -0.493   2.732  -1.829  0.00  0.00    +0.173 A 
ENDBRANCH  14  15
ENDBRANCH  13  14
ENDBRANCH  12  13
ENDBRANCH   7  12
TORSDOF 4
