REMARK  Name = ZINC26819872
REMARK                            x       y       z     vdW  Elec       q    Type
REMARK                         _______ _______ _______ _____ _____    ______ ____
ROOT
ATOM      1  C   LIG    1       -0.013   1.086   0.008  0.00  0.00    +0.177 C 
ATOM      2  C   LIG    1       -0.729   1.579   1.267  0.00  0.00    +0.192 C 
ATOM      3  C   LIG    1        0.011   1.072   2.506  0.00  0.00    +0.178 C 
ATOM      4  C   LIG    1        1.446   1.602   2.495  0.00  0.00    +0.193 C 
ATOM      5  C   LIG    1        2.163   1.109   1.237  0.00  0.00    +0.193 C 
ATOM      6  C   LIG    1        1.423   1.615  -0.003  0.00  0.00    +0.177 C 
ENDROOT
BRANCH   1   7
ATOM      7  O   LIG    1       -0.704   1.559  -1.150  0.00  0.00    -0.386 OA
ATOM      8  H   LIG    1       -0.304   1.284  -1.986  0.00  0.00    +0.210 HD
ENDBRANCH   1   7
BRANCH   3   9
ATOM      9  O   LIG    1        0.030  -0.356   2.498  0.00  0.00    -0.386 OA
ATOM     10  H   LIG    1       -0.847  -0.762   2.505  0.00  0.00    +0.210 HD
ENDBRANCH   3   9
BRANCH   6  11
ATOM     11  O   LIG    1        2.091   1.155  -1.179  0.00  0.00    -0.386 OA
ATOM     12  H   LIG    1        1.676   1.439  -2.004  0.00  0.00    +0.210 HD
ENDBRANCH   6  11
BRANCH   2  13
ATOM     13  O   LIG    1       -2.070   1.085   1.277  0.00  0.00    -0.278 OA
BRANCH  13  14
ATOM     14  P   LIG    1       -3.359   2.048   1.294  0.00  0.00    +0.473 P 
ATOM     15  O   LIG    1       -3.259   3.033   2.509  0.00  0.00    -0.228 OA
BRANCH  14  16
ATOM     16  O   LIG    1       -4.657   1.181   1.431  0.00  0.00    -0.303 OA
ATOM     17  H   LIG    1       -4.621   0.673   2.257  0.00  0.00    +0.222 HD
ENDBRANCH  14  16
BRANCH  14  18
ATOM     18  O   LIG    1       -3.417   2.868  -0.039  0.00  0.00    -0.303 OA
ATOM     19  H   LIG    1       -2.614   3.405  -0.124  0.00  0.00    +0.222 HD
ENDBRANCH  14  18
ENDBRANCH  13  14
ENDBRANCH   2  13
BRANCH   4  20
ATOM     20  O   LIG    1        2.138   1.129   3.653  0.00  0.00    -0.278 OA
BRANCH  20  21
ATOM     21  P   LIG    1        2.773   2.112   4.758  0.00  0.00    +0.473 P 
ATOM     22  O   LIG    1        3.750   3.119   4.061  0.00  0.00    -0.228 OA
BRANCH  21  23
ATOM     23  O   LIG    1        3.562   1.268   5.817  0.00  0.00    -0.303 OA
ATOM     24  H   LIG    1        4.271   0.776   5.375  0.00  0.00    +0.222 HD
ENDBRANCH  21  23
BRANCH  21  25
ATOM     25  O   LIG    1        1.627   2.906   5.472  0.00  0.00    -0.303 OA
ATOM     26  H   LIG    1        1.139   3.428   4.817  0.00  0.00    +0.222 HD
ENDBRANCH  21  25
ENDBRANCH  20  21
ENDBRANCH   4  20
BRANCH   5  27
ATOM     27  O   LIG    1        2.182  -0.320   1.229  0.00  0.00    -0.278 OA
BRANCH  27  28
ATOM     28  P   LIG    1        3.544  -1.179   1.211  0.00  0.00    +0.473 P 
ATOM     29  O   LIG    1        4.436  -0.753   2.398  0.00  0.00    -0.228 OA
BRANCH  28  30
ATOM     30  O   LIG    1        4.295  -0.925  -0.115  0.00  0.00    -0.303 OA
ATOM     31  H   LIG    1        4.507   0.018  -0.191  0.00  0.00    +0.222 HD
ENDBRANCH  28  30
BRANCH  28  32
ATOM     32  O   LIG    1        3.193  -2.745   1.338  0.00  0.00    -0.303 OA
ATOM     33  H   LIG    1        3.968  -3.323   1.335  0.00  0.00    +0.222 HD
ENDBRANCH  28  32
ENDBRANCH  27  28
ENDBRANCH   5  27
TORSDOF 15
