REMARK  Name = ZINC21658954
REMARK                            x       y       z     vdW  Elec       q    Type
REMARK                         _______ _______ _______ _____ _____    ______ ____
ROOT
ATOM      1  C   LIG    1        1.707  -1.002  -1.661  0.00  0.00    +0.154 C 
ATOM      2  N   LIG    1        2.765  -0.048  -1.321  0.00  0.00    -0.294 N 
ATOM      3  C   LIG    1        2.497   1.100  -0.559  0.00  0.00    +0.082 A 
ATOM      4  C   LIG    1        3.614   2.028  -0.248  0.00  0.00    +0.089 A 
ATOM      5  C   LIG    1        4.959   1.723  -0.746  0.00  0.00    +0.266 A 
ATOM      6  N   LIG    1        5.067   0.578  -1.469  0.00  0.00    -0.263 N 
ATOM      7  C   LIG    1        6.385   0.216  -1.995  0.00  0.00    +0.157 C 
ATOM      8  O   LIG    1        5.912   2.446  -0.526  0.00  0.00    -0.267 OA
ATOM      9  C   LIG    1        3.078   3.045   0.504  0.00  0.00    +0.069 A 
ATOM     10  N   LIG    1        1.753   2.783   0.662  0.00  0.00    -0.306 N 
ATOM     11  C   LIG    1        0.800   3.510   1.390  0.00  0.00    +0.068 A 
ATOM     12  C   LIG    1        1.070   4.777   1.870  0.00  0.00    +0.028 A 
ATOM     13  C   LIG    1        0.095   5.469   2.569  0.00  0.00    +0.002 A 
ATOM     14  C   LIG    1       -1.144   4.894   2.784  0.00  0.00    +0.002 A 
ATOM     15  C   LIG    1       -1.418   3.624   2.313  0.00  0.00    +0.025 A 
ATOM     16  C   LIG    1       -0.446   2.919   1.620  0.00  0.00    +0.052 A 
ATOM     17  N   LIG    1       -0.701   1.621   1.163  0.00  0.00    -0.330 N 
ATOM     18  H   LIG    1       -1.417   0.984   1.702  0.00  0.00    +0.147 HD
ATOM     19  C   LIG    1       -0.015   1.108  -0.033  0.00  0.00    +0.150 C 
ATOM     20  C   LIG    1        1.410   1.615  -0.005  0.00  0.00    +0.073 A 
ATOM     21  C   LIG    1        4.040  -0.237  -1.728  0.00  0.00    +0.332 A 
ATOM     22  O   LIG    1        4.272  -1.233  -2.385  0.00  0.00    -0.246 OA
ENDROOT
BRANCH   9  23
ATOM     23  C   LIG    1        3.808   4.209   1.042  0.00  0.00    -0.000 A 
ATOM     24  C   LIG    1        4.493   5.068   0.179  0.00  0.00    +0.010 A 
ATOM     25  C   LIG    1        5.168   6.158   0.688  0.00  0.00    +0.001 A 
ATOM     26  C   LIG    1        5.178   6.394   2.052  0.00  0.00    +0.000 A 
ATOM     27  C   LIG    1        4.506   5.544   2.913  0.00  0.00    +0.001 A 
ATOM     28  C   LIG    1        3.822   4.454   2.417  0.00  0.00    +0.010 A 
ENDBRANCH   9  23
BRANCH  19  29
ATOM     29  C   LIG    1       -0.710   1.607  -1.273  0.00  0.00    -0.018 A 
ATOM     30  C   LIG    1       -1.195   2.902  -1.321  0.00  0.00    +0.006 A 
ATOM     31  C   LIG    1       -1.833   3.363  -2.457  0.00  0.00    +0.004 A 
ATOM     32  C   LIG    1       -1.988   2.530  -3.549  0.00  0.00    +0.045 A 
ATOM     33  C   LIG    1       -1.502   1.232  -3.505  0.00  0.00    +0.120 A 
ATOM     34  C   LIG    1       -0.858   0.773  -2.365  0.00  0.00    +0.051 A 
BRANCH  33  35
ATOM     35  O   LIG    1       -1.653   0.411  -4.577  0.00  0.00    -0.495 OA
ATOM     36  C   LIG    1       -2.323   0.952  -5.718  0.00  0.00    +0.277 C 
ENDBRANCH  33  35
ENDBRANCH  19  29
TORSDOF 3
