REMARK  Name = ZINC20029233
REMARK                            x       y       z     vdW  Elec       q    Type
REMARK                         _______ _______ _______ _____ _____    ______ ____
ROOT
ATOM      1  P   LIG    1        5.762  -1.853   1.378  0.00  0.00    +0.203 P 
ATOM      2  O   LIG    1        6.785  -1.059   0.535  0.00  0.00    -0.291 OA
ENDROOT
BRANCH   1   3
ATOM      3  O   LIG    1        5.561  -3.254   0.757  0.00  0.00    -0.344 OA
ATOM      4  H   LIG    1        5.230  -3.161  -0.150  0.00  0.00    +0.218 HD
ENDBRANCH   1   3
BRANCH   1   5
ATOM      5  C   LIG    1        4.171  -0.963   1.399  0.00  0.00    +0.102 C 
BRANCH   5   6
ATOM      6  C   LIG    1        3.711  -0.707  -0.038  0.00  0.00    +0.045 C 
BRANCH   6  10
ATOM      7  C   LIG    1       -0.017   1.378   0.010  0.00  0.00    +0.000 A 
ATOM      8  C   LIG    1        1.171   2.086   0.002  0.00  0.00    +0.000 A 
ATOM      9  C   LIG    1        2.377   1.411  -0.013  0.00  0.00    +0.003 A 
ATOM     10  C   LIG    1        2.396   0.029  -0.020  0.00  0.00    -0.047 A 
ATOM     11  C   LIG    1        1.208  -0.679  -0.012  0.00  0.00    +0.003 A 
ATOM     12  C   LIG    1        0.002  -0.004   0.002  0.00  0.00    +0.000 A 
ENDBRANCH   6  10
ENDBRANCH   5   6
ENDBRANCH   1   5
BRANCH   1  13
ATOM     13  C   LIG    1        6.384  -2.028   3.083  0.00  0.00    +0.095 C 
BRANCH  13  14
ATOM     14  C   LIG    1        7.775  -2.663   3.056  0.00  0.00    -0.010 C 
BRANCH  14  15
ATOM     15  C   LIG    1        8.297  -2.809   4.487  0.00  0.00    -0.086 C 
BRANCH  15  16
ATOM     16  N   LIG    1        9.633  -3.418   4.461  0.00  0.00    +0.378 N 
ATOM     17  H   LIG    1        9.977  -3.515   5.405  0.00  0.00    -0.090 HD
ATOM     18  H   LIG    1       10.261  -2.831   3.933  0.00  0.00    -0.090 HD
ATOM     19  H   LIG    1        9.580  -4.328   4.028  0.00  0.00    -0.090 HD
ENDBRANCH  15  16
ENDBRANCH  14  15
ENDBRANCH  13  14
ENDBRANCH   1  13
TORSDOF 8
