REMARK  Name = ZINC28016618
REMARK                            x       y       z     vdW  Elec       q    Type
REMARK                         _______ _______ _______ _____ _____    ______ ____
ROOT
ATOM      1  C   LIG    1        2.479   4.899   1.190  0.00  0.00    +0.091 C 
ATOM      2  C   LIG    1        2.088   6.372   1.385  0.00  0.00    -0.057 C 
ATOM      3  C   LIG    1        0.545   6.451   1.427  0.00  0.00    -0.017 C 
ATOM      4  C   LIG    1        0.117   6.621  -0.045  0.00  0.00    -0.017 C 
ATOM      5  C   LIG    1        1.440   6.630  -0.844  0.00  0.00    -0.071 C 
ATOM      6  C   LIG    1        1.784   5.174  -1.200  0.00  0.00    -0.007 C 
ATOM      7  N   LIG    1        2.457   7.094   0.138  0.00  0.00    +0.383 N 
ATOM      8  H   LIG    1        3.480   6.819  -0.157  0.00  0.00    -0.085 HD
ATOM      9  H   LIG    1        2.405   8.179   0.313  0.00  0.00    -0.085 HD
ATOM     10  C   LIG    1        1.637   4.309   0.054  0.00  0.00    +0.030 C 
ENDROOT
BRANCH  10  11
ATOM     11  C   LIG    1        0.190   4.270   0.471  0.00  0.00    -0.044 A 
ATOM     12  C   LIG    1       -0.142   4.120   1.804  0.00  0.00    +0.005 A 
ATOM     13  C   LIG    1       -1.470   4.085   2.187  0.00  0.00    +0.014 A 
ATOM     14  C   LIG    1       -2.467   4.195   1.234  0.00  0.00    +0.013 A 
ATOM     15  I   LIG    1       -4.479   4.133   1.812  0.00  0.00    -0.044 I 
ATOM     16  C   LIG    1       -2.134   4.350  -0.099  0.00  0.00    +0.014 A 
ATOM     17  C   LIG    1       -0.806   4.386  -0.481  0.00  0.00    +0.005 A 
ENDBRANCH  10  11
BRANCH   1  18
ATOM     18  C   LIG    1        2.216   4.135   2.462  0.00  0.00    +0.309 C 
ATOM     19  O   LIG    1        2.115   2.931   2.434  0.00  0.00    -0.251 OA
BRANCH  18  21
ATOM     20  C   LIG    1        1.840   3.991   4.811  0.00  0.00    +0.280 C 
ATOM     21  O   LIG    1        2.093   4.791   3.626  0.00  0.00    -0.468 OA
ENDBRANCH  18  21
ENDBRANCH   1  18
TORSDOF 3
