REMARK  Name = ZINC16052883
REMARK                            x       y       z     vdW  Elec       q    Type
REMARK                         _______ _______ _______ _____ _____    ______ ____
ROOT
ATOM      1  C   LIG    1       -2.482  -0.411   0.903  0.00  0.00    +0.131 A 
ATOM      2  C   LIG    1       -1.246  -1.044   0.807  0.00  0.00    +0.048 A 
ATOM      3  C   LIG    1       -1.168  -2.373   0.457  0.00  0.00    +0.033 A 
ATOM      4  C   LIG    1       -2.337  -3.093   0.196  0.00  0.00    +0.091 A 
ATOM      5  C   LIG    1       -3.583  -2.452   0.294  0.00  0.00    +0.071 A 
ATOM      6  N   LIG    1       -4.534  -3.409  -0.017  0.00  0.00    -0.326 N 
ATOM      7  C   LIG    1       -3.867  -4.570  -0.288  0.00  0.00    +0.198 A 
ATOM      8  H   LIG    1       -5.525  -3.275  -0.040  0.00  0.00    +0.169 HD
ATOM      9  N   LIG    1       -2.578  -4.383  -0.162  0.00  0.00    -0.214 NA
ATOM     10  C   LIG    1       -3.648  -1.114   0.652  0.00  0.00    +0.074 A 
ENDROOT
BRANCH   7  11
ATOM     11  N   LIG    1       -4.465  -5.764  -0.641  0.00  0.00    -0.285 N 
ATOM     12  H   LIG    1       -3.922  -6.557  -0.775  0.00  0.00    +0.155 HD
BRANCH  11  13
ATOM     13  C   LIG    1       -5.852  -5.830  -0.808  0.00  0.00    +0.034 A 
ATOM     14  C   LIG    1       -6.539  -4.753  -1.352  0.00  0.00    +0.025 A 
ATOM     15  C   LIG    1       -7.909  -4.821  -1.515  0.00  0.00    +0.022 A 
ATOM     16  C   LIG    1       -8.596  -5.961  -1.137  0.00  0.00    +0.053 A 
ATOM     17 CL   LIG    1      -10.318  -6.043  -1.345  0.00  0.00    -0.083 Cl
ATOM     18  C   LIG    1       -7.914  -7.035  -0.595  0.00  0.00    +0.075 A 
ATOM     19  C   LIG    1       -6.543  -6.975  -0.434  0.00  0.00    +0.037 A 
BRANCH  18  20
ATOM     20  C   LIG    1       -8.666  -8.275  -0.184  0.00  0.00    +0.419 C 
ATOM     21  F   LIG    1       -9.318  -8.815  -1.298  0.00  0.00    -0.166 F 
ATOM     22  F   LIG    1       -9.610  -7.945   0.794  0.00  0.00    -0.166 F 
ATOM     23  F   LIG    1       -7.769  -9.215   0.333  0.00  0.00    -0.166 F 
ENDBRANCH  18  20
ENDBRANCH  11  13
ENDBRANCH   7  11
BRANCH   1  24
ATOM     24  O   LIG    1       -2.544   0.902   1.249  0.00  0.00    -0.456 OA
BRANCH  24  27
ATOM     25  C   LIG    1        0.695   2.560   0.997  0.00  0.00    +0.129 A 
ATOM     26  C   LIG    1       -0.481   1.927   0.608  0.00  0.00    +0.079 A 
ATOM     27  C   LIG    1       -1.388   1.528   1.587  0.00  0.00    +0.132 A 
ATOM     28  C   LIG    1       -1.082   1.791   2.919  0.00  0.00    +0.066 A 
ATOM     29  C   LIG    1        0.107   2.425   3.228  0.00  0.00    +0.115 A 
ATOM     30  N   LIG    1        0.948   2.786   2.281  0.00  0.00    -0.250 NA
BRANCH  25  34
ATOM     31  C   LIG    1        3.783   4.022  -0.676  0.00  0.00    +0.128 C 
ATOM     32  N   LIG    1        2.815   3.601   0.340  0.00  0.00    -0.313 N 
ATOM     33  H   LIG    1        2.995   3.764   1.279  0.00  0.00    +0.149 HD
ATOM     34  C   LIG    1        1.673   2.986  -0.030  0.00  0.00    +0.262 C 
ATOM     35  O   LIG    1        1.447   2.783  -1.207  0.00  0.00    -0.269 OA
ENDBRANCH  25  34
ENDBRANCH  24  27
ENDBRANCH   1  24
TORSDOF 6
