REMARK  Name = ZINC28570765
REMARK                            x       y       z     vdW  Elec       q    Type
REMARK                         _______ _______ _______ _____ _____    ______ ____
ROOT
ATOM      1  C   UNK    1       -2.929   3.268  -1.367  0.00  0.00    +0.068 C 
ENDROOT
BRANCH   1   2
ATOM      2  S   UNK    1       -3.320   3.831  -3.046  0.00  0.00    -0.156 S 
BRANCH   2   3
ATOM      3  C   UNK    1       -4.830   4.814  -2.839  0.00  0.00    +0.104 C 
BRANCH   3  10
ATOM      4  C   UNK    1       -4.811   6.579  -4.614  0.00  0.00    +0.006 A 
ATOM      5  C   UNK    1       -5.209   7.068  -5.844  0.00  0.00    +0.020 A 
ATOM      6  C   UNK    1       -6.074   6.332  -6.634  0.00  0.00    +0.041 A 
ATOM      7 CL   UNK    1       -6.578   6.948  -8.177  0.00  0.00    -0.084 Cl
ATOM      8  C   UNK    1       -6.536   5.104  -6.194  0.00  0.00    +0.020 A 
ATOM      9  C   UNK    1       -6.133   4.614  -4.967  0.00  0.00    +0.006 A 
ATOM     10  C   UNK    1       -5.269   5.350  -4.178  0.00  0.00    -0.037 A 
ENDBRANCH   3  10
ENDBRANCH   2   3
ENDBRANCH   1   2
BRANCH   1  11
ATOM     11  C   UNK    1       -1.659   2.415  -1.398  0.00  0.00    +0.005 C 
BRANCH  11  12
ATOM     12  C   UNK    1       -1.329   1.940   0.019  0.00  0.00    +0.036 C 
BRANCH  12  13
ATOM     13  N   UNK    1       -2.390   1.040   0.493  0.00  0.00    +0.387 N 
ATOM     14  H   UNK    1       -3.350   1.577   0.500  0.00  0.00    -0.089 HD
ATOM     15  H   UNK    1       -2.461   0.172  -0.178  0.00  0.00    -0.089 HD
ATOM     16  H   UNK    1       -2.153   0.699   1.511  0.00  0.00    -0.089 HD
ENDBRANCH  12  13
BRANCH  12  17
ATOM     17  C   UNK    1       -0.014   1.204   0.009  0.00  0.00    +0.290 C 
ATOM     18  O   UNK    1        0.002  -0.004   0.002  0.00  0.00    -0.253 OA
BRANCH  17  19
ATOM     19  O   UNK    1        1.139   1.891   0.001  0.00  0.00    -0.482 OA
ATOM     20  H   UNK    1        1.126   2.828   0.006  0.00  0.00    +0.295 HD
ENDBRANCH  17  19
ENDBRANCH  12  17
ENDBRANCH  11  12
ENDBRANCH   1  11
TORSDOF 8
