REMARK  Name = ZINC29552518
REMARK                            x       y       z     vdW  Elec       q    Type
REMARK                         _______ _______ _______ _____ _____    ______ ____
ROOT
ATOM      1  C   LIG    1        1.551   1.050   1.549  0.00  0.00    -0.002 C 
ATOM      2  C   LIG    1        0.278   1.268   2.404  0.00  0.00    +0.004 C 
ATOM      3  C   LIG    1       -0.866   1.610   1.410  0.00  0.00    +0.005 C 
ATOM      4  C   LIG    1       -0.284   1.196   0.051  0.00  0.00    +0.001 C 
ATOM      5  C   LIG    1       -0.962   1.720  -1.177  0.00  0.00    +0.025 C 
ATOM      6  C   LIG    1       -1.942   2.858  -0.927  0.00  0.00    +0.118 C 
ATOM      7  C   LIG    1       -2.377   3.450  -2.280  0.00  0.00    +0.035 C 
ATOM      8  C   LIG    1       -2.131   2.402  -3.354  0.00  0.00    +0.000 C 
ATOM      9  C   LIG    1       -0.631   2.222  -3.596  0.00  0.00    -0.026 C 
ATOM     10  C   LIG    1       -0.056   3.452  -4.302  0.00  0.00    +0.012 C 
ATOM     11  C   LIG    1       -0.428   0.995  -4.476  0.00  0.00    +0.010 C 
ATOM     12  C   LIG    1       -1.154   1.197  -5.810  0.00  0.00    +0.032 C 
ATOM     13  C   LIG    1       -2.636   1.493  -5.607  0.00  0.00    +0.115 C 
ATOM     14  C   LIG    1       -2.848   2.682  -4.665  0.00  0.00    +0.035 C 
ATOM     15  C   LIG    1        0.066   2.105  -2.242  0.00  0.00    +0.001 C 
ATOM     16  C   LIG    1        1.195   1.083  -2.268  0.00  0.00    +0.005 C 
ATOM     17  C   LIG    1        2.014   1.132  -0.970  0.00  0.00    +0.007 C 
ATOM     18  C   LIG    1        1.183   1.654   0.175  0.00  0.00    -0.026 C 
ATOM     19  C   LIG    1        1.317   3.171   0.306  0.00  0.00    +0.012 C 
ENDROOT
BRANCH   1  21
ATOM     20  C   LIG    1        3.980   1.563   1.290  0.00  0.00    +0.008 C 
ATOM     21  C   LIG    1        2.735   1.807   2.146  0.00  0.00    -0.010 C 
BRANCH  21  22
ATOM     22  C   LIG    1        2.991   1.311   3.571  0.00  0.00    +0.013 C 
BRANCH  22  23
ATOM     23  C   LIG    1        4.095   2.154   4.213  0.00  0.00    +0.096 C 
BRANCH  23  24
ATOM     24  C   LIG    1        4.348   1.666   5.616  0.00  0.00    +0.213 C 
ATOM     25  N   LIG    1        5.285   2.263   6.379  0.00  0.00    -0.314 N 
ATOM     26  H   LIG    1        5.865   3.107   5.977  0.00  0.00    +0.149 HD
ATOM     27  O   LIG    1        3.708   0.736   6.059  0.00  0.00    -0.276 OA
BRANCH  25  28
ATOM     28  C   LIG    1        5.530   1.789   7.743  0.00  0.00    +0.129 C 
BRANCH  28  29
ATOM     29  C   LIG    1        6.634   2.632   8.385  0.00  0.00    +0.216 C 
BRANCH  29  30
ATOM     30  S   LIG    1        6.938   2.044  10.075  0.00  0.00    +0.081 S 
ATOM     31  O   LIG    1        7.512   0.745  10.045  0.00  0.00    -0.147 OA
ATOM     32  O   LIG    1        5.814   2.321  10.898  0.00  0.00    -0.147 OA
BRANCH  30  33
ATOM     33  O   LIG    1        8.042   2.945  10.609  0.00  0.00    -0.254 OA
ATOM     34  H   LIG    1        7.719   3.859  10.658  0.00  0.00    +0.244 HD
ENDBRANCH  30  33
ENDBRANCH  29  30
ENDBRANCH  28  29
ENDBRANCH  25  28
ENDBRANCH  23  24
ENDBRANCH  22  23
ENDBRANCH  21  22
ENDBRANCH   1  21
BRANCH   6  35
ATOM     35  O   LIG    1       -3.099   2.356  -0.254  0.00  0.00    -0.391 OA
ATOM     36  H   LIG    1       -3.920   3.038   0.011  0.00  0.00    +0.210 HD
ENDBRANCH   6  35
BRANCH  13  37
ATOM     37  O   LIG    1       -3.284   0.338  -5.069  0.00  0.00    -0.392 OA
ATOM     38  H   LIG    1       -4.363   0.363  -4.855  0.00  0.00    +0.210 HD
ENDBRANCH  13  37
TORSDOF 10
