REMARK  Name = ZINC72119672
REMARK                            x       y       z     vdW  Elec       q    Type
REMARK                         _______ _______ _______ _____ _____    ______ ____
ROOT
ATOM      1  N   LIG    1        1.423  -2.506  -2.494  0.00  0.00    -0.295 N 
ATOM      2  C   LIG    1        0.580  -2.796  -3.504  0.00  0.00    +0.285 C 
ATOM      3  O   LIG    1       -0.610  -2.571  -3.387  0.00  0.00    -0.267 OA
ENDROOT
BRANCH   2   4
ATOM      4  C   LIG    1        1.099  -3.388  -4.752  0.00  0.00    +0.222 A 
ATOM      5  C   LIG    1        0.355  -3.808  -5.807  0.00  0.00    +0.086 A 
ATOM      6  C   LIG    1        1.240  -4.307  -6.792  0.00  0.00    +0.114 A 
ATOM      7  N   LIG    1        2.463  -4.186  -6.335  0.00  0.00    -0.077 NA
ATOM      8  O   LIG    1        2.397  -3.600  -5.048  0.00  0.00    -0.349 OA
BRANCH   6   9
ATOM      9  C   LIG    1        0.853  -4.869  -8.110  0.00  0.00    +0.004 A 
ATOM     10  C   LIG    1       -0.490  -4.936  -8.473  0.00  0.00    +0.010 A 
ATOM     11  C   LIG    1       -0.846  -5.459  -9.700  0.00  0.00    +0.001 A 
ATOM     12  C   LIG    1        0.130  -5.918 -10.568  0.00  0.00    +0.000 A 
ATOM     13  C   LIG    1        1.465  -5.854 -10.211  0.00  0.00    +0.001 A 
ATOM     14  C   LIG    1        1.831  -5.327  -8.989  0.00  0.00    +0.010 A 
ENDBRANCH   6   9
ENDBRANCH   2   4
BRANCH   1  15
ATOM     15  C   LIG    1        0.895  -2.030  -1.212  0.00  0.00    +0.108 C 
BRANCH  15  16
ATOM     16  C   LIG    1        0.918  -0.501  -1.187  0.00  0.00    +0.019 C 
BRANCH  16  18
ATOM     17  C   LIG    1        0.390   1.525   0.176  0.00  0.00    +0.004 C 
ATOM     18  C   LIG    1        0.367  -0.004   0.151  0.00  0.00    -0.002 C 
ENDBRANCH  16  18
ENDBRANCH  15  16
ENDBRANCH   1  15
BRANCH   1  19
ATOM     19  C   LIG    1        2.868  -2.665  -2.676  0.00  0.00    +0.108 C 
BRANCH  19  20
ATOM     20  C   LIG    1        3.259  -4.118  -2.399  0.00  0.00    +0.019 C 
BRANCH  20  21
ATOM     21  C   LIG    1        4.768  -4.285  -2.590  0.00  0.00    -0.002 C 
ATOM     22  C   LIG    1        5.160  -5.737  -2.313  0.00  0.00    +0.004 C 
ENDBRANCH  20  21
ENDBRANCH  19  20
ENDBRANCH   1  19
TORSDOF 8
