REMARK  Name = ZINC15987659
REMARK                            x       y       z     vdW  Elec       q    Type
REMARK                         _______ _______ _______ _____ _____    ______ ____
ROOT
ATOM      1  C   LIG    1        2.907  -4.657   0.681  0.00  0.00    +0.196 C 
ENDROOT
BRANCH   1   2
ATOM      2  N   LIG    1        2.890  -6.122   0.700  0.00  0.00    -0.274 N 
ATOM      3  H   LIG    1        2.210  -6.613   0.185  0.00  0.00    +0.258 HD
BRANCH   2   4
ATOM      4  C   LIG    1        3.805  -6.798   1.425  0.00  0.00    +0.411 C 
ATOM      5  N   LIG    1        3.789  -8.145   1.443  0.00  0.00    +0.094 NA
BRANCH   4   6
ATOM      6  N   LIG    1        4.736  -6.125   2.131  0.00  0.00    -0.287 N 
ATOM      7  H   LIG    1        5.394  -6.612   2.652  0.00  0.00    +0.255 HD
ATOM      8  H   LIG    1        4.748  -5.155   2.119  0.00  0.00    +0.255 HD
ENDBRANCH   4   6
BRANCH   5   9
ATOM      9  N   LIG    1        2.898  -8.788   0.767  0.00  0.00    +0.176 N 
ATOM     10  O   LIG    1        2.004  -8.128   0.059  0.00  0.00    -0.095 OA
BRANCH   9  11
ATOM     11  O   LIG    1        2.882 -10.105   0.784  0.00  0.00    -0.370 OA
ATOM     12  H   LIG    1        3.518 -10.574   1.287  0.00  0.00    +0.332 HD
ENDBRANCH   9  11
ENDBRANCH   5   9
ENDBRANCH   2   4
ENDBRANCH   1   2
BRANCH   1  13
ATOM     13  C   LIG    1        1.773  -4.145  -0.209  0.00  0.00    +0.036 C 
BRANCH  13  14
ATOM     14  C   LIG    1        1.792  -2.615  -0.229  0.00  0.00    -0.002 C 
BRANCH  14  15
ATOM     15  C   LIG    1        0.657  -2.104  -1.120  0.00  0.00    +0.036 C 
BRANCH  15  16
ATOM     16  N   LIG    1        0.902  -2.514  -2.509  0.00  0.00    +0.387 N 
ATOM     17  H   LIG    1        1.779  -2.126  -2.824  0.00  0.00    -0.089 HD
ATOM     18  H   LIG    1        0.154  -2.176  -3.096  0.00  0.00    -0.089 HD
ATOM     19  H   LIG    1        0.942  -3.520  -2.560  0.00  0.00    -0.089 HD
ENDBRANCH  15  16
BRANCH  15  20
ATOM     20  C   LIG    1        0.598  -0.600  -1.043  0.00  0.00    +0.292 C 
ATOM     21  O   LIG    1        1.088   0.070  -1.921  0.00  0.00    -0.253 OA
BRANCH  20  23
ATOM     22  C   LIG    1       -0.017   1.425   0.010  0.00  0.00    +0.280 C 
ATOM     23  O   LIG    1        0.002  -0.004   0.002  0.00  0.00    -0.469 OA
ENDBRANCH  20  23
ENDBRANCH  15  20
ENDBRANCH  14  15
ENDBRANCH  13  14
ENDBRANCH   1  13
TORSDOF 11
