REMARK  Name = ZINC14607246
REMARK                            x       y       z     vdW  Elec       q    Type
REMARK                         _______ _______ _______ _____ _____    ______ ____
ROOT
ATOM      1  C   LIG    1       -0.854   1.170   0.031  0.00  0.00    +0.028 C 
ATOM      2  C   LIG    1        0.121   0.087  -0.433  0.00  0.00    +0.081 C 
ATOM      3  C   LIG    1       -0.655  -1.175  -0.830  0.00  0.00    +0.051 C 
ATOM      4  C   LIG    1        0.333  -2.217  -1.355  0.00  0.00    +0.131 C 
ATOM      5  C   LIG    1        1.462  -2.414  -0.378  0.00  0.00    -0.004 A 
ATOM      6  C   LIG    1        2.206  -3.580  -0.440  0.00  0.00    +0.007 A 
ATOM      7  C   LIG    1        3.249  -3.789   0.441  0.00  0.00    +0.000 A 
ATOM      8  C   LIG    1        3.558  -2.832   1.391  0.00  0.00    +0.002 A 
ATOM      9  C   LIG    1        2.821  -1.667   1.460  0.00  0.00    +0.024 A 
ATOM     10  C   LIG    1        1.769  -1.456   0.575  0.00  0.00    +0.042 A 
ATOM     11  N   LIG    1        1.029  -0.270   0.666  0.00  0.00    -0.264 N 
ATOM     12  C   LIG    1        1.146   0.530   1.745  0.00  0.00    +0.251 C 
ATOM     13  O   LIG    1        0.633   1.632   1.743  0.00  0.00    -0.270 OA
ENDROOT
BRANCH  12  14
ATOM     14  C   LIG    1        1.897   0.066   2.930  0.00  0.00    +0.037 A 
ATOM     15  C   LIG    1        1.753  -1.246   3.383  0.00  0.00    +0.013 A 
ATOM     16  C   LIG    1        2.458  -1.673   4.490  0.00  0.00    +0.001 A 
ATOM     17  C   LIG    1        3.306  -0.802   5.151  0.00  0.00    +0.000 A 
ATOM     18  C   LIG    1        3.453   0.500   4.708  0.00  0.00    +0.001 A 
ATOM     19  C   LIG    1        2.759   0.938   3.599  0.00  0.00    +0.013 A 
ENDBRANCH  12  14
BRANCH   4  20
ATOM     20  N   LIG    1        0.877  -1.764  -2.638  0.00  0.00    -0.196 N 
BRANCH  20  21
ATOM     21  C   LIG    1        1.695  -0.633  -2.688  0.00  0.00    +0.052 A 
ATOM     22  C   LIG    1        2.936  -0.643  -2.065  0.00  0.00    +0.025 A 
ATOM     23  C   LIG    1        3.743   0.477  -2.117  0.00  0.00    +0.002 A 
ATOM     24  C   LIG    1        3.316   1.607  -2.789  0.00  0.00    +0.000 A 
ATOM     25  C   LIG    1        2.080   1.621  -3.411  0.00  0.00    +0.002 A 
ATOM     26  C   LIG    1        1.272   0.502  -3.367  0.00  0.00    +0.025 A 
ENDBRANCH  20  21
BRANCH  20  27
ATOM     27  S   LIG    1        0.523  -2.593  -4.027  0.00  0.00    +0.075 S 
ATOM     28  O   LIG    1        0.116  -3.895  -3.630  0.00  0.00    -0.150 OA
ATOM     29  O   LIG    1        1.607  -2.373  -4.919  0.00  0.00    -0.150 OA
BRANCH  27  30
ATOM     30  C   LIG    1       -0.887  -1.822  -4.749  0.00  0.00    +0.109 A 
ATOM     31  C   LIG    1       -2.158  -2.247  -4.408  0.00  0.00    +0.029 A 
ATOM     32  C   LIG    1       -3.264  -1.642  -4.974  0.00  0.00    +0.002 A 
ATOM     33  C   LIG    1       -3.100  -0.611  -5.880  0.00  0.00    +0.000 A 
ATOM     34  C   LIG    1       -1.830  -0.185  -6.220  0.00  0.00    +0.002 A 
ATOM     35  C   LIG    1       -0.723  -0.787  -5.651  0.00  0.00    +0.029 A 
ENDBRANCH  27  30
ENDBRANCH  20  27
ENDBRANCH   4  20
TORSDOF 5
