REMARK  Name = ZINC13745611
REMARK                            x       y       z     vdW  Elec       q    Type
REMARK                         _______ _______ _______ _____ _____    ______ ____
ROOT
ATOM      1  C   LIG    1       -0.148   1.182   2.380  0.00  0.00    +0.121 A 
ATOM      2  C   LIG    1        0.999   0.394   2.417  0.00  0.00    +0.047 A 
ATOM      3  C   LIG    1        1.552   0.016   3.620  0.00  0.00    +0.030 A 
ATOM      4  C   LIG    1        0.964   0.421   4.814  0.00  0.00    +0.047 A 
ATOM      5  C   LIG    1       -0.196   1.218   4.781  0.00  0.00    +0.006 A 
ATOM      6  C   LIG    1       -0.551   1.463   6.175  0.00  0.00    -0.021 A 
ATOM      7  C   LIG    1        0.363   0.836   6.940  0.00  0.00    +0.020 A 
ATOM      8  C   LIG    1        0.341   0.848   8.451  0.00  0.00    +0.052 C 
ATOM      9  C   LIG    1       -1.052   1.291   8.914  0.00  0.00    -0.010 C 
ATOM     10  C   LIG    1       -1.448   2.578   8.185  0.00  0.00    -0.070 C 
ATOM     11  C   LIG    1       -1.712   2.264   6.707  0.00  0.00    +0.021 C 
ATOM     12  N   LIG    1        1.276   0.209   6.141  0.00  0.00    -0.358 N 
ATOM     13  H   LIG    1        2.032  -0.309   6.460  0.00  0.00    +0.166 HD
ATOM     14  C   LIG    1       -0.744   1.599   3.554  0.00  0.00    +0.056 A 
ENDROOT
BRANCH  10  15
ATOM     15  N   LIG    1       -2.680   3.113   8.791  0.00  0.00    +0.380 N 
ATOM     16  H   LIG    1       -3.419   2.403   8.735  0.00  0.00    -0.090 HD
ATOM     17  H   LIG    1       -2.982   3.947   8.290  0.00  0.00    -0.090 HD
ATOM     18  H   LIG    1       -2.515   3.346   9.769  0.00  0.00    -0.090 HD
ENDBRANCH  10  15
BRANCH   1  20
ATOM     19  C   LIG    1       -0.013   1.086   0.008  0.00  0.00    +0.277 C 
ATOM     20  O   LIG    1       -0.682   1.547   1.184  0.00  0.00    -0.495 OA
ENDBRANCH   1  20
TORSDOF 2
