REMARK  Name = ZINC43208321
REMARK                            x       y       z     vdW  Elec       q    Type
REMARK                         _______ _______ _______ _____ _____    ______ ____
ROOT
ATOM      1  N   LIG    1       -2.319  -4.792  -4.856  0.00  0.00    -0.267 N 
ATOM      2  C   LIG    1       -1.644  -5.598  -3.968  0.00  0.00    +0.169 A 
ATOM      3  C   LIG    1       -1.103  -6.649  -4.728  0.00  0.00    +0.149 A 
ATOM      4  N   LIG    1       -1.465  -6.441  -6.019  0.00  0.00    -0.209 NA
ATOM      5  C   LIG    1       -0.354  -7.632  -4.061  0.00  0.00    +0.147 A 
ATOM      6  N   LIG    1       -0.192  -7.522  -2.747  0.00  0.00    -0.219 NA
ATOM      7  C   LIG    1       -0.719  -6.516  -2.075  0.00  0.00    +0.225 A 
ATOM      8  N   LIG    1       -1.429  -5.572  -2.658  0.00  0.00    -0.216 NA
ATOM      9  C   LIG    1       -2.186  -5.350  -6.098  0.00  0.00    +0.200 A 
ENDROOT
BRANCH   1  13
ATOM     10  C   LIG    1       -3.299  -1.925  -2.914  0.00  0.00    +0.178 C 
ATOM     11  C   LIG    1       -4.678  -2.602  -3.038  0.00  0.00    +0.178 C 
ATOM     12  C   LIG    1       -4.394  -3.900  -3.834  0.00  0.00    +0.195 C 
ATOM     13  C   LIG    1       -3.050  -3.565  -4.530  0.00  0.00    +0.255 C 
ATOM     14  O   LIG    1       -2.337  -2.792  -3.538  0.00  0.00    -0.346 OA
BRANCH  11  15
ATOM     15  O   LIG    1       -5.585  -1.762  -3.754  0.00  0.00    -0.386 OA
ATOM     16  H   LIG    1       -6.469  -2.139  -3.861  0.00  0.00    +0.210 HD
ENDBRANCH  11  15
BRANCH  12  17
ATOM     17  O   LIG    1       -5.421  -4.143  -4.797  0.00  0.00    -0.385 OA
ATOM     18  H   LIG    1       -6.299  -4.268  -4.412  0.00  0.00    +0.210 HD
ENDBRANCH  12  17
BRANCH  10  19
ATOM     19  C   LIG    1       -2.945  -1.732  -1.438  0.00  0.00    +0.194 C 
BRANCH  19  20
ATOM     20  O   LIG    1       -1.718  -1.007  -1.334  0.00  0.00    -0.373 OA
BRANCH  20  21
ATOM     21  C   LIG    1       -1.295  -0.772   0.011  0.00  0.00    +0.195 C 
BRANCH  21  27
ATOM     22  C   LIG    1       -0.017   1.379   0.010  0.00  0.00    +0.007 A 
ATOM     23  C   LIG    1        1.167   2.088   0.002  0.00  0.00    +0.019 A 
ATOM     24  C   LIG    1        2.385   1.407  -0.013  0.00  0.00    +0.052 A 
ATOM     25  C   LIG    1        2.397   0.011  -0.021  0.00  0.00    +0.019 A 
ATOM     26  C   LIG    1        1.206  -0.686  -0.013  0.00  0.00    +0.007 A 
ATOM     27  C   LIG    1        0.002  -0.004   0.002  0.00  0.00    -0.022 A 
BRANCH  24  28
ATOM     28  C   LIG    1        3.617   2.136  -0.021  0.00  0.00    +0.099 C 
ATOM     29  N   LIG    1        4.595   2.715  -0.028  0.00  0.00    -0.191 NA
ENDBRANCH  24  28
ENDBRANCH  21  27
ENDBRANCH  20  21
ENDBRANCH  19  20
ENDBRANCH  10  19
ENDBRANCH   1  13
BRANCH   5  30
ATOM     30  N   LIG    1        0.203  -8.692  -4.758  0.00  0.00    -0.341 N 
ATOM     31  H   LIG    1        0.719  -9.365  -4.287  0.00  0.00    +0.144 HD
ATOM     32  H   LIG    1        0.078  -8.761  -5.718  0.00  0.00    +0.144 HD
ENDBRANCH   5  30
BRANCH   9  33
ATOM     33  N   LIG    1       -2.729  -4.839  -7.259  0.00  0.00    -0.311 N 
ATOM     34  H   LIG    1       -3.251  -4.022  -7.232  0.00  0.00    +0.149 HD
BRANCH  33  35
ATOM     35  C   LIG    1       -2.516  -5.531  -8.533  0.00  0.00    +0.139 C 
BRANCH  35  36
ATOM     36  C   LIG    1       -3.207  -4.774  -9.638  0.00  0.00    -0.029 A 
ATOM     37  C   LIG    1       -4.521  -5.064  -9.958  0.00  0.00    +0.007 A 
ATOM     38  C   LIG    1       -5.155  -4.371 -10.971  0.00  0.00    +0.022 A 
ATOM     39  C   LIG    1       -4.477  -3.385 -11.665  0.00  0.00    +0.059 A 
ATOM     40 CL   LIG    1       -5.274  -2.514 -12.938  0.00  0.00    -0.082 Cl
ATOM     41  C   LIG    1       -3.162  -3.094 -11.344  0.00  0.00    +0.060 A 
ATOM     42 CL   LIG    1       -2.309  -1.857 -12.214  0.00  0.00    -0.082 Cl
ATOM     43  C   LIG    1       -2.530  -3.785 -10.326  0.00  0.00    +0.026 A 
ENDBRANCH  35  36
ENDBRANCH  33  35
ENDBRANCH   9  33
TORSDOF 12
