REMARK  Name = ZINC19796018
REMARK                            x       y       z     vdW  Elec       q    Type
REMARK                         _______ _______ _______ _____ _____    ______ ____
ROOT
ATOM      1  N   LIG    1        2.899  -6.603   2.164  0.00  0.00    -0.298 N 
ATOM      2  C   LIG    1        2.307  -6.712   3.420  0.00  0.00    +0.048 A 
ATOM      3  C   LIG    1        1.206  -5.914   3.714  0.00  0.00    +0.024 A 
ATOM      4  C   LIG    1        0.590  -6.001   4.947  0.00  0.00    +0.002 A 
ATOM      5  C   LIG    1        1.064  -6.882   5.901  0.00  0.00    +0.001 A 
ATOM      6  C   LIG    1        2.159  -7.678   5.621  0.00  0.00    +0.017 A 
ATOM      7  C   LIG    1        2.784  -7.595   4.385  0.00  0.00    +0.034 A 
ATOM      8  S   LIG    1        4.183  -8.611   4.049  0.00  0.00    -0.086 S 
ATOM      9  C   LIG    1        4.931  -7.855   2.645  0.00  0.00    +0.034 A 
ATOM     10  C   LIG    1        6.241  -8.173   2.315  0.00  0.00    +0.018 A 
ATOM     11  C   LIG    1        6.839  -7.599   1.214  0.00  0.00    +0.021 A 
ATOM     12  C   LIG    1        6.136  -6.692   0.443  0.00  0.00    +0.043 A 
ATOM     13 CL   LIG    1        6.893  -5.958  -0.936  0.00  0.00    -0.083 Cl
ATOM     14  C   LIG    1        4.831  -6.367   0.767  0.00  0.00    +0.044 A 
ATOM     15  C   LIG    1        4.215  -6.949   1.870  0.00  0.00    +0.049 A 
ENDROOT
BRANCH   1  16
ATOM     16  C   LIG    1        2.073  -6.090   1.069  0.00  0.00    +0.109 C 
BRANCH  16  17
ATOM     17  C   LIG    1        2.207  -4.568   0.998  0.00  0.00    +0.001 C 
BRANCH  17  18
ATOM     18  C   LIG    1        1.344  -4.032  -0.146  0.00  0.00    -0.077 C 
BRANCH  18  23
ATOM     19  C   LIG    1        0.432   1.526  -0.301  0.00  0.00    +0.104 C 
ATOM     20  N   LIG    1        0.359   0.060  -0.237  0.00  0.00    -0.309 NA
ATOM     21  C   LIG    1        0.889  -0.548  -1.466  0.00  0.00    +0.065 C 
ATOM     22  C   LIG    1        0.740  -2.069  -1.384  0.00  0.00    -0.063 C 
ATOM     23  N   LIG    1        1.472  -2.571  -0.214  0.00  0.00    +0.381 N 
ATOM     24  H   LIG    1        2.447  -2.322  -0.295  0.00  0.00    -0.082 HD
ATOM     25  C   LIG    1        0.915  -1.974   1.007  0.00  0.00    -0.063 C 
ATOM     26  C   LIG    1        1.065  -0.452   0.946  0.00  0.00    +0.065 C 
ENDBRANCH  18  23
ENDBRANCH  17  18
ENDBRANCH  16  17
ENDBRANCH   1  16
TORSDOF 4
