REMARK  Name = ZINC18010202
REMARK                            x       y       z     vdW  Elec       q    Type
REMARK                         _______ _______ _______ _____ _____    ______ ____
ROOT
ATOM      1  N   LIG    1        1.249  -2.051  -0.021  0.00  0.00    -0.224 NA
ATOM      2  C   LIG    1        0.128  -2.730   0.085  0.00  0.00    +0.166 C 
ATOM      3  N   LIG    1       -1.170  -2.261   0.114  0.00  0.00    -0.260 N 
ATOM      4  H   LIG    1       -1.341  -1.308   0.051  0.00  0.00    +0.157 HD
ATOM      5  C   LIG    1       -2.179  -3.107   0.228  0.00  0.00    +0.256 C 
ATOM      6  O   LIG    1       -3.329  -2.707   0.255  0.00  0.00    -0.269 OA
ATOM      7  C   LIG    1       -1.887  -4.500   0.319  0.00  0.00    +0.077 C 
ATOM      8  C   LIG    1       -2.752  -5.565   0.442  0.00  0.00    +0.020 C 
ATOM      9  S   LIG    1       -0.103  -4.496   0.222  0.00  0.00    -0.049 S 
ENDROOT
BRANCH   1  15
ATOM     10  C   LIG    1        0.478   1.394   0.916  0.00  0.00    +0.002 A 
ATOM     11  C   LIG    1        1.163   2.087  -0.067  0.00  0.00    +0.002 A 
ATOM     12  C   LIG    1        1.877   1.403  -1.035  0.00  0.00    +0.022 A 
ATOM     13  C   LIG    1        1.910   0.023  -1.026  0.00  0.00    +0.066 A 
ATOM     14 CL   LIG    1        2.805  -0.834  -2.243  0.00  0.00    -0.081 Cl
ATOM     15  C   LIG    1        1.221  -0.683  -0.036  0.00  0.00    +0.085 A 
ATOM     16  C   LIG    1        0.502   0.015   0.937  0.00  0.00    +0.029 A 
ENDBRANCH   1  15
BRANCH   8  17
ATOM     17  C   LIG    1       -2.248  -6.873   0.515  0.00  0.00    +0.005 C 
ATOM     18  C   LIG    1       -3.102  -7.926   0.637  0.00  0.00    +0.046 C 
BRANCH  18  19
ATOM     19  C   LIG    1       -2.594  -9.244   0.711  0.00  0.00    +0.128 A 
ATOM     20  C   LIG    1       -3.341 -10.399   0.830  0.00  0.00    +0.049 A 
ATOM     21  C   LIG    1       -2.428 -11.464   0.867  0.00  0.00    +0.042 A 
ATOM     22  C   LIG    1       -1.190 -10.932   0.772  0.00  0.00    +0.195 A 
ATOM     23  O   LIG    1       -1.292  -9.598   0.673  0.00  0.00    -0.464 OA
ENDBRANCH  18  19
ENDBRANCH   8  17
TORSDOF 3
