REMARK  Name = ZINC20898543
REMARK                            x       y       z     vdW  Elec       q    Type
REMARK                         _______ _______ _______ _____ _____    ______ ____
ROOT
ATOM      1  C   LIG    1        0.993   6.714   0.450  0.00  0.00    +0.154 C 
ATOM      2  N   LIG    1        1.648   6.579   1.753  0.00  0.00    -0.294 N 
ATOM      3  C   LIG    1        2.427   5.455   2.066  0.00  0.00    +0.082 A 
ATOM      4  C   LIG    1        3.064   5.376   3.405  0.00  0.00    +0.089 A 
ATOM      5  C   LIG    1        2.861   6.471   4.360  0.00  0.00    +0.266 A 
ATOM      6  N   LIG    1        2.083   7.492   3.918  0.00  0.00    -0.263 N 
ATOM      7  C   LIG    1        1.841   8.617   4.825  0.00  0.00    +0.157 C 
ATOM      8  O   LIG    1        3.354   6.463   5.472  0.00  0.00    -0.267 OA
ATOM      9  C   LIG    1        3.759   4.193   3.438  0.00  0.00    +0.069 A 
ATOM     10  N   LIG    1        3.587   3.583   2.235  0.00  0.00    -0.306 N 
ATOM     11  C   LIG    1        4.129   2.369   1.787  0.00  0.00    +0.068 A 
ATOM     12  C   LIG    1        4.741   1.486   2.655  0.00  0.00    +0.028 A 
ATOM     13  C   LIG    1        5.216   0.275   2.181  0.00  0.00    +0.002 A 
ATOM     14  C   LIG    1        5.078  -0.049   0.844  0.00  0.00    +0.002 A 
ATOM     15  C   LIG    1        4.476   0.835  -0.033  0.00  0.00    +0.025 A 
ATOM     16  C   LIG    1        4.004   2.053   0.430  0.00  0.00    +0.052 A 
ATOM     17  N   LIG    1        3.412   2.967  -0.449  0.00  0.00    -0.330 N 
ATOM     18  H   LIG    1        3.725   2.994  -1.503  0.00  0.00    +0.147 HD
ATOM     19  C   LIG    1        2.371   3.888   0.034  0.00  0.00    +0.153 C 
ATOM     20  C   LIG    1        2.764   4.348   1.421  0.00  0.00    +0.073 A 
ATOM     21  C   LIG    1        1.525   7.531   2.704  0.00  0.00    +0.332 A 
ATOM     22  O   LIG    1        0.851   8.506   2.432  0.00  0.00    -0.246 OA
ENDROOT
BRANCH  19  23
ATOM     23  C   LIG    1        1.045   3.175   0.089  0.00  0.00    +0.014 A 
ATOM     24  C   LIG    1        0.532   2.762   1.304  0.00  0.00    +0.008 A 
ATOM     25  C   LIG    1       -0.684   2.108   1.355  0.00  0.00    +0.001 A 
ATOM     26  C   LIG    1       -1.388   1.862   0.190  0.00  0.00    +0.003 A 
ATOM     27  C   LIG    1       -0.880   2.279  -1.025  0.00  0.00    +0.039 A 
ATOM     28  C   LIG    1        0.339   2.934  -1.078  0.00  0.00    +0.129 A 
ATOM     29  F   LIG    1        0.839   3.338  -2.266  0.00  0.00    -0.205 F 
ENDBRANCH  19  23
BRANCH   9  30
ATOM     30  C   LIG    1        4.547   3.676   4.574  0.00  0.00    -0.000 A 
ATOM     31  C   LIG    1        3.941   3.478   5.817  0.00  0.00    +0.010 A 
ATOM     32  C   LIG    1        4.682   2.989   6.872  0.00  0.00    +0.001 A 
ATOM     33  C   LIG    1        6.027   2.706   6.705  0.00  0.00    +0.000 A 
ATOM     34  C   LIG    1        6.635   2.905   5.478  0.00  0.00    +0.001 A 
ATOM     35  C   LIG    1        5.904   3.388   4.413  0.00  0.00    +0.010 A 
ENDBRANCH   9  30
TORSDOF 2
