REMARK  Name = ZINC13760707
REMARK                            x       y       z     vdW  Elec       q    Type
REMARK                         _______ _______ _______ _____ _____    ______ ____
ROOT
ATOM      1  C   LIG    1        0.552  -4.097  14.254  0.00  0.00    -0.028 A 
ATOM      2  C   LIG    1       -0.191  -3.085  14.835  0.00  0.00    +0.006 A 
ATOM      3  C   LIG    1       -1.553  -3.015  14.624  0.00  0.00    +0.009 A 
ATOM      4  C   LIG    1       -2.182  -3.974  13.832  0.00  0.00    -0.017 A 
ATOM      5  C   LIG    1       -1.429  -4.995  13.253  0.00  0.00    +0.009 A 
ATOM      6  C   LIG    1       -0.067  -5.051  13.466  0.00  0.00    +0.006 A 
ENDROOT
BRANCH   4   7
ATOM      7  C   LIG    1       -3.646  -3.909  13.607  0.00  0.00    -0.007 A 
ATOM      8  C   LIG    1       -4.159  -3.983  12.314  0.00  0.00    +0.009 A 
ATOM      9  C   LIG    1       -5.523  -3.927  12.110  0.00  0.00    +0.001 A 
ATOM     10  C   LIG    1       -6.387  -3.787  13.182  0.00  0.00    +0.001 A 
ATOM     11  C   LIG    1       -5.894  -3.707  14.469  0.00  0.00    +0.012 A 
ATOM     12  C   LIG    1       -4.522  -3.767  14.694  0.00  0.00    +0.030 A 
BRANCH  12  13
ATOM     13  C   LIG    1       -3.988  -3.682  16.075  0.00  0.00    +0.206 A 
ATOM     14  N   LIG    1       -4.713  -3.539  17.207  0.00  0.00    -0.154 NA
ATOM     15  C   LIG    1       -3.833  -3.512  18.187  0.00  0.00    +0.417 A 
ATOM     16  O   LIG    1       -2.621  -3.628  17.628  0.00  0.00    -0.296 OA
ATOM     17  N   LIG    1       -2.727  -3.724  16.424  0.00  0.00    -0.052 NA
BRANCH  15  18
ATOM     18  O   LIG    1       -4.101  -3.386  19.505  0.00  0.00    -0.464 OA
ATOM     19  H   LIG    1       -4.988  -3.311  19.797  0.00  0.00    +0.297 HD
ENDBRANCH  15  18
ENDBRANCH  12  13
ENDBRANCH   4   7
BRANCH   1  20
ATOM     20  C   LIG    1        2.039  -4.163  14.484  0.00  0.00    +0.162 C 
BRANCH  20  29
ATOM     21  C   LIG    1        2.170  -4.269  17.004  0.00  0.00    +0.299 A 
ATOM     22  N   LIG    1        2.494  -5.144  17.920  0.00  0.00    -0.195 NA
ATOM     23  C   LIG    1        2.857  -6.312  17.325  0.00  0.00    +0.094 A 
ATOM     24  C   LIG    1        3.283  -7.547  17.817  0.00  0.00    +0.030 A 
ATOM     25  C   LIG    1        3.588  -8.572  16.945  0.00  0.00    +0.003 A 
ATOM     26  C   LIG    1        3.477  -8.393  15.579  0.00  0.00    +0.017 A 
ATOM     27  C   LIG    1        3.053  -7.168  15.062  0.00  0.00    +0.085 A 
ATOM     28  C   LIG    1        2.741  -6.120  15.939  0.00  0.00    +0.086 A 
ATOM     29  N   LIG    1        2.306  -4.824  15.764  0.00  0.00    -0.289 N 
BRANCH  27  30
ATOM     30  C   LIG    1        2.935  -6.977  13.606  0.00  0.00    +0.341 C 
ATOM     31  O   LIG    1        2.028  -7.507  12.995  0.00  0.00    -0.245 OA
BRANCH  30  32
ATOM     32  O   LIG    1        3.834  -6.216  12.951  0.00  0.00    -0.464 OA
ATOM     33  C   LIG    1        3.656  -6.072  11.517  0.00  0.00    +0.280 C 
ENDBRANCH  30  32
ENDBRANCH  27  30
BRANCH  21  34
ATOM     34  O   LIG    1        1.761  -3.003  17.248  0.00  0.00    -0.464 OA
BRANCH  34  36
ATOM     35  C   LIG    1        1.202  -1.149  18.694  0.00  0.00    +0.048 C 
ATOM     36  C   LIG    1        1.679  -2.601  18.617  0.00  0.00    +0.229 C 
ENDBRANCH  34  36
ENDBRANCH  21  34
ENDBRANCH  20  29
ENDBRANCH   1  20
TORSDOF 9
