REMARK  Name = ZINC00018551
REMARK                            x       y       z     vdW  Elec       q    Type
REMARK                         _______ _______ _______ _____ _____    ______ ____
ROOT
ATOM      1  C   LIG    1       -2.024   2.368   3.473  0.00  0.00    +0.108 A 
ATOM      2  C   LIG    1       -1.082   3.225   2.859  0.00  0.00    +0.271 A 
ATOM      3  N   LIG    1       -0.437   2.803   1.750  0.00  0.00    -0.323 N 
ATOM      4  C   LIG    1       -0.718   1.572   1.248  0.00  0.00    +0.041 A 
ATOM      5  C   LIG    1       -1.628   0.778   1.864  0.00  0.00    +0.132 A 
ATOM      6  H   LIG    1        0.239   3.390   1.304  0.00  0.00    +0.169 HD
ATOM      7  O   LIG    1       -0.851   4.327   3.328  0.00  0.00    -0.266 OA
ATOM      8  N   LIG    1       -2.262   1.186   2.960  0.00  0.00    -0.253 NA
ENDROOT
BRANCH   1  10
ATOM      9  C   LIG    1       -3.793   1.759   5.101  0.00  0.00    +0.014 C 
ATOM     10  C   LIG    1       -2.752   2.812   4.716  0.00  0.00    +0.037 C 
ATOM     11  C   LIG    1       -1.750   2.981   5.860  0.00  0.00    +0.014 C 
ENDBRANCH   1  10
BRANCH   4  12
ATOM     12  C   LIG    1       -0.013   1.086   0.008  0.00  0.00    +0.090 C 
BRANCH  12  13
ATOM     13  C   LIG    1       -0.742   1.585  -1.213  0.00  0.00    -0.042 A 
ATOM     14  C   LIG    1       -1.750   0.825  -1.775  0.00  0.00    +0.004 A 
ATOM     15  C   LIG    1       -2.422   1.285  -2.892  0.00  0.00    +0.000 A 
ATOM     16  C   LIG    1       -2.079   2.501  -3.453  0.00  0.00    +0.000 A 
ATOM     17  C   LIG    1       -1.066   3.259  -2.894  0.00  0.00    +0.000 A 
ATOM     18  C   LIG    1       -0.398   2.801  -1.774  0.00  0.00    +0.004 A 
ENDBRANCH  12  13
ENDBRANCH   4  12
TORSDOF 3
