REMARK  Name = ZINC30731581
REMARK                            x       y       z     vdW  Elec       q    Type
REMARK                         _______ _______ _______ _____ _____    ______ ____
ROOT
ATOM      1  C   LIG    1        2.316  -0.065  -1.238  0.00  0.00    +0.032 C 
ATOM      2  C   LIG    1        2.617  -1.508  -1.718  0.00  0.00    +0.010 C 
ATOM      3  C   LIG    1        2.014  -1.628  -3.146  0.00  0.00    +0.040 C 
ATOM      4  C   LIG    1        1.981  -0.173  -3.622  0.00  0.00    +0.093 C 
ATOM      5  C   LIG    1        0.998   0.155  -4.709  0.00  0.00    -0.031 C 
ATOM      6  C   LIG    1        0.407  -0.825  -5.383  0.00  0.00    +0.049 C 
ATOM      7  C   LIG    1       -0.561  -0.508  -6.439  0.00  0.00    +0.160 C 
ATOM      8  C   LIG    1       -0.466   0.875  -7.049  0.00  0.00    +0.069 C 
ATOM      9  C   LIG    1       -0.408   1.887  -5.906  0.00  0.00    -0.013 C 
ATOM     10  C   LIG    1       -1.711   1.805  -5.108  0.00  0.00    +0.012 C 
ATOM     11  C   LIG    1       -0.292   3.300  -6.485  0.00  0.00    +0.041 C 
ATOM     12  C   LIG    1        0.986   3.402  -7.320  0.00  0.00    +0.144 C 
ATOM     13  C   LIG    1        0.935   2.384  -8.461  0.00  0.00    +0.144 C 
ATOM     14  C   LIG    1        0.813   0.973  -7.883  0.00  0.00    +0.046 C 
ATOM     15  O   LIG    1       -1.390  -1.313  -6.811  0.00  0.00    -0.292 OA
ATOM     16  C   LIG    1        0.757   1.618  -4.969  0.00  0.00    +0.025 C 
ATOM     17  C   LIG    1        0.547   2.403  -3.675  0.00  0.00    +0.009 C 
ATOM     18  C   LIG    1        1.582   2.036  -2.599  0.00  0.00    +0.011 C 
ATOM     19  C   LIG    1        1.474   0.552  -2.344  0.00  0.00    +0.006 C 
ATOM     20  C   LIG    1        0.000   0.212  -2.114  0.00  0.00    +0.015 C 
ENDROOT
BRANCH   1  21
ATOM     21  C   LIG    1        1.531  -0.094   0.075  0.00  0.00    +0.092 C 
ATOM     22  C   LIG    1        1.130   1.331   0.461  0.00  0.00    +0.044 C 
BRANCH  21  23
ATOM     23  O   LIG    1        0.356  -0.891  -0.091  0.00  0.00    -0.386 OA
ATOM     24  H   LIG    1       -0.395  -0.613  -0.844  0.00  0.00    +0.210 HD
ENDBRANCH  21  23
BRANCH  21  25
ATOM     25  C   LIG    1        2.404  -0.695   1.178  0.00  0.00    +0.146 C 
BRANCH  25  26
ATOM     26  O   LIG    1        2.709  -2.054   0.857  0.00  0.00    -0.389 OA
ATOM     27  H   LIG    1        3.252  -2.291  -0.070  0.00  0.00    +0.210 HD
ENDBRANCH  25  26
BRANCH  25  28
ATOM     28  C   LIG    1        1.651  -0.643   2.509  0.00  0.00    +0.040 C 
BRANCH  28  30
ATOM     29  C   LIG    1        3.739  -0.156   3.792  0.00  0.00    +0.010 C 
ATOM     30  C   LIG    1        2.568  -1.128   3.633  0.00  0.00    +0.020 C 
BRANCH  30  31
ATOM     31  C   LIG    1        1.780  -1.195   4.943  0.00  0.00    +0.063 C 
ATOM     32  C   LIG    1        0.609  -2.167   4.784  0.00  0.00    +0.041 C 
ATOM     33  C   LIG    1        1.244   0.197   5.286  0.00  0.00    +0.041 C 
BRANCH  31  34
ATOM     34  O   LIG    1        2.636  -1.648   5.993  0.00  0.00    -0.389 OA
ATOM     35  H   LIG    1        2.243  -1.760   7.014  0.00  0.00    +0.210 HD
ENDBRANCH  31  34
ENDBRANCH  30  31
ENDBRANCH  28  30
ENDBRANCH  25  28
ENDBRANCH  21  25
ENDBRANCH   1  21
BRANCH   4  36
ATOM     36  O   LIG    1        3.292   0.273  -3.975  0.00  0.00    -0.384 OA
ATOM     37  H   LIG    1        3.444   1.300  -4.339  0.00  0.00    +0.211 HD
ENDBRANCH   4  36
BRANCH  12  38
ATOM     38  O   LIG    1        1.096   4.720  -7.862  0.00  0.00    -0.389 OA
ATOM     39  H   LIG    1        1.956   4.984  -8.494  0.00  0.00    +0.210 HD
ENDBRANCH  12  38
BRANCH  13  40
ATOM     40  O   LIG    1       -0.195   2.657  -9.293  0.00  0.00    -0.389 OA
ATOM     41  H   LIG    1       -0.397   2.026 -10.170  0.00  0.00    +0.210 HD
ENDBRANCH  13  40
TORSDOF 11
