REMARK  Name = ZINC29230271
REMARK                            x       y       z     vdW  Elec       q    Type
REMARK                         _______ _______ _______ _____ _____    ______ ____
ROOT
ATOM      1  C   LIG    1       -5.434   4.016  -2.338  0.00  0.00    +0.105 C 
ATOM      2  N   LIG    1       -4.721   4.034  -1.053  0.00  0.00    -0.300 NA
ATOM      3  C   LIG    1       -5.460   3.285  -0.032  0.00  0.00    +0.119 C 
ATOM      4  C   LIG    1       -4.673   3.225   1.251  0.00  0.00    -0.026 A 
ATOM      5  C   LIG    1       -5.341   2.889   2.419  0.00  0.00    +0.050 A 
ATOM      6  C   LIG    1       -4.656   2.819   3.621  0.00  0.00    +0.120 A 
ATOM      7  C   LIG    1       -3.295   3.087   3.655  0.00  0.00    +0.046 A 
ATOM      8  C   LIG    1       -2.634   3.423   2.492  0.00  0.00    +0.008 A 
ATOM      9  C   LIG    1       -3.321   3.494   1.289  0.00  0.00    -0.034 A 
ATOM     10  C   LIG    1       -2.554   3.867   0.046  0.00  0.00    +0.063 C 
ATOM     11  C   LIG    1       -3.361   3.491  -1.198  0.00  0.00    +0.097 C 
ENDROOT
BRANCH  10  12
ATOM     12  C   LIG    1       -1.238   3.133   0.030  0.00  0.00    -0.037 A 
ATOM     13  C   LIG    1       -1.219   1.750   0.017  0.00  0.00    +0.006 A 
ATOM     14  C   LIG    1       -0.013   1.076   0.008  0.00  0.00    +0.022 A 
ATOM     15  C   LIG    1        1.176   1.784   0.000  0.00  0.00    +0.059 A 
ATOM     16 CL   LIG    1        2.691   0.937  -0.019  0.00  0.00    -0.082 Cl
ATOM     17  C   LIG    1        1.156   3.168   0.008  0.00  0.00    +0.060 A 
ATOM     18 CL   LIG    1        2.647   4.058  -0.003  0.00  0.00    -0.082 Cl
ATOM     19  C   LIG    1       -0.052   3.842   0.022  0.00  0.00    +0.025 A 
ENDBRANCH  10  12
BRANCH   6  20
ATOM     20  O   LIG    1       -5.315   2.489   4.763  0.00  0.00    -0.495 OA
ATOM     21  C   LIG    1       -4.544   2.436   5.965  0.00  0.00    +0.277 C 
ENDBRANCH   6  20
TORSDOF 2
