REMARK  Name = ZINC58538132
REMARK                            x       y       z     vdW  Elec       q    Type
REMARK                         _______ _______ _______ _____ _____    ______ ____
ROOT
ATOM      1  C   LIG    1       -0.243  -0.438  -2.280  0.00  0.00    -0.039 C 
ENDROOT
BRANCH   1   4
ATOM      2  C   LIG    1       -0.164   1.311   0.362  0.00  0.00    +0.068 C 
ATOM      3  C   LIG    1       -0.166  -0.195   0.297  0.00  0.00    +0.062 A 
ATOM      4  C   LIG    1       -0.200  -0.966  -0.869  0.00  0.00    -0.020 A 
ATOM      5  C   LIG    1       -0.189  -2.270  -0.508  0.00  0.00    +0.043 A 
ATOM      6  C   LIG    1       -0.216  -3.452  -1.442  0.00  0.00    +0.066 C 
ATOM      7  N   LIG    1       -0.148  -2.322   0.843  0.00  0.00    -0.237 N 
ATOM      8  N   LIG    1       -0.130  -1.006   1.324  0.00  0.00    -0.171 NA
BRANCH   7   9
ATOM      9  C   LIG    1       -0.124  -3.487   1.624  0.00  0.00    +0.066 A 
ATOM     10  C   LIG    1        0.677  -4.558   1.250  0.00  0.00    +0.030 A 
ATOM     11  C   LIG    1        0.699  -5.704   2.020  0.00  0.00    +0.040 A 
ATOM     12  C   LIG    1       -0.076  -5.786   3.164  0.00  0.00    +0.124 A 
ATOM     13  F   LIG    1       -0.054  -6.908   3.916  0.00  0.00    -0.205 F 
ATOM     14  C   LIG    1       -0.876  -4.718   3.538  0.00  0.00    +0.040 A 
ATOM     15  C   LIG    1       -0.896  -3.568   2.775  0.00  0.00    +0.030 A 
ENDBRANCH   7   9
ENDBRANCH   1   4
BRANCH   1  16
ATOM     16  N   LIG    1        1.127  -0.265  -2.780  0.00  0.00    +0.384 N 
ATOM     17  H   LIG    1        1.643   0.326  -2.147  0.00  0.00    -0.081 HD
ATOM     18  C   LIG    1        1.784  -1.576  -2.866  0.00  0.00    -0.059 C 
ATOM     19  C   LIG    1        3.248  -1.387  -3.277  0.00  0.00    +0.086 C 
ATOM     20  N   LIG    1        3.284  -0.607  -4.524  0.00  0.00    -0.333 N 
ATOM     21  C   LIG    1        2.515   0.646  -4.581  0.00  0.00    +0.086 C 
ATOM     22  C   LIG    1        1.086   0.361  -4.108  0.00  0.00    -0.059 C 
BRANCH  20  23
ATOM     23  C   LIG    1        4.027  -1.044  -5.623  0.00  0.00    +0.033 A 
ATOM     24  C   LIG    1        4.147  -0.237  -6.748  0.00  0.00    +0.023 A 
ATOM     25  C   LIG    1        4.882  -0.670  -7.834  0.00  0.00    +0.005 A 
ATOM     26  C   LIG    1        5.500  -1.905  -7.806  0.00  0.00    +0.046 A 
ATOM     27  C   LIG    1        5.385  -2.716  -6.685  0.00  0.00    +0.122 A 
ATOM     28  C   LIG    1        4.652  -2.283  -5.591  0.00  0.00    +0.068 A 
BRANCH  27  29
ATOM     29  O   LIG    1        5.994  -3.930  -6.659  0.00  0.00    -0.495 OA
ATOM     30  C   LIG    1        6.736  -4.309  -7.819  0.00  0.00    +0.277 C 
ENDBRANCH  27  29
ENDBRANCH  20  23
ENDBRANCH   1  16
TORSDOF 5
