REMARK  Name = ZINC28572604
REMARK                            x       y       z     vdW  Elec       q    Type
REMARK                         _______ _______ _______ _____ _____    ______ ____
ROOT
ATOM      1  C   LIG    1        0.587  -3.761  -1.743  0.00  0.00    +0.125 A 
ATOM      2  C   LIG    1        1.626  -4.571  -1.300  0.00  0.00    +0.046 A 
ATOM      3  C   LIG    1        1.740  -5.864  -1.762  0.00  0.00    +0.018 A 
ATOM      4  C   LIG    1        0.810  -6.361  -2.678  0.00  0.00    +0.051 A 
ATOM      5  C   LIG    1       -0.234  -5.544  -3.122  0.00  0.00    +0.137 A 
ATOM      6  F   LIG    1       -1.137  -6.019  -4.007  0.00  0.00    -0.205 F 
ATOM      7  C   LIG    1       -0.344  -4.251  -2.649  0.00  0.00    +0.084 A 
ENDROOT
BRANCH   4   8
ATOM      8  C   LIG    1        0.928  -7.747  -3.175  0.00  0.00    +0.122 A 
ATOM      9  N   LIG    1        0.117  -8.311  -4.036  0.00  0.00    -0.339 N 
ATOM     10  H   LIG    1       -0.732  -7.744  -4.445  0.00  0.00    +0.167 HD
ATOM     11  C   LIG    1        0.517  -9.586  -4.269  0.00  0.00    +0.065 A 
ATOM     12  C   LIG    1        0.026 -10.610  -5.080  0.00  0.00    +0.042 A 
ATOM     13  C   LIG    1        0.679 -11.839  -5.102  0.00  0.00    +0.061 A 
ATOM     14  C   LIG    1        1.820 -12.046  -4.315  0.00  0.00    +0.017 A 
ATOM     15  C   LIG    1        2.303 -11.046  -3.521  0.00  0.00    +0.029 A 
ATOM     16  C   LIG    1        1.665  -9.811  -3.486  0.00  0.00    +0.067 A 
ATOM     17  N   LIG    1        1.907  -8.634  -2.810  0.00  0.00    -0.322 N 
BRANCH  17  18
ATOM     18  C   LIG    1        3.003  -8.380  -1.872  0.00  0.00    +0.089 C 
ATOM     19  C   LIG    1        2.428  -8.017  -0.502  0.00  0.00    +0.025 C 
ATOM     20  C   LIG    1        3.574  -7.752   0.478  0.00  0.00    +0.002 C 
ATOM     21  C   LIG    1        4.429  -6.594  -0.040  0.00  0.00    +0.000 C 
ATOM     22  C   LIG    1        5.004  -6.957  -1.410  0.00  0.00    +0.002 C 
ATOM     23  C   LIG    1        3.859  -7.222  -2.390  0.00  0.00    +0.025 C 
ENDBRANCH  17  18
BRANCH  13  24
ATOM     24  C   LIG    1        0.167 -12.928  -5.956  0.00  0.00    +0.337 C 
ATOM     25  O   LIG    1       -0.822 -12.751  -6.638  0.00  0.00    -0.245 OA
BRANCH  24  26
ATOM     26  O   LIG    1        0.797 -14.119  -5.979  0.00  0.00    -0.477 OA
ATOM     27  H   LIG    1        1.560 -14.256  -5.452  0.00  0.00    +0.295 HD
ENDBRANCH  24  26
ENDBRANCH  13  24
ENDBRANCH   4   8
BRANCH   1  28
ATOM     28  O   LIG    1        0.480  -2.487  -1.285  0.00  0.00    -0.479 OA
BRANCH  28  29
ATOM     29  C   LIG    1       -0.686  -1.755  -1.669  0.00  0.00    +0.237 C 
BRANCH  29  32
ATOM     30  C   LIG    1       -2.704   0.279   0.787  0.00  0.00    +0.020 A 
ATOM     31  C   LIG    1       -2.400  -0.608  -0.235  0.00  0.00    +0.010 A 
ATOM     32  C   LIG    1       -1.067  -0.802  -0.566  0.00  0.00    +0.015 A 
ATOM     33  C   LIG    1       -0.093  -0.110   0.129  0.00  0.00    +0.118 A 
ATOM     34  N   LIG    1       -0.419   0.725   1.096  0.00  0.00    -0.263 NA
ATOM     35  C   LIG    1       -1.675   0.934   1.437  0.00  0.00    +0.111 A 
ENDBRANCH  29  32
BRANCH  29  36
ATOM     36  C   LIG    1       -0.399  -0.978  -2.928  0.00  0.00    +0.015 A 
ATOM     37  C   LIG    1       -1.387  -0.800  -3.884  0.00  0.00    +0.010 A 
ATOM     38  C   LIG    1       -1.079  -0.075  -5.025  0.00  0.00    +0.020 A 
ATOM     39  C   LIG    1        0.197   0.436  -5.174  0.00  0.00    +0.111 A 
ATOM     40  N   LIG    1        1.113   0.243  -4.246  0.00  0.00    -0.263 NA
ATOM     41  C   LIG    1        0.855  -0.438  -3.146  0.00  0.00    +0.118 A 
ENDBRANCH  29  36
ENDBRANCH  28  29
ENDBRANCH   1  28
TORSDOF 8
