REMARK  Name = ZINC16958226
REMARK                            x       y       z     vdW  Elec       q    Type
REMARK                         _______ _______ _______ _____ _____    ______ ____
ROOT
ATOM      1  N   LIG    1        2.490   1.311  -0.015  0.00  0.00    -0.292 N 
ATOM      2  C   LIG    1        3.224   2.465  -0.015  0.00  0.00    +0.196 A 
ATOM      3  N   LIG    1        2.414   3.494  -0.002  0.00  0.00    -0.207 NA
ATOM      4  C   LIG    1        1.131   3.049   0.008  0.00  0.00    +0.174 A 
ATOM      5  C   LIG    1       -0.179   3.704   0.023  0.00  0.00    +0.280 A 
ATOM      6  O   LIG    1       -0.268   4.922   0.030  0.00  0.00    -0.265 OA
ATOM      7  N   LIG    1       -1.280   2.936   0.030  0.00  0.00    -0.293 N 
ATOM      8  C   LIG    1       -1.200   1.623   0.016  0.00  0.00    +0.195 A 
ATOM      9  N   LIG    1       -0.011   0.966   0.007  0.00  0.00    -0.196 NA
ATOM     10  H   LIG    1       -2.265   3.427   0.046  0.00  0.00    +0.172 HD
ATOM     11  C   LIG    1        1.171   1.662  -0.000  0.00  0.00    +0.171 A 
ENDROOT
BRANCH   2  12
ATOM     12  N   LIG    1        4.605   2.535  -0.028  0.00  0.00    -0.329 N 
ATOM     13  H   LIG    1        5.202   1.611  -0.039  0.00  0.00    +0.145 HD
ATOM     14  H   LIG    1        5.107   3.514  -0.028  0.00  0.00    +0.145 HD
ENDBRANCH   2  12
BRANCH   8  15
ATOM     15  N   LIG    1       -2.358   0.892   0.011  0.00  0.00    -0.329 N 
ATOM     16  H   LIG    1       -2.314  -0.207   0.000  0.00  0.00    +0.145 HD
ATOM     17  H   LIG    1       -3.332   1.403   0.018  0.00  0.00    +0.145 HD
ENDBRANCH   8  15
BRANCH   1  18
ATOM     18  C   LIG    1        3.022  -0.054  -0.028  0.00  0.00    +0.161 C 
BRANCH  18  22
ATOM     19  C   LIG    1        3.503  -1.357  -4.068  0.00  0.00    +0.000 A 
ATOM     20  C   LIG    1        4.540  -0.711  -3.422  0.00  0.00    +0.000 A 
ATOM     21  C   LIG    1        4.385  -0.289  -2.115  0.00  0.00    +0.005 A 
ATOM     22  C   LIG    1        3.192  -0.514  -1.453  0.00  0.00    -0.028 A 
ATOM     23  C   LIG    1        2.156  -1.165  -2.097  0.00  0.00    +0.005 A 
ATOM     24  C   LIG    1        2.310  -1.582  -3.406  0.00  0.00    +0.000 A 
ENDBRANCH  18  22
ENDBRANCH   1  18
TORSDOF 4
