REMARK  Name = ZINC28881381
REMARK                            x       y       z     vdW  Elec       q    Type
REMARK                         _______ _______ _______ _____ _____    ______ ____
ROOT
ATOM      1  N   LIG    1       -1.185  -0.736   0.010  0.00  0.00    -0.281 N 
ATOM      2  H   LIG    1       -1.156  -1.832  -0.074  0.00  0.00    +0.155 HD
ATOM      3  C   LIG    1       -2.368  -0.100   0.127  0.00  0.00    +0.250 C 
ATOM      4  O   LIG    1       -2.406   1.115   0.134  0.00  0.00    -0.270 OA
ENDROOT
BRANCH   3   5
ATOM      5  C   LIG    1       -3.615  -0.878   0.246  0.00  0.00    +0.066 A 
ATOM      6  C   LIG    1       -3.577  -2.275   0.233  0.00  0.00    +0.015 A 
ATOM      7  C   LIG    1       -4.745  -2.998   0.352  0.00  0.00    +0.004 A 
ATOM      8  C   LIG    1       -5.963  -2.351   0.471  0.00  0.00    +0.048 A 
ATOM      9  C   LIG    1       -6.020  -0.967   0.480  0.00  0.00    +0.160 A 
ATOM     10  O   LIG    1       -7.045  -0.085   0.582  0.00  0.00    -0.409 OA
ATOM     11  C   LIG    1       -6.555   1.164   0.538  0.00  0.00    +0.394 A 
ATOM     12  N   LIG    1       -5.215   1.114   0.407  0.00  0.00    -0.174 NA
ATOM     13  C   LIG    1       -4.846  -0.223   0.368  0.00  0.00    +0.125 A 
BRANCH  11  14
ATOM     14  O   LIG    1       -7.217   2.181   0.605  0.00  0.00    -0.465 OA
ATOM     15  H   LIG    1       -6.796   3.018   0.566  0.00  0.00    +0.297 HD
ENDBRANCH  11  14
ENDBRANCH   3   5
BRANCH   1  19
ATOM     16  C   LIG    1        1.327   3.308  -1.238  0.00  0.00    +0.065 C 
ATOM     17  C   LIG    1        1.252   1.946  -0.595  0.00  0.00    +0.040 A 
ATOM     18  C   LIG    1        0.059   1.255  -0.602  0.00  0.00    +0.046 A 
ATOM     19  C   LIG    1        0.002  -0.004  -0.004  0.00  0.00    +0.037 A 
ATOM     20  C   LIG    1        1.162  -0.511   0.578  0.00  0.00    +0.043 A 
ATOM     21  C   LIG    1        2.316   0.244   0.542  0.00  0.00    +0.113 A 
ATOM     22  N   LIG    1        2.329   1.431  -0.034  0.00  0.00    -0.260 NA
ENDBRANCH   1  19
TORSDOF 3
