REMARK  Name = ZINC32915988
REMARK                            x       y       z     vdW  Elec       q    Type
REMARK                         _______ _______ _______ _____ _____    ______ ____
ROOT
ATOM      1  C   LIG    1        5.233   3.749   0.269  0.00  0.00    +0.001 A 
ATOM      2  C   LIG    1        5.577   5.090   0.229  0.00  0.00    +0.002 A 
ATOM      3  C   LIG    1        4.603   6.064   0.125  0.00  0.00    +0.024 A 
ATOM      4  C   LIG    1        3.262   5.706   0.059  0.00  0.00    +0.042 A 
ATOM      5  C   LIG    1        2.916   4.347   0.105  0.00  0.00    +0.009 A 
ATOM      6  C   LIG    1        1.445   4.285   0.011  0.00  0.00    +0.059 C 
ATOM      7  C   LIG    1        1.007   5.699  -0.080  0.00  0.00    +0.250 C 
ATOM      8  O   LIG    1       -0.141   6.088  -0.168  0.00  0.00    -0.270 OA
ATOM      9  C   LIG    1        0.648   3.154   0.013  0.00  0.00    +0.059 C 
ATOM     10  C   LIG    1       -0.811   3.084   0.225  0.00  0.00    +0.009 A 
ATOM     11  C   LIG    1       -1.786   4.049   0.472  0.00  0.00    +0.010 A 
ATOM     12  C   LIG    1       -3.102   3.665   0.629  0.00  0.00    +0.001 A 
ATOM     13  C   LIG    1       -3.451   2.327   0.541  0.00  0.00    +0.002 A 
ATOM     14  C   LIG    1       -2.493   1.364   0.296  0.00  0.00    +0.024 A 
ATOM     15  C   LIG    1       -1.162   1.729   0.130  0.00  0.00    +0.042 A 
ATOM     16  N   LIG    1       -0.021   0.973  -0.115  0.00  0.00    -0.281 N 
ATOM     17  H   LIG    1       -0.096  -0.120  -0.214  0.00  0.00    +0.155 HD
ATOM     18  C   LIG    1        1.073   1.749  -0.198  0.00  0.00    +0.250 C 
ATOM     19  O   LIG    1        2.208   1.368  -0.408  0.00  0.00    -0.270 OA
ATOM     20  N   LIG    1        2.106   6.472  -0.047  0.00  0.00    -0.281 N 
ATOM     21  H   LIG    1        2.175   7.569  -0.092  0.00  0.00    +0.155 HD
ATOM     22  C   LIG    1        3.908   3.372   0.204  0.00  0.00    +0.010 A 
ENDROOT
TORSDOF 0
