REMARK  Name = ZINC22695608
REMARK                            x       y       z     vdW  Elec       q    Type
REMARK                         _______ _______ _______ _____ _____    ______ ____
ROOT
ATOM      1  C   LIG    1       -2.963  -3.901   0.542  0.00  0.00    +0.279 C 
ATOM      2  N   LIG    1       -2.739  -2.573   0.505  0.00  0.00    -0.309 N 
ATOM      3  H   LIG    1       -3.571  -1.870   0.662  0.00  0.00    +0.149 HD
ATOM      4  O   LIG    1       -2.043  -4.679   0.369  0.00  0.00    -0.267 OA
ENDROOT
BRANCH   1   8
ATOM      5  C   LIG    1       -6.474  -4.466   1.196  0.00  0.00    +0.136 A 
ATOM      6  C   LIG    1       -6.056  -5.763   1.113  0.00  0.00    +0.050 A 
ATOM      7  C   LIG    1       -4.681  -5.736   0.857  0.00  0.00    +0.055 A 
ATOM      8  C   LIG    1       -4.315  -4.409   0.793  0.00  0.00    +0.190 A 
ATOM      9  O   LIG    1       -5.417  -3.659   1.006  0.00  0.00    -0.450 OA
BRANCH   5  16
ATOM     10  C   LIG    1       -8.874  -4.965   1.638  0.00  0.00    +0.013 A 
ATOM     11  C   LIG    1      -10.164  -4.545   1.886  0.00  0.00    +0.021 A 
ATOM     12  C   LIG    1      -10.455  -3.192   1.945  0.00  0.00    +0.041 A 
ATOM     13 CL   LIG    1      -12.083  -2.671   2.251  0.00  0.00    -0.084 Cl
ATOM     14  C   LIG    1       -9.454  -2.253   1.761  0.00  0.00    +0.021 A 
ATOM     15  C   LIG    1       -8.159  -2.660   1.517  0.00  0.00    +0.013 A 
ATOM     16  C   LIG    1       -7.859  -4.023   1.457  0.00  0.00    +0.017 A 
ENDBRANCH   5  16
ENDBRANCH   1   8
BRANCH   2  17
ATOM     17  C   LIG    1       -1.388  -2.064   0.255  0.00  0.00    +0.103 C 
BRANCH  17  18
ATOM     18  C   LIG    1       -1.409  -0.535   0.263  0.00  0.00    +0.000 C 
BRANCH  18  19
ATOM     19  C   LIG    1        0.002  -0.004   0.002  0.00  0.00    -0.077 C 
BRANCH  19  20
ATOM     20  N   LIG    1       -0.018   1.465   0.010  0.00  0.00    +0.380 N 
ATOM     21  H   LIG    1       -0.503   1.793   0.941  0.00  0.00    -0.082 HD
ATOM     22  C   LIG    1       -0.806   1.987  -1.113  0.00  0.00    -0.079 C 
ATOM     23  C   LIG    1       -0.927   3.507  -0.991  0.00  0.00    -0.019 C 
ATOM     24  C   LIG    1        0.473   4.127  -0.995  0.00  0.00    -0.004 C 
ATOM     25  C   LIG    1        1.290   3.531   0.155  0.00  0.00    -0.019 C 
ATOM     26  C   LIG    1        1.346   2.010   0.000  0.00  0.00    -0.079 C 
ENDBRANCH  19  20
ENDBRANCH  18  19
ENDBRANCH  17  18
ENDBRANCH   2  17
TORSDOF 6
