REMARK  Name = ZINC00057676
REMARK                            x       y       z     vdW  Elec       q    Type
REMARK                         _______ _______ _______ _____ _____    ______ ____
ROOT
ATOM      1  C   LIG    1        3.695  -0.683  -0.037  0.00  0.00    +0.139 A 
ATOM      2  C   LIG    1        3.686  -2.043  -0.050  0.00  0.00    +0.098 A 
ATOM      3  C   LIG    1        4.914  -2.747  -0.066  0.00  0.00    +0.197 A 
ATOM      4  C   LIG    1        6.153  -1.949  -0.068  0.00  0.00    +0.105 A 
ATOM      5  C   LIG    1        7.412  -2.559  -0.084  0.00  0.00    +0.131 A 
ATOM      6  C   LIG    1        8.550  -1.770  -0.086  0.00  0.00    +0.046 A 
ATOM      7  C   LIG    1        8.441  -0.390  -0.072  0.00  0.00    +0.007 A 
ATOM      8  C   LIG    1        7.204   0.221  -0.056  0.00  0.00    +0.047 A 
ATOM      9  C   LIG    1        6.048  -0.549  -0.054  0.00  0.00    +0.143 A 
ATOM     10  O   LIG    1        4.946  -3.967  -0.079  0.00  0.00    -0.287 OA
ATOM     11  O   LIG    1        4.830   0.032  -0.045  0.00  0.00    -0.454 OA
ENDROOT
BRANCH   1  15
ATOM     12  C   LIG    1       -0.017   1.379   0.010  0.00  0.00    +0.000 A 
ATOM     13  C   LIG    1        1.168   2.094   0.002  0.00  0.00    +0.001 A 
ATOM     14  C   LIG    1        2.377   1.430  -0.013  0.00  0.00    +0.011 A 
ATOM     15  C   LIG    1        2.404   0.034  -0.021  0.00  0.00    +0.017 A 
ATOM     16  C   LIG    1        1.204  -0.681  -0.013  0.00  0.00    +0.011 A 
ATOM     17  C   LIG    1        0.002  -0.004   0.002  0.00  0.00    +0.001 A 
ENDBRANCH   1  15
BRANCH   5  18
ATOM     18  O   LIG    1        7.518  -3.912  -0.097  0.00  0.00    -0.506 OA
ATOM     19  H   LIG    1        7.541  -4.296  -0.985  0.00  0.00    +0.292 HD
ENDBRANCH   5  18
TORSDOF 2
