REMARK  Name = ZINC38149571
REMARK                            x       y       z     vdW  Elec       q    Type
REMARK                         _______ _______ _______ _____ _____    ______ ____
ROOT
ATOM      1  C   LIG    1        3.487  -0.939   0.417  0.00  0.00    +0.003 A 
ATOM      2  C   LIG    1        4.720  -0.561  -0.137  0.00  0.00    +0.011 A 
ATOM      3  C   LIG    1        5.827  -1.334   0.035  0.00  0.00    +0.014 A 
ATOM      4  C   LIG    1        5.740  -2.522   0.773  0.00  0.00    +0.040 A 
ATOM      5  C   LIG    1        4.502  -2.915   1.338  0.00  0.00    +0.077 A 
ATOM      6  N   LIG    1        4.447  -4.057   2.040  0.00  0.00    -0.235 NA
ATOM      7  C   LIG    1        5.522  -4.793   2.199  0.00  0.00    +0.223 A 
ATOM      8  N   LIG    1        6.699  -4.466   1.690  0.00  0.00    -0.220 NA
ATOM      9  C   LIG    1        6.864  -3.358   0.979  0.00  0.00    +0.134 A 
ATOM     10  C   LIG    1        3.374  -2.105   1.155  0.00  0.00    +0.038 A 
ENDROOT
BRANCH   1  14
ATOM     11  C   LIG    1        0.104   1.502  -0.122  0.00  0.00    +0.020 A 
ATOM     12  C   LIG    1        0.783   1.060  -1.249  0.00  0.00    +0.016 A 
ATOM     13  C   LIG    1        1.897   0.257  -1.077  0.00  0.00    +0.081 A 
ATOM     14  C   LIG    1        2.296  -0.079   0.216  0.00  0.00    +0.083 A 
ATOM     15  N   LIG    1        1.619   0.364   1.267  0.00  0.00    -0.254 NA
ATOM     16  C   LIG    1        0.555   1.129   1.131  0.00  0.00    +0.111 A 
BRANCH  13  17
ATOM     17  C   LIG    1        2.668  -0.247  -2.269  0.00  0.00    +0.419 C 
ATOM     18  F   LIG    1        2.787  -1.639  -2.193  0.00  0.00    -0.166 F 
ATOM     19  F   LIG    1        3.942   0.330  -2.280  0.00  0.00    -0.166 F 
ATOM     20  F   LIG    1        1.990   0.099  -3.443  0.00  0.00    -0.166 F 
ENDBRANCH  13  17
ENDBRANCH   1  14
BRANCH   9  21
ATOM     21  N   LIG    1        8.097  -3.031   0.454  0.00  0.00    -0.299 N 
ATOM     22  H   LIG    1        8.221  -2.182   0.001  0.00  0.00    +0.154 HD
BRANCH  21  23
ATOM     23  C   LIG    1        9.167  -3.922   0.575  0.00  0.00    +0.032 A 
ATOM     24  C   LIG    1       10.471  -3.444   0.603  0.00  0.00    +0.024 A 
ATOM     25  C   LIG    1       11.526  -4.327   0.722  0.00  0.00    +0.014 A 
ATOM     26  C   LIG    1       11.286  -5.685   0.814  0.00  0.00    +0.055 A 
ATOM     27  C   LIG    1        9.989  -6.165   0.787  0.00  0.00    +0.014 A 
ATOM     28  C   LIG    1        8.929  -5.287   0.673  0.00  0.00    +0.024 A 
BRANCH  26  29
ATOM     29  C   LIG    1       12.440  -6.646   0.944  0.00  0.00    +0.417 C 
ATOM     30  F   LIG    1       13.561  -6.117   0.296  0.00  0.00    -0.166 F 
ATOM     31  F   LIG    1       12.096  -7.869   0.358  0.00  0.00    -0.166 F 
ATOM     32  F   LIG    1       12.732  -6.843   2.298  0.00  0.00    -0.166 F 
ENDBRANCH  26  29
ENDBRANCH  21  23
ENDBRANCH   9  21
TORSDOF 5
