REMARK  Name = ZINC26850597
REMARK                            x       y       z     vdW  Elec       q    Type
REMARK                         _______ _______ _______ _____ _____    ______ ____
ROOT
ATOM      1  C   LIG    1        1.740   2.628   1.242  0.00  0.00    +0.032 C 
ATOM      2  C   LIG    1        1.429   1.793  -0.002  0.00  0.00    +0.132 C 
ATOM      3  C   LIG    1       -0.016   1.342   0.009  0.00  0.00    +0.247 C 
ATOM      4  N   LIG    1        0.002  -0.004   0.002  0.00  0.00    -0.216 N 
ATOM      5  C   LIG    1       -1.191  -0.865  -0.082  0.00  0.00    +0.131 C 
ATOM      6  C   LIG    1       -0.821  -2.259   0.434  0.00  0.00    +0.023 C 
ATOM      7  C   LIG    1        0.437  -2.747  -0.290  0.00  0.00    +0.037 C 
ATOM      8  C   LIG    1        1.642  -1.929   0.188  0.00  0.00    +0.205 C 
ATOM      9  N   LIG    1        1.313  -0.498   0.064  0.00  0.00    -0.203 N 
ATOM     10  O   LIG    1       -0.998   2.054   0.018  0.00  0.00    -0.273 OA
ATOM     11  C   LIG    1        2.216   0.500   0.017  0.00  0.00    +0.248 C 
ATOM     12  O   LIG    1        3.423   0.386  -0.006  0.00  0.00    -0.273 OA
ENDROOT
BRANCH   8  13
ATOM     13  C   LIG    1        2.842  -2.249  -0.666  0.00  0.00    +0.327 C 
ATOM     14  O   LIG    1        3.373  -1.377  -1.312  0.00  0.00    -0.249 OA
BRANCH  13  15
ATOM     15  O   LIG    1        3.321  -3.502  -0.707  0.00  0.00    -0.479 OA
ATOM     16  H   LIG    1        2.909  -4.178  -0.206  0.00  0.00    +0.295 HD
ENDBRANCH  13  15
ENDBRANCH   8  13
BRANCH   2  17
ATOM     17  C   LIG    1        1.733   2.588  -1.274  0.00  0.00    +0.091 C 
BRANCH  17  18
ATOM     18  S   LIG    1        0.690   4.071  -1.323  0.00  0.00    -0.177 S 
ATOM     19  H   LIG    1        0.768   4.770  -2.169  0.00  0.00    +0.102 HD
ENDBRANCH  17  18
ENDBRANCH   2  17
TORSDOF 4
