REMARK  Name = ZINC14955547
REMARK                            x       y       z     vdW  Elec       q    Type
REMARK                         _______ _______ _______ _____ _____    ______ ____
ROOT
ATOM      1  C   LIG    1       -0.718   1.572   1.248  0.00  0.00    +0.089 A 
ATOM      2  C   LIG    1       -0.450   2.777   1.925  0.00  0.00    +0.119 A 
ATOM      3  C   LIG    1       -1.329   2.838   3.015  0.00  0.00    +0.151 A 
ATOM      4  N   LIG    1       -2.083   1.698   2.982  0.00  0.00    -0.260 N 
ATOM      5  C   LIG    1       -3.133   1.331   3.936  0.00  0.00    +0.173 C 
ATOM      6  C   LIG    1       -1.275   3.961   3.872  0.00  0.00    +0.278 A 
ATOM      7  N   LIG    1       -0.379   4.935   3.599  0.00  0.00    -0.305 N 
ATOM      8  C   LIG    1        0.452   4.826   2.517  0.00  0.00    +0.145 A 
ATOM      9  H   LIG    1       -0.324   5.715   4.173  0.00  0.00    +0.170 HD
ATOM     10  O   LIG    1       -2.020   4.049   4.833  0.00  0.00    -0.265 OA
ATOM     11  N   LIG    1        0.414   3.791   1.714  0.00  0.00    -0.225 NA
ATOM     12  N   LIG    1       -1.675   0.942   1.875  0.00  0.00    -0.174 NA
ENDROOT
BRANCH   8  13
ATOM     13  C   LIG    1        1.420   5.908   2.246  0.00  0.00    +0.060 A 
ATOM     14  C   LIG    1        1.476   7.020   3.080  0.00  0.00    +0.026 A 
ATOM     15  C   LIG    1        2.398   8.036   2.819  0.00  0.00    +0.018 A 
ATOM     16  C   LIG    1        3.255   7.936   1.713  0.00  0.00    +0.015 A 
ATOM     17  C   LIG    1        3.194   6.838   0.887  0.00  0.00    +0.047 A 
ATOM     18  C   LIG    1        2.283   5.820   1.142  0.00  0.00    +0.131 A 
BRANCH  15  19
ATOM     19  C   LIG    1        2.466   9.211   3.698  0.00  0.00    +0.160 C 
ATOM     20  C   LIG    1        3.458  10.309   3.413  0.00  0.00    +0.091 C 
ATOM     21  O   LIG    1        1.725   9.296   4.654  0.00  0.00    -0.292 OA
ENDBRANCH  15  19
BRANCH  18  22
ATOM     22  O   LIG    1        2.228   4.740   0.325  0.00  0.00    -0.492 OA
BRANCH  22  23
ATOM     23  C   LIG    1        3.135   4.716  -0.779  0.00  0.00    +0.226 C 
ATOM     24  C   LIG    1        2.927   3.430  -1.582  0.00  0.00    +0.048 C 
ENDBRANCH  22  23
ENDBRANCH  18  22
ENDBRANCH   8  13
BRANCH   1  25
ATOM     25  C   LIG    1       -0.013   1.086   0.008  0.00  0.00    +0.059 C 
BRANCH  25  27
ATOM     26  C   LIG    1       -0.037   1.099  -2.490  0.00  0.00    +0.004 C 
ATOM     27  C   LIG    1       -0.753   1.593  -1.232  0.00  0.00    +0.003 C 
ENDBRANCH  25  27
ENDBRANCH   1  25
TORSDOF 6
