REMARK  Name = ZINC19368911
REMARK                            x       y       z     vdW  Elec       q    Type
REMARK                         _______ _______ _______ _____ _____    ______ ____
ROOT
ATOM      1  C   LIG    1        1.247  -4.025  -0.070  0.00  0.00    -0.032 C 
ATOM      2  C   LIG    1        1.703  -4.494  -1.414  0.00  0.00    +0.025 C 
ATOM      3  C   LIG    1        1.389  -5.933  -1.661  0.00  0.00    -0.035 A 
ATOM      4  C   LIG    1        0.311  -6.266  -2.473  0.00  0.00    +0.004 A 
ATOM      5  C   LIG    1       -0.006  -7.595  -2.678  0.00  0.00    +0.000 A 
ATOM      6  C   LIG    1        0.738  -8.595  -2.077  0.00  0.00    +0.001 A 
ATOM      7  C   LIG    1        1.818  -8.265  -1.280  0.00  0.00    +0.015 A 
ATOM      8  C   LIG    1        2.139  -6.924  -1.098  0.00  0.00    +0.016 A 
ATOM      9  S   LIG    1        3.559  -6.465  -0.169  0.00  0.00    -0.089 S 
ATOM     10  C   LIG    1        2.975  -5.511   1.185  0.00  0.00    +0.014 A 
ATOM     11  C   LIG    1        3.552  -5.824   2.428  0.00  0.00    +0.017 A 
ATOM     12  C   LIG    1        3.218  -5.149   3.573  0.00  0.00    +0.021 A 
ATOM     13  C   LIG    1        2.288  -4.126   3.501  0.00  0.00    +0.041 A 
ATOM     14 CL   LIG    1        1.854  -3.235   4.926  0.00  0.00    -0.084 Cl
ATOM     15  C   LIG    1        1.711  -3.823   2.292  0.00  0.00    +0.023 A 
ATOM     16  C   LIG    1        2.033  -4.514   1.114  0.00  0.00    -0.045 A 
ENDROOT
BRANCH   1  21
ATOM     17  C   LIG    1        1.845   1.425  -1.365  0.00  0.00    +0.104 C 
ATOM     18  N   LIG    1        1.792  -0.042  -1.319  0.00  0.00    -0.309 NA
ATOM     19  C   LIG    1        2.696  -0.570  -0.288  0.00  0.00    +0.065 C 
ATOM     20  C   LIG    1        2.656  -2.099  -0.313  0.00  0.00    -0.062 C 
ATOM     21  N   LIG    1        1.282  -2.557  -0.064  0.00  0.00    +0.386 N 
ATOM     22  H   LIG    1        0.972  -2.217   0.834  0.00  0.00    -0.081 HD
ATOM     23  C   LIG    1        0.395  -2.042  -1.115  0.00  0.00    -0.062 C 
ATOM     24  C   LIG    1        0.417  -0.512  -1.097  0.00  0.00    +0.065 C 
ENDBRANCH   1  21
TORSDOF 1
