REMARK  Name = ZINC14115100
REMARK                            x       y       z     vdW  Elec       q    Type
REMARK                         _______ _______ _______ _____ _____    ______ ____
ROOT
ATOM      1  N   LIG    1       -3.566   2.042  -0.183  0.00  0.00    -0.285 N 
ATOM      2  C   LIG    1       -2.397   1.378  -0.090  0.00  0.00    +0.307 C 
ATOM      3  N   LIG    1       -1.239   2.061   0.009  0.00  0.00    -0.267 N 
ATOM      4  H   LIG    1       -1.252   3.027   0.096  0.00  0.00    +0.156 HD
ATOM      5  O   LIG    1       -2.386   0.162  -0.095  0.00  0.00    -0.252 OA
ENDROOT
BRANCH   3   6
ATOM      6  C   LIG    1       -0.016   1.376  -0.014  0.00  0.00    +0.070 A 
ATOM      7  C   LIG    1        0.073   0.135  -0.629  0.00  0.00    +0.029 A 
ATOM      8  C   LIG    1        1.281  -0.536  -0.655  0.00  0.00    +0.040 A 
ATOM      9  C   LIG    1        2.402   0.028  -0.069  0.00  0.00    +0.126 A 
ATOM     10  F   LIG    1        3.581  -0.631  -0.097  0.00  0.00    -0.205 F 
ATOM     11  C   LIG    1        2.316   1.265   0.545  0.00  0.00    +0.078 A 
ATOM     12  C   LIG    1        1.109   1.941   0.574  0.00  0.00    +0.147 A 
ATOM     13  F   LIG    1        1.025   3.149   1.173  0.00  0.00    -0.203 F 
ENDBRANCH   3   6
BRANCH   1  14
ATOM     14  C   LIG    1       -3.578   3.507  -0.176  0.00  0.00    +0.109 C 
BRANCH  14  15
ATOM     15  C   LIG    1       -3.464   4.024  -1.612  0.00  0.00    +0.019 C 
BRANCH  15  16
ATOM     16  C   LIG    1       -3.478   5.554  -1.605  0.00  0.00    +0.002 C 
BRANCH  16  17
ATOM     17  C   LIG    1       -3.364   6.071  -3.041  0.00  0.00    +0.000 C 
BRANCH  17  18
ATOM     18  C   LIG    1       -3.377   7.601  -3.035  0.00  0.00    -0.000 C 
BRANCH  18  20
ATOM     19  C   LIG    1       -3.276   9.648  -4.464  0.00  0.00    +0.004 C 
ATOM     20  C   LIG    1       -3.263   8.118  -4.470  0.00  0.00    -0.003 C 
ENDBRANCH  18  20
ENDBRANCH  17  18
ENDBRANCH  16  17
ENDBRANCH  15  16
ENDBRANCH  14  15
ENDBRANCH   1  14
BRANCH   1  21
ATOM     21  C   LIG    1       -4.824   1.299  -0.290  0.00  0.00    +0.114 C 
BRANCH  21  22
ATOM     22  C   LIG    1       -5.380   1.034   1.111  0.00  0.00    +0.054 C 
BRANCH  22  23
ATOM     23  C   LIG    1       -6.674   0.269   1.000  0.00  0.00    -0.046 A 
ATOM     24  C   LIG    1       -7.873   0.953   0.911  0.00  0.00    +0.005 A 
ATOM     25  C   LIG    1       -9.061   0.256   0.804  0.00  0.00    +0.015 A 
ATOM     26  C   LIG    1       -9.050  -1.134   0.798  0.00  0.00    +0.009 A 
ATOM     27  C   LIG    1       -7.844  -1.817   0.894  0.00  0.00    +0.015 A 
ATOM     28  C   LIG    1       -6.660  -1.114   0.995  0.00  0.00    +0.005 A 
BRANCH  26  29
ATOM     29  S   LIG    1      -10.564  -2.028   0.669  0.00  0.00    -0.108 S 
BRANCH  29  30
ATOM     30  C   LIG    1      -11.160  -2.130   2.379  0.00  0.00    +0.112 C 
ATOM     31  C   LIG    1      -11.252  -0.723   2.972  0.00  0.00    +0.034 C 
ATOM     32  C   LIG    1      -10.188  -2.971   3.208  0.00  0.00    +0.034 C 
BRANCH  30  33
ATOM     33  C   LIG    1      -12.523  -2.773   2.397  0.00  0.00    +0.321 C 
ATOM     34  O   LIG    1      -13.039  -3.127   1.363  0.00  0.00    -0.249 OA
BRANCH  33  35
ATOM     35  O   LIG    1      -13.164  -2.954   3.563  0.00  0.00    -0.480 OA
ATOM     36  H   LIG    1      -12.764  -2.680   4.365  0.00  0.00    +0.295 HD
ENDBRANCH  33  35
ENDBRANCH  30  33
ENDBRANCH  29  30
ENDBRANCH  26  29
ENDBRANCH  22  23
ENDBRANCH  21  22
ENDBRANCH   1  21
TORSDOF 14
