REMARK  Name = ZINC13840580
REMARK                            x       y       z     vdW  Elec       q    Type
REMARK                         _______ _______ _______ _____ _____    ______ ____
ROOT
ATOM      1  C   LIG    1       -3.733   3.473   0.037  0.00  0.00    +0.001 A 
ATOM      2  C   LIG    1       -3.505   2.466  -0.886  0.00  0.00    +0.001 A 
ATOM      3  C   LIG    1       -2.302   1.789  -0.899  0.00  0.00    +0.010 A 
ATOM      4  C   LIG    1       -1.309   2.115   0.020  0.00  0.00    -0.001 A 
ATOM      5  C   LIG    1       -1.541   3.135   0.962  0.00  0.00    +0.059 A 
ATOM      6  C   LIG    1       -2.762   3.812   0.956  0.00  0.00    +0.019 A 
ENDROOT
BRANCH   4   7
ATOM      7  C   LIG    1       -0.017   1.391   0.010  0.00  0.00    -0.016 A 
ATOM      8  C   LIG    1        1.183   2.102   0.002  0.00  0.00    +0.012 A 
ATOM      9  C   LIG    1        2.384   1.424  -0.013  0.00  0.00    +0.046 A 
ATOM     10  C   LIG    1        2.399   0.035  -0.020  0.00  0.00    +0.117 A 
ATOM     11  C   LIG    1        1.206  -0.675  -0.013  0.00  0.00    +0.046 A 
ATOM     12  C   LIG    1        0.002  -0.004   0.002  0.00  0.00    +0.012 A 
BRANCH  10  13
ATOM     13  O   LIG    1        3.584  -0.629  -0.035  0.00  0.00    -0.507 OA
ATOM     14  H   LIG    1        3.918  -0.817  -0.923  0.00  0.00    +0.292 HD
ENDBRANCH  10  13
ENDBRANCH   4   7
BRANCH   5  15
ATOM     15  C   LIG    1       -0.531   3.478   1.917  0.00  0.00    +0.100 C 
ATOM     16  N   LIG    1        0.271   3.750   2.674  0.00  0.00    -0.191 NA
ENDBRANCH   5  15
TORSDOF 3
