REMARK  Name = ZINC13823770
REMARK                            x       y       z     vdW  Elec       q    Type
REMARK                         _______ _______ _______ _____ _____    ______ ____
ROOT
ATOM      1  C   LIG    1        0.907   5.971   0.025  0.00  0.00    +0.019 C 
ENDROOT
BRANCH   1   7
ATOM      2  C   LIG    1       -0.866   4.091   0.032  0.00  0.00    +0.012 A 
ATOM      3  C   LIG    1       -1.089   2.727   0.021  0.00  0.00    +0.023 A 
ATOM      4  C   LIG    1       -0.024   1.887   0.012  0.00  0.00    +0.055 A 
ATOM      5 BR   LIG    1        0.002  -0.004   0.002  0.00  0.00    -0.043 Br
ATOM      6  S   LIG    1        1.348   3.030   0.005  0.00  0.00    -0.086 S 
ATOM      7  C   LIG    1        0.410   4.549   0.023  0.00  0.00    -0.007 A 
ENDBRANCH   1   7
BRANCH   1   8
ATOM      8  C   LIG    1        1.745   6.221  -1.231  0.00  0.00    -0.077 C 
BRANCH   8   9
ATOM      9  N   LIG    1        0.882   6.086  -2.418  0.00  0.00    +0.379 N 
ATOM     10  H   LIG    1        0.511   5.130  -2.459  0.00  0.00    -0.090 HD
ATOM     11  H   LIG    1        1.419   6.271  -3.263  0.00  0.00    -0.090 HD
ATOM     12  H   LIG    1        0.104   6.742  -2.360  0.00  0.00    -0.090 HD
ENDBRANCH   8   9
ENDBRANCH   1   8
BRANCH   1  13
ATOM     13  C   LIG    1        1.768   6.208   1.267  0.00  0.00    +0.127 C 
BRANCH  13  14
ATOM     14  C   LIG    1        2.165   7.661   1.335  0.00  0.00    +0.305 C 
ATOM     15  O   LIG    1        1.796   8.428   0.477  0.00  0.00    -0.251 OA
BRANCH  14  16
ATOM     16  O   LIG    1        2.927   8.102   2.347  0.00  0.00    -0.481 OA
ATOM     17  H   LIG    1        3.213   7.508   3.013  0.00  0.00    +0.295 HD
ENDBRANCH  14  16
ENDBRANCH  13  14
ENDBRANCH   1  13
TORSDOF 6
