REMARK  Name = ZINC25338213
REMARK                            x       y       z     vdW  Elec       q    Type
REMARK                         _______ _______ _______ _____ _____    ______ ____
ROOT
ATOM      1  N   LIG    1       -0.784   2.596   8.805  0.00  0.00    -0.295 NA
ATOM      2  C   LIG    1       -1.736   3.683   8.536  0.00  0.00    +0.103 C 
ATOM      3  C   LIG    1       -2.577   3.328   7.305  0.00  0.00    +0.123 C 
ATOM      4  N   LIG    1       -1.668   3.008   6.194  0.00  0.00    -0.299 N 
ATOM      5  C   LIG    1       -1.811   3.599   4.992  0.00  0.00    +0.219 C 
ATOM      6  O   LIG    1       -2.635   4.476   4.841  0.00  0.00    -0.275 OA
ATOM      7  C   LIG    1       -0.603   2.021   6.429  0.00  0.00    +0.123 C 
ATOM      8  C   LIG    1        0.164   2.432   7.695  0.00  0.00    +0.103 C 
ENDROOT
BRANCH   5   9
ATOM      9  C   LIG    1       -0.947   3.169   3.834  0.00  0.00    +0.072 C 
ATOM     10  C   LIG    1        0.274   4.088   3.738  0.00  0.00    -0.006 C 
ATOM     11  C   LIG    1        1.115   3.686   2.524  0.00  0.00    -0.078 C 
ATOM     12  N   LIG    1        0.302   3.793   1.306  0.00  0.00    +0.382 N 
ATOM     13  H   LIG    1       -0.084   4.822   1.250  0.00  0.00    -0.081 HD
ATOM     14  C   LIG    1       -0.851   2.885   1.355  0.00  0.00    -0.078 C 
ATOM     15  C   LIG    1       -1.751   3.264   2.534  0.00  0.00    -0.006 C 
BRANCH  12  16
ATOM     16  C   LIG    1        1.115   3.548   0.107  0.00  0.00    -0.043 C 
BRANCH  16  17
ATOM     17  C   LIG    1        0.213   3.423  -1.094  0.00  0.00    -0.061 A 
ATOM     18  C   LIG    1       -0.289   2.190  -1.479  0.00  0.00    +0.021 A 
ATOM     19  C   LIG    1       -1.116   2.114  -2.584  0.00  0.00    +0.111 A 
ATOM     20  N   LIG    1       -1.420   3.196  -3.273  0.00  0.00    -0.263 NA
ATOM     21  C   LIG    1       -0.957   4.385  -2.939  0.00  0.00    +0.111 A 
ATOM     22  C   LIG    1       -0.129   4.538  -1.844  0.00  0.00    +0.021 A 
ENDBRANCH  16  17
ENDBRANCH  12  16
ENDBRANCH   5   9
BRANCH   1  23
ATOM     23  C   LIG    1       -0.078   2.817  10.073  0.00  0.00    +0.119 C 
BRANCH  23  27
ATOM     24  C   LIG    1        2.127  -0.693  11.106  0.00  0.00    +0.000 A 
ATOM     25  C   LIG    1        2.717   0.293  10.338  0.00  0.00    +0.000 A 
ATOM     26  C   LIG    1        2.004   1.429  10.004  0.00  0.00    +0.005 A 
ATOM     27  C   LIG    1        0.700   1.579  10.438  0.00  0.00    -0.033 A 
ATOM     28  C   LIG    1        0.111   0.595  11.210  0.00  0.00    +0.005 A 
ATOM     29  C   LIG    1        0.823  -0.543  11.540  0.00  0.00    +0.000 A 
ENDBRANCH  23  27
ENDBRANCH   1  23
TORSDOF 5
