REMARK  Name = ZINC13826983
REMARK                            x       y       z     vdW  Elec       q    Type
REMARK                         _______ _______ _______ _____ _____    ______ ____
ROOT
ATOM      1  C   LIG    1       -1.361   4.832   2.759  0.00  0.00    +0.155 C 
ATOM      2  N   LIG    1       -1.081   3.398   2.661  0.00  0.00    -0.281 N 
ATOM      3  C   LIG    1       -1.580   2.527   3.618  0.00  0.00    +0.146 A 
ATOM      4  N   LIG    1       -2.325   2.696   4.710  0.00  0.00    -0.326 N 
ATOM      5  H   LIG    1       -2.684   3.596   5.048  0.00  0.00    +0.169 HD
ATOM      6  C   LIG    1       -2.534   1.525   5.293  0.00  0.00    +0.111 A 
ATOM      7  N   LIG    1       -1.911   0.545   4.573  0.00  0.00    -0.334 N 
ATOM      8  H   LIG    1       -1.901  -0.433   4.780  0.00  0.00    +0.168 HD
ATOM      9  C   LIG    1       -1.298   1.169   3.501  0.00  0.00    +0.147 A 
ATOM     10  C   LIG    1       -0.516   0.721   2.417  0.00  0.00    +0.282 A 
ATOM     11  N   LIG    1       -0.059   1.617   1.519  0.00  0.00    -0.262 N 
ATOM     12  C   LIG    1        0.755   1.157   0.391  0.00  0.00    +0.157 C 
ATOM     13  O   LIG    1       -0.256  -0.463   2.293  0.00  0.00    -0.265 OA
ATOM     14  C   LIG    1       -0.334   2.927   1.645  0.00  0.00    +0.333 A 
ATOM     15  O   LIG    1        0.100   3.706   0.818  0.00  0.00    -0.246 OA
ENDROOT
BRANCH   6  16
ATOM     16  C   LIG    1       -3.309   1.315   6.517  0.00  0.00    +0.045 C 
ATOM     17  C   LIG    1       -3.880   2.366   7.142  0.00  0.00    +0.015 C 
BRANCH  17  18
ATOM     18  C   LIG    1       -4.658   2.155   8.370  0.00  0.00    +0.021 A 
ATOM     19  C   LIG    1       -4.814   0.865   8.891  0.00  0.00    +0.015 A 
ATOM     20  C   LIG    1       -5.539   0.672  10.045  0.00  0.00    +0.050 A 
ATOM     21  C   LIG    1       -6.129   1.752  10.692  0.00  0.00    +0.165 A 
ATOM     22  C   LIG    1       -5.986   3.038  10.182  0.00  0.00    +0.204 A 
ATOM     23  C   LIG    1       -5.253   3.246   9.023  0.00  0.00    +0.172 A 
BRANCH  21  24
ATOM     24  O   LIG    1       -6.848   1.550  11.828  0.00  0.00    -0.491 OA
ATOM     25  C   LIG    1       -6.955   0.205  12.297  0.00  0.00    +0.277 C 
ENDBRANCH  21  24
BRANCH  22  26
ATOM     26  O   LIG    1       -6.566   4.091  10.820  0.00  0.00    -0.488 OA
ATOM     27  C   LIG    1       -5.790   4.748  11.824  0.00  0.00    +0.277 C 
ENDBRANCH  22  26
BRANCH  23  28
ATOM     28  O   LIG    1       -5.110   4.501   8.523  0.00  0.00    -0.491 OA
ATOM     29  C   LIG    1       -6.137   4.970   7.646  0.00  0.00    +0.277 C 
ENDBRANCH  23  28
ENDBRANCH  17  18
ENDBRANCH   6  16
TORSDOF 5
