REMARK  Name = ZINC72176630
REMARK                            x       y       z     vdW  Elec       q    Type
REMARK                         _______ _______ _______ _____ _____    ______ ____
ROOT
ATOM      1  C   LIG    1       -2.562  -4.201   0.085  0.00  0.00    +0.279 C 
ATOM      2  N   LIG    1       -3.764  -4.810   0.069  0.00  0.00    -0.195 N 
ATOM      3  C   LIG    1       -3.968  -6.170  -0.017  0.00  0.00    +0.079 A 
ATOM      4  C   LIG    1       -3.115  -7.266  -0.108  0.00  0.00    +0.028 A 
ATOM      5  C   LIG    1       -3.640  -8.537  -0.182  0.00  0.00    +0.002 A 
ATOM      6  C   LIG    1       -5.014  -8.735  -0.167  0.00  0.00    +0.001 A 
ATOM      7  C   LIG    1       -5.869  -7.673  -0.079  0.00  0.00    +0.012 A 
ATOM      8  C   LIG    1       -5.358  -6.377  -0.002  0.00  0.00    +0.033 A 
ATOM      9  C   LIG    1       -5.972  -5.045   0.099  0.00  0.00    +0.156 A 
ATOM     10  N   LIG    1       -5.001  -4.162   0.144  0.00  0.00    -0.158 NA
ATOM     11  O   LIG    1       -1.549  -4.852  -0.076  0.00  0.00    -0.265 OA
ENDROOT
BRANCH   1  16
ATOM     12  C   LIG    1       -1.159  -0.761   0.653  0.00  0.00    +0.121 A 
ATOM     13  C   LIG    1       -2.321  -0.003   0.698  0.00  0.00    +0.045 A 
ATOM     14  C   LIG    1       -3.555  -0.608   0.544  0.00  0.00    +0.004 A 
ATOM     15  C   LIG    1       -3.639  -1.971   0.345  0.00  0.00    +0.013 A 
ATOM     16  C   LIG    1       -2.476  -2.742   0.298  0.00  0.00    +0.045 A 
ATOM     17  C   LIG    1       -1.231  -2.128   0.448  0.00  0.00    +0.059 A 
BRANCH  12  19
ATOM     18  C   LIG    1        0.051   1.254   1.013  0.00  0.00    +0.277 C 
ATOM     19  O   LIG    1        0.051  -0.160   0.805  0.00  0.00    -0.495 OA
ENDBRANCH  12  19
ENDBRANCH   1  16
BRANCH   9  20
ATOM     20  C   LIG    1       -7.417  -4.753   0.148  0.00  0.00    +0.269 C 
ATOM     21  N   LIG    1       -7.845  -3.478   0.241  0.00  0.00    -0.280 N 
ATOM     22  H   LIG    1       -7.207  -2.748   0.200  0.00  0.00    +0.155 HD
ATOM     23  O   LIG    1       -8.223  -5.662   0.103  0.00  0.00    -0.268 OA
BRANCH  21  24
ATOM     24  C   LIG    1       -9.208  -3.207   0.397  0.00  0.00    +0.034 A 
ATOM     25  C   LIG    1       -9.760  -2.066  -0.170  0.00  0.00    +0.023 A 
ATOM     26  C   LIG    1      -11.106  -1.801  -0.014  0.00  0.00    +0.002 A 
ATOM     27  C   LIG    1      -11.904  -2.670   0.707  0.00  0.00    +0.000 A 
ATOM     28  C   LIG    1      -11.358  -3.807   1.273  0.00  0.00    +0.002 A 
ATOM     29  C   LIG    1      -10.013  -4.081   1.115  0.00  0.00    +0.023 A 
ENDBRANCH  21  24
ENDBRANCH   9  20
TORSDOF 4
