REMARK  Name = ZINC28462048
REMARK                            x       y       z     vdW  Elec       q    Type
REMARK                         _______ _______ _______ _____ _____    ______ ____
ROOT
ATOM      1  N   LIG    1       -0.745   1.585  -3.677  0.00  0.00    -0.346 N 
ATOM      2  C   LIG    1       -1.676   0.884  -4.353  0.00  0.00    +0.098 A 
ATOM      3  C   LIG    1       -2.139   1.633  -5.414  0.00  0.00    +0.043 A 
ATOM      4  C   LIG    1       -1.407   2.913  -5.364  0.00  0.00    +0.010 A 
ATOM      5  C   LIG    1       -1.422   4.066  -6.144  0.00  0.00    +0.011 A 
ATOM      6  C   LIG    1       -0.602   5.124  -5.813  0.00  0.00    +0.001 A 
ATOM      7  C   LIG    1        0.244   5.037  -4.718  0.00  0.00    +0.002 A 
ATOM      8  C   LIG    1        0.272   3.899  -3.941  0.00  0.00    +0.026 A 
ATOM      9  C   LIG    1       -0.554   2.824  -4.253  0.00  0.00    +0.050 A 
ENDROOT
BRANCH   3  10
ATOM     10  C   LIG    1       -3.121   1.250  -6.361  0.00  0.00    +0.169 C 
ATOM     11  O   LIG    1       -3.437   2.014  -7.251  0.00  0.00    -0.292 OA
BRANCH  10  12
ATOM     12  C   LIG    1       -3.774  -0.105  -6.264  0.00  0.00    +0.114 C 
BRANCH  12  13
ATOM     13  C   LIG    1       -4.773  -0.262  -7.381  0.00  0.00    -0.040 A 
ATOM     14  C   LIG    1       -6.087   0.122  -7.192  0.00  0.00    +0.004 A 
ATOM     15  C   LIG    1       -7.003  -0.018  -8.219  0.00  0.00    +0.003 A 
ATOM     16  C   LIG    1       -6.606  -0.552  -9.431  0.00  0.00    -0.050 A 
ATOM     17  C   LIG    1       -7.605  -0.709 -10.548  0.00  0.00    +0.044 C 
ATOM     18  C   LIG    1       -5.293  -0.940  -9.618  0.00  0.00    +0.003 A 
ATOM     19  C   LIG    1       -4.376  -0.796  -8.593  0.00  0.00    +0.004 A 
ENDBRANCH  12  13
ENDBRANCH  10  12
ENDBRANCH   3  10
BRANCH   1  20
ATOM     20  C   LIG    1       -0.037   1.099  -2.490  0.00  0.00    +0.122 C 
BRANCH  20  21
ATOM     21  C   LIG    1       -0.753   1.593  -1.232  0.00  0.00    +0.022 C 
BRANCH  21  22
ATOM     22  C   LIG    1       -0.013   1.086   0.008  0.00  0.00    +0.001 C 
BRANCH  22  24
ATOM     23  C   LIG    1        0.011   1.072   2.506  0.00  0.00    +0.004 C 
ATOM     24  C   LIG    1       -0.729   1.579   1.267  0.00  0.00    -0.003 C 
ENDBRANCH  22  24
ENDBRANCH  21  22
ENDBRANCH  20  21
ENDBRANCH   1  20
TORSDOF 7
