REMARK  Name = ZINC36243084
REMARK                            x       y       z     vdW  Elec       q    Type
REMARK                         _______ _______ _______ _____ _____    ______ ____
ROOT
ATOM      1  C   LIG    1        0.014   1.526   0.029  0.00  0.00    +0.026 C 
ATOM      2  C   LIG    1        1.461   2.024   0.037  0.00  0.00    -0.041 C 
ATOM      3  C   LIG    1        2.179   1.486   1.276  0.00  0.00    +0.131 C 
ATOM      4  C   LIG    1        2.167  -0.043   1.249  0.00  0.00    +0.173 C 
ATOM      5  C   LIG    1        0.720  -0.542   1.241  0.00  0.00    +0.179 C 
ATOM      6  C   LIG    1        0.002  -0.004   0.002  0.00  0.00    +0.116 C 
ENDROOT
BRANCH   2   7
ATOM      7  N   LIG    1        1.472   3.493   0.063  0.00  0.00    +0.382 N 
ATOM      8  H   LIG    1        0.999   3.848  -0.754  0.00  0.00    -0.090 HD
ATOM      9  H   LIG    1        2.426   3.821   0.068  0.00  0.00    -0.090 HD
ATOM     10  H   LIG    1        1.000   3.818   0.893  0.00  0.00    -0.090 HD
ENDBRANCH   2   7
BRANCH   3  11
ATOM     11  O   LIG    1        3.530   1.952   1.283  0.00  0.00    -0.391 OA
ATOM     12  H   LIG    1        4.046   1.649   2.043  0.00  0.00    +0.210 HD
ENDBRANCH   3  11
BRANCH   4  13
ATOM     13  O   LIG    1        2.836  -0.504   0.073  0.00  0.00    -0.387 OA
ATOM     14  H   LIG    1        3.759  -0.225   0.011  0.00  0.00    +0.210 HD
ENDBRANCH   4  13
BRANCH   5  15
ATOM     15  O   LIG    1        0.709  -1.971   1.216  0.00  0.00    -0.386 OA
ATOM     16  H   LIG    1        1.148  -2.381   1.973  0.00  0.00    +0.210 HD
ENDBRANCH   5  15
BRANCH   6  17
ATOM     17  O   LIG    1       -1.349  -0.470  -0.005  0.00  0.00    -0.384 OA
ATOM     18  H   LIG    1       -1.433  -1.433  -0.022  0.00  0.00    +0.210 HD
ENDBRANCH   6  17
BRANCH   6  19
ATOM     19  C   LIG    1        0.718  -0.497  -1.257  0.00  0.00    +0.193 C 
BRANCH  19  20
ATOM     20  O   LIG    1        0.841  -1.920  -1.208  0.00  0.00    -0.392 OA
ATOM     21  H   LIG    1        1.286  -2.303  -1.976  0.00  0.00    +0.210 HD
ENDBRANCH  19  20
ENDBRANCH   6  19
TORSDOF 7
