REMARK  Name = ZINC59098959
REMARK                            x       y       z     vdW  Elec       q    Type
REMARK                         _______ _______ _______ _____ _____    ______ ____
ROOT
ATOM      1  C   LIG    1       -1.296  -0.730  -0.411  0.00  0.00    +0.080 A 
ATOM      2  C   LIG    1       -1.295  -2.078  -0.639  0.00  0.00    +0.077 A 
ATOM      3  S   LIG    1       -3.041  -2.439  -0.500  0.00  0.00    -0.059 S 
ATOM      4  C   LIG    1       -3.587  -0.772  -0.156  0.00  0.00    +0.178 A 
ATOM      5  N   LIG    1       -2.443  -0.112  -0.170  0.00  0.00    -0.224 NA
ENDROOT
BRANCH   1  11
ATOM      6  C   LIG    1       -0.029   1.406  -0.189  0.00  0.00    +0.012 A 
ATOM      7  C   LIG    1        1.158   2.111  -0.205  0.00  0.00    +0.033 A 
ATOM      8  C   LIG    1        2.350   1.456  -0.458  0.00  0.00    +0.122 A 
ATOM      9  C   LIG    1        2.361   0.093  -0.695  0.00  0.00    +0.033 A 
ATOM     10  C   LIG    1        1.181  -0.621  -0.682  0.00  0.00    +0.012 A 
ATOM     11  C   LIG    1       -0.024   0.033  -0.427  0.00  0.00    +0.001 A 
BRANCH   8  12
ATOM     12  N   LIG    1        3.626   2.221  -0.474  0.00  0.00    +0.006 N 
ATOM     13  O   LIG    1        3.620   3.412  -0.267  0.00  0.00    -0.130 OA
BRANCH  12  14
ATOM     14  O   LIG    1        4.670   1.651  -0.694  0.00  0.00    -0.396 OA
ATOM     15  H   LIG    1        4.675   0.728  -0.854  0.00  0.00    +0.329 HD
ENDBRANCH  12  14
ENDBRANCH   8  12
ENDBRANCH   1  11
BRANCH   4  16
ATOM     16  N   LIG    1       -4.869  -0.299   0.071  0.00  0.00    -0.215 N 
ATOM     17  H   LIG    1       -5.014   0.644   0.248  0.00  0.00    +0.176 HD
BRANCH  16  18
ATOM     18  N   LIG    1       -5.956  -1.182   0.046  0.00  0.00    -0.190 NA
ATOM     19  C   LIG    1       -7.149  -0.732   0.153  0.00  0.00    +0.037 C 
ATOM     20  C   LIG    1       -7.419   0.757   0.154  0.00  0.00    +0.052 C 
ATOM     21  C   LIG    1       -8.503   1.056  -0.888  0.00  0.00    +0.006 C 
ATOM     22  C   LIG    1       -9.733   0.192  -0.604  0.00  0.00    +0.001 C 
ATOM     23  C   LIG    1       -9.377  -1.286  -0.765  0.00  0.00    +0.006 C 
ATOM     24  C   LIG    1       -8.326  -1.674   0.275  0.00  0.00    +0.052 C 
ENDBRANCH  16  18
ENDBRANCH   4  16
TORSDOF 5
