REMARK  Name = ZINC28572121
REMARK                            x       y       z     vdW  Elec       q    Type
REMARK                         _______ _______ _______ _____ _____    ______ ____
ROOT
ATOM      1  C   LIG    1        5.315   2.105  -2.471  0.00  0.00    +0.054 A 
ATOM      2  C   LIG    1        4.073   1.462  -2.454  0.00  0.00    +0.049 A 
ATOM      3  C   LIG    1        3.314   1.431  -1.271  0.00  0.00    +0.056 A 
ATOM      4  N   LIG    1        2.086   0.796  -1.253  0.00  0.00    -0.330 N 
ATOM      5  C   LIG    1        1.572   0.185  -2.346  0.00  0.00    +0.115 A 
ATOM      6  C   LIG    1        2.229   0.150  -3.587  0.00  0.00    +0.116 A 
ATOM      7  C   LIG    1        1.520  -0.531  -4.594  0.00  0.00    +0.233 A 
ATOM      8  N   LIG    1        0.324  -1.060  -4.286  0.00  0.00    -0.172 NA
ATOM      9  S   LIG    1        0.101  -0.668  -2.640  0.00  0.00    +0.034 S 
ATOM     10  C   LIG    1        3.807   2.042  -0.126  0.00  0.00    +0.052 A 
ATOM     11  C   LIG    1        5.040   2.675  -0.160  0.00  0.00    +0.067 A 
ATOM     12  C   LIG    1        3.547   0.814  -3.665  0.00  0.00    +0.203 A 
ATOM     13  O   LIG    1        4.183   0.824  -4.706  0.00  0.00    -0.286 OA
ATOM     14  C   LIG    1        5.789   2.703  -1.338  0.00  0.00    +0.145 A 
ATOM     15  F   LIG    1        6.988   3.323  -1.358  0.00  0.00    -0.204 F 
ENDROOT
BRANCH  11  16
ATOM     16  N   LIG    1        5.534   3.289   0.989  0.00  0.00    -0.331 N 
ATOM     17  C   LIG    1        6.886   3.818   0.763  0.00  0.00    +0.086 C 
ATOM     18  C   LIG    1        7.424   4.412   2.067  0.00  0.00    -0.063 C 
ATOM     19  N   LIG    1        6.517   5.471   2.531  0.00  0.00    +0.381 N 
ATOM     20  H   LIG    1        6.463   6.266   1.772  0.00  0.00    -0.086 HD
ATOM     21  H   LIG    1        6.895   5.891   3.475  0.00  0.00    -0.086 HD
ATOM     22  C   LIG    1        5.165   4.941   2.757  0.00  0.00    -0.063 C 
ATOM     23  C   LIG    1        4.627   4.348   1.453  0.00  0.00    +0.086 C 
ENDBRANCH  11  16
BRANCH   4  24
ATOM     24  C   LIG    1        1.317   0.779  -0.006  0.00  0.00    +0.089 C 
ATOM     25  C   LIG    1        0.818   2.120   0.535  0.00  0.00    +0.027 C 
ATOM     26  C   LIG    1       -0.170   1.132  -0.088  0.00  0.00    +0.027 C 
ENDBRANCH   4  24
BRANCH   7  27
ATOM     27  O   LIG    1        1.980  -0.638  -5.719  0.00  0.00    -0.491 OA
ATOM     28  H   LIG    1        2.815  -0.264  -5.921  0.00  0.00    +0.294 HD
ENDBRANCH   7  27
TORSDOF 3
