REMARK  Name = ZINC13779239
REMARK                            x       y       z     vdW  Elec       q    Type
REMARK                         _______ _______ _______ _____ _____    ______ ____
ROOT
ATOM      1  C   LIG    1       -0.013   1.086   0.008  0.00  0.00    +0.108 C 
ATOM      2  C   LIG    1       -0.737   1.584   1.267  0.00  0.00    +0.106 C 
ATOM      3  C   LIG    1       -0.805   3.096   1.194  0.00  0.00    +0.167 C 
ATOM      4  C   LIG    1       -1.145   3.701  -0.102  0.00  0.00    +0.038 A 
ATOM      5  C   LIG    1       -1.516   5.046  -0.190  0.00  0.00    +0.013 A 
ATOM      6  C   LIG    1       -1.825   5.588  -1.418  0.00  0.00    +0.001 A 
ATOM      7  C   LIG    1       -1.770   4.807  -2.563  0.00  0.00    +0.002 A 
ATOM      8  C   LIG    1       -1.406   3.478  -2.491  0.00  0.00    +0.023 A 
ATOM      9  C   LIG    1       -1.091   2.910  -1.264  0.00  0.00    +0.038 A 
ATOM     10  O   LIG    1       -0.585   3.782   2.171  0.00  0.00    -0.292 OA
ATOM     11  N   LIG    1       -0.728   1.575  -1.177  0.00  0.00    -0.336 N 
ATOM     12  H   LIG    1       -0.946   0.964  -1.899  0.00  0.00    +0.147 HD
ENDROOT
BRANCH   1  17
ATOM     13  C   LIG    1        3.743   1.277   0.383  0.00  0.00    +0.120 A 
ATOM     14  C   LIG    1        3.993   2.579  -0.025  0.00  0.00    +0.045 A 
ATOM     15  C   LIG    1        2.948   3.392  -0.419  0.00  0.00    +0.004 A 
ATOM     16  C   LIG    1        1.652   2.908  -0.408  0.00  0.00    +0.006 A 
ATOM     17  C   LIG    1        1.400   1.610  -0.003  0.00  0.00    -0.023 A 
ATOM     18  C   LIG    1        2.442   0.795   0.398  0.00  0.00    +0.051 A 
BRANCH  13  20
ATOM     19  C   LIG    1        6.082   1.040   0.735  0.00  0.00    +0.277 C 
ATOM     20  O   LIG    1        4.769   0.476   0.771  0.00  0.00    -0.495 OA
ENDBRANCH  13  20
ENDBRANCH   1  17
TORSDOF 2
