REMARK  Name = ZINC36237978
REMARK                            x       y       z     vdW  Elec       q    Type
REMARK                         _______ _______ _______ _____ _____    ______ ____
ROOT
ATOM      1  C   LIG    1        4.171  -0.963   1.399  0.00  0.00    -0.004 C 
ATOM      2  C   LIG    1        3.191  -1.917   2.088  0.00  0.00    +0.019 C 
ATOM      3  C   LIG    1        3.689  -2.217   3.503  0.00  0.00    +0.084 C 
ATOM      4  N   LIG    1        5.025  -2.824   3.435  0.00  0.00    -0.302 NA
ATOM      5  C   LIG    1        5.994  -1.908   2.820  0.00  0.00    +0.084 C 
ATOM      6  C   LIG    1        5.564  -1.599   1.384  0.00  0.00    +0.019 C 
ENDROOT
BRANCH   1   7
ATOM      7  C   LIG    1        3.711  -0.707  -0.038  0.00  0.00    +0.038 C 
BRANCH   7  11
ATOM      8  C   LIG    1       -0.017   1.378   0.010  0.00  0.00    +0.000 A 
ATOM      9  C   LIG    1        1.171   2.086   0.002  0.00  0.00    +0.000 A 
ATOM     10  C   LIG    1        2.377   1.411  -0.013  0.00  0.00    +0.003 A 
ATOM     11  C   LIG    1        2.396   0.029  -0.020  0.00  0.00    -0.047 A 
ATOM     12  C   LIG    1        1.208  -0.679  -0.012  0.00  0.00    +0.003 A 
ATOM     13  C   LIG    1        0.002  -0.004   0.002  0.00  0.00    +0.000 A 
ENDBRANCH   7  11
ENDBRANCH   1   7
BRANCH   4  14
ATOM     14  C   LIG    1        5.477  -3.253   4.766  0.00  0.00    +0.082 C 
BRANCH  14  15
ATOM     15  C   LIG    1        6.746  -4.096   4.626  0.00  0.00    -0.003 C 
BRANCH  15  16
ATOM     16  C   LIG    1        7.216  -4.543   6.012  0.00  0.00    -0.078 C 
BRANCH  16  17
ATOM     17  N   LIG    1        8.435  -5.352   5.878  0.00  0.00    +0.380 N 
ATOM     18  H   LIG    1        9.130  -4.829   5.367  0.00  0.00    -0.082 HD
ATOM     19  C   LIG    1        8.122  -6.587   5.149  0.00  0.00    -0.079 C 
ATOM     20  C   LIG    1        9.403  -7.396   4.935  0.00  0.00    -0.019 C 
ATOM     21  C   LIG    1       10.012  -7.746   6.296  0.00  0.00    -0.004 C 
ATOM     22  C   LIG    1       10.265  -6.454   7.078  0.00  0.00    -0.019 C 
ATOM     23  C   LIG    1        8.952  -5.679   7.212  0.00  0.00    -0.079 C 
ENDBRANCH  16  17
ENDBRANCH  15  16
ENDBRANCH  14  15
ENDBRANCH   4  14
TORSDOF 6
