REMARK  Name = ZINC19796155
REMARK                            x       y       z     vdW  Elec       q    Type
REMARK                         _______ _______ _______ _____ _____    ______ ____
ROOT
ATOM      1  C   LIG    1        1.905  -3.636  -0.105  0.00  0.00    +0.323 C 
ATOM      2  N   LIG    1        2.167  -4.129  -1.264  0.00  0.00    -0.040 NA
ATOM      3  C   LIG    1        3.013  -5.150  -1.572  0.00  0.00    +0.199 A 
ATOM      4  C   LIG    1        2.628  -6.085  -2.537  0.00  0.00    +0.077 A 
ATOM      5  C   LIG    1        3.487  -7.105  -2.899  0.00  0.00    +0.045 A 
ATOM      6 CL   LIG    1        2.999  -8.263  -4.097  0.00  0.00    -0.083 Cl
ATOM      7  C   LIG    1        4.735  -7.207  -2.311  0.00  0.00    +0.022 A 
ATOM      8  C   LIG    1        5.121  -6.298  -1.340  0.00  0.00    +0.029 A 
ATOM      9  C   LIG    1        4.262  -5.284  -0.955  0.00  0.00    +0.083 A 
ATOM     10  N   LIG    1        4.631  -4.433   0.100  0.00  0.00    -0.310 N 
ATOM     11  H   LIG    1        5.417  -3.868   0.030  0.00  0.00    +0.152 HD
ATOM     12  C   LIG    1        3.843  -4.418   1.252  0.00  0.00    +0.046 A 
ATOM     13  C   LIG    1        4.397  -4.763   2.475  0.00  0.00    +0.024 A 
ATOM     14  C   LIG    1        3.619  -4.782   3.607  0.00  0.00    +0.002 A 
ATOM     15  C   LIG    1        2.273  -4.473   3.531  0.00  0.00    +0.001 A 
ATOM     16  C   LIG    1        1.707  -4.113   2.324  0.00  0.00    +0.018 A 
ATOM     17  C   LIG    1        2.494  -4.064   1.173  0.00  0.00    +0.087 A 
ENDROOT
BRANCH   1  22
ATOM     18  C   LIG    1       -0.067   1.440  -0.385  0.00  0.00    +0.105 C 
ATOM     19  N   LIG    1       -0.023  -0.017  -0.199  0.00  0.00    -0.298 NA
ATOM     20  C   LIG    1        0.381  -0.694  -1.438  0.00  0.00    +0.128 C 
ATOM     21  C   LIG    1        0.240  -2.209  -1.257  0.00  0.00    +0.241 C 
ATOM     22  N   LIG    1        0.991  -2.608  -0.057  0.00  0.00    -0.218 N 
ATOM     23  C   LIG    1        0.739  -1.880   1.196  0.00  0.00    +0.241 C 
ATOM     24  C   LIG    1        0.860  -0.378   0.918  0.00  0.00    +0.128 C 
ENDBRANCH   1  22
TORSDOF 1
