REMARK  Name = ZINC33821372
REMARK                            x       y       z     vdW  Elec       q    Type
REMARK                         _______ _______ _______ _____ _____    ______ ____
ROOT
ATOM      1  C   LIG    1        2.057  -1.202   3.525  0.00  0.00    +0.275 C 
ATOM      2  N   LIG    1        2.820  -1.095   2.447  0.00  0.00    -0.264 N 
ATOM      3  H   LIG    1        2.509  -0.853   1.561  0.00  0.00    +0.305 HD
ATOM      4  C   LIG    1        4.213  -1.402   2.807  0.00  0.00    +0.251 C 
ATOM      5  C   LIG    1        4.135  -1.715   4.315  0.00  0.00    +0.244 C 
ATOM      6  N   LIG    1        2.707  -1.543   4.628  0.00  0.00    -0.225 N 
ATOM      7  H   LIG    1        2.306  -1.661   5.503  0.00  0.00    +0.292 HD
ENDROOT
BRANCH   4   8
ATOM      8  C   LIG    1        5.101  -0.211   2.555  0.00  0.00    +0.001 A 
ATOM      9  C   LIG    1        4.645   1.063   2.835  0.00  0.00    +0.009 A 
ATOM     10  C   LIG    1        5.459   2.156   2.603  0.00  0.00    +0.020 A 
ATOM     11  C   LIG    1        6.731   1.974   2.091  0.00  0.00    +0.041 A 
ATOM     12 CL   LIG    1        7.754   3.346   1.799  0.00  0.00    -0.084 Cl
ATOM     13  C   LIG    1        7.188   0.698   1.811  0.00  0.00    +0.020 A 
ATOM     14  C   LIG    1        6.375  -0.394   2.048  0.00  0.00    +0.009 A 
ENDBRANCH   4   8
BRANCH   5  15
ATOM     15  C   LIG    1        4.971  -0.741   5.104  0.00  0.00    -0.001 A 
ATOM     16  C   LIG    1        4.477   0.517   5.394  0.00  0.00    +0.009 A 
ATOM     17  C   LIG    1        5.244   1.411   6.117  0.00  0.00    +0.020 A 
ATOM     18  C   LIG    1        6.506   1.048   6.550  0.00  0.00    +0.041 A 
ATOM     19 CL   LIG    1        7.470   2.170   7.458  0.00  0.00    -0.084 Cl
ATOM     20  C   LIG    1        7.000  -0.212   6.259  0.00  0.00    +0.020 A 
ATOM     21  C   LIG    1        6.230  -1.107   5.541  0.00  0.00    +0.009 A 
ENDBRANCH   5  15
BRANCH   1  27
ATOM     22  C   LIG    1       -0.030  -0.599   2.301  0.00  0.00    +0.139 A 
ATOM     23  C   LIG    1       -1.396  -0.377   2.285  0.00  0.00    +0.092 A 
ATOM     24  C   LIG    1       -2.134  -0.502   3.453  0.00  0.00    +0.124 A 
ATOM     25  C   LIG    1       -1.505  -0.851   4.645  0.00  0.00    +0.047 A 
ATOM     26  C   LIG    1       -0.148  -1.074   4.673  0.00  0.00    +0.023 A 
ATOM     27  C   LIG    1        0.603  -0.957   3.500  0.00  0.00    +0.103 A 
BRANCH  24  28
ATOM     28  O   LIG    1       -3.473  -0.283   3.434  0.00  0.00    -0.495 OA
ATOM     29  C   LIG    1       -4.172  -0.428   4.671  0.00  0.00    +0.277 C 
ENDBRANCH  24  28
BRANCH  22  30
ATOM     30  O   LIG    1        0.693  -0.477   1.160  0.00  0.00    -0.488 OA
BRANCH  30  32
ATOM     31  C   LIG    1       -0.294   1.266  -0.192  0.00  0.00    +0.051 C 
ATOM     32  C   LIG    1       -0.034  -0.235  -0.046  0.00  0.00    +0.167 C 
ATOM     33  C   LIG    1        0.782  -0.730  -1.242  0.00  0.00    +0.051 C 
ENDBRANCH  30  32
ENDBRANCH  22  30
ENDBRANCH   1  27
TORSDOF 6
