REMARK  Name = ZINC71754993
REMARK                            x       y       z     vdW  Elec       q    Type
REMARK                         _______ _______ _______ _____ _____    ______ ____
ROOT
ATOM      1  C   LIG    1       -1.447  -0.919  -2.336  0.00  0.00    +0.112 C 
ATOM      2  C   LIG    1       -1.999  -1.562  -3.613  0.00  0.00    +0.101 C 
ATOM      3  N   LIG    1       -3.459  -1.433  -3.604  0.00  0.00    -0.297 NA
ATOM      4  C   LIG    1       -4.066  -2.238  -4.672  0.00  0.00    +0.105 C 
ATOM      5  C   LIG    1       -3.908  -0.049  -3.674  0.00  0.00    +0.091 C 
ATOM      6  C   LIG    1       -5.393   0.032  -3.295  0.00  0.00    +0.061 C 
ATOM      7  C   LIG    1       -5.821   1.476  -3.254  0.00  0.00    -0.020 A 
ATOM      8  C   LIG    1       -6.973   2.121  -3.397  0.00  0.00    +0.087 A 
ATOM      9  N   LIG    1       -6.783   3.486  -3.247  0.00  0.00    -0.360 N 
ATOM     10  C   LIG    1       -5.471   3.758  -2.998  0.00  0.00    +0.047 A 
ATOM     11  C   LIG    1       -4.684   4.884  -2.761  0.00  0.00    +0.026 A 
ATOM     12  C   LIG    1       -3.324   4.684  -2.552  0.00  0.00    +0.003 A 
ATOM     13  C   LIG    1       -2.703   3.437  -2.566  0.00  0.00    +0.009 A 
ATOM     14  C   LIG    1       -3.451   2.305  -2.799  0.00  0.00    -0.011 A 
ATOM     15  H   LIG    1       -7.484   4.153  -3.309  0.00  0.00    +0.165 HD
ATOM     16  C   LIG    1       -4.831   2.516  -3.000  0.00  0.00    +0.010 A 
ATOM     17  C   LIG    1       -3.045   0.889  -2.873  0.00  0.00    -0.025 C 
ATOM     18  C   LIG    1       -1.928   0.506  -2.276  0.00  0.00    -0.007 C 
ENDROOT
BRANCH   1  20
ATOM     19  N   LIG    1        0.753  -1.053  -1.213  0.00  0.00    -0.301 N 
ATOM     20  C   LIG    1        0.059  -0.945  -2.364  0.00  0.00    +0.224 C 
ATOM     21  O   LIG    1        0.647  -0.870  -3.421  0.00  0.00    -0.275 OA
BRANCH  19  23
ATOM     22  C   LIG    1        2.617  -2.636  -1.189  0.00  0.00    +0.024 C 
ATOM     23  C   LIG    1        2.213  -1.161  -1.246  0.00  0.00    +0.104 C 
ENDBRANCH  19  23
BRANCH  19  24
ATOM     24  C   LIG    1        0.046  -1.062   0.070  0.00  0.00    +0.104 C 
ATOM     25  C   LIG    1       -0.061   0.369   0.603  0.00  0.00    +0.024 C 
ENDBRANCH  19  24
ENDBRANCH   1  20
TORSDOF 3
