REMARK  Name = ZINC33971762
REMARK                            x       y       z     vdW  Elec       q    Type
REMARK                         _______ _______ _______ _____ _____    ______ ____
ROOT
ATOM      1  C   LIG    1       -0.188   1.729   0.196  0.00  0.00    +0.019 C 
ATOM      2  C   LIG    1       -0.070   0.207   0.088  0.00  0.00    +0.028 C 
ATOM      3  C   LIG    1        0.716  -0.230  -1.168  0.00  0.00    +0.030 C 
ATOM      4  C   LIG    1        2.127  -0.535  -0.604  0.00  0.00    +0.087 C 
ATOM      5  N   LIG    1        1.839  -1.160   0.712  0.00  0.00    -0.287 NA
ATOM      6  C   LIG    1        3.010  -1.087   1.596  0.00  0.00    +0.106 C 
ATOM      7  C   LIG    1       -1.419  -0.474   0.113  0.00  0.00    -0.014 A 
ATOM      8  C   LIG    1       -2.514  -0.342  -0.718  0.00  0.00    +0.052 A 
ATOM      9  C   LIG    1       -3.659  -1.089  -0.485  0.00  0.00    +0.134 A 
ATOM     10  C   LIG    1       -3.700  -1.968   0.587  0.00  0.00    +0.048 A 
ATOM     11  C   LIG    1       -2.607  -2.100   1.416  0.00  0.00    +0.027 A 
ATOM     12  C   LIG    1       -1.451  -1.352   1.185  0.00  0.00    +0.035 A 
ATOM     13  N   LIG    1       -0.249  -1.339   1.899  0.00  0.00    -0.316 N 
ATOM     14  C   LIG    1        0.024  -2.140   3.095  0.00  0.00    +0.131 C 
ATOM     15  C   LIG    1        0.698  -0.409   1.279  0.00  0.00    +0.154 C 
ENDROOT
BRANCH   9  16
ATOM     16  O   LIG    1       -4.738  -0.959  -1.304  0.00  0.00    -0.411 OA
BRANCH  16  17
ATOM     17  C   LIG    1       -4.638  -1.435  -2.563  0.00  0.00    +0.389 C 
ATOM     18  N   LIG    1       -3.581  -2.096  -2.926  0.00  0.00    -0.220 NA
ATOM     19  C   LIG    1       -3.473  -2.612  -4.293  0.00  0.00    +0.177 C 
BRANCH  17  20
ATOM     20  O   LIG    1       -5.639  -1.224  -3.446  0.00  0.00    -0.466 OA
ATOM     21  H   LIG    1       -5.477  -1.602  -4.321  0.00  0.00    +0.297 HD
ENDBRANCH  17  20
ENDBRANCH  16  17
ENDBRANCH   9  16
TORSDOF 3
