REMARK  Name = ZINC22309498
REMARK                            x       y       z     vdW  Elec       q    Type
REMARK                         _______ _______ _______ _____ _____    ______ ____
ROOT
ATOM      1  N   LIG    1        2.963  -3.924  -0.048  0.00  0.00    -0.307 N 
ATOM      2  C   LIG    1        1.930  -4.971  -0.050  0.00  0.00    +0.122 C 
ATOM      3  C   LIG    1        2.243  -5.965   1.074  0.00  0.00    +0.103 C 
ATOM      4  N   LIG    1        3.621  -6.451   0.924  0.00  0.00    -0.295 NA
ATOM      5  C   LIG    1        4.590  -5.356   1.066  0.00  0.00    +0.103 C 
ATOM      6  C   LIG    1        4.374  -4.338  -0.064  0.00  0.00    +0.122 C 
ENDROOT
BRANCH   1  13
ATOM      7  C   LIG    1       -0.017   1.366   0.010  0.00  0.00    +0.002 A 
ATOM      8  C   LIG    1        1.156   2.107   0.002  0.00  0.00    +0.001 A 
ATOM      9  C   LIG    1        2.373   1.449  -0.013  0.00  0.00    +0.017 A 
ATOM     10  C   LIG    1        2.401   0.077  -0.020  0.00  0.00    +0.041 A 
ATOM     11  C   LIG    1        1.227  -0.710  -0.013  0.00  0.00    +0.080 A 
ATOM     12  N   LIG    1        1.419  -2.047  -0.023  0.00  0.00    -0.225 NA
ATOM     13  C   LIG    1        2.616  -2.588  -0.037  0.00  0.00    +0.162 A 
ATOM     14  S   LIG    1        3.682  -1.153  -0.040  0.00  0.00    -0.052 S 
ATOM     15  C   LIG    1        0.002  -0.004   0.002  0.00  0.00    +0.029 A 
ENDBRANCH   1  13
BRANCH   4  16
ATOM     16  C   LIG    1        3.905  -7.532   1.877  0.00  0.00    +0.119 C 
BRANCH  16  17
ATOM     17  C   LIG    1        5.228  -8.168   1.536  0.00  0.00    -0.030 A 
ATOM     18  C   LIG    1        5.274  -9.235   0.658  0.00  0.00    +0.009 A 
ATOM     19  C   LIG    1        6.485  -9.822   0.342  0.00  0.00    +0.050 A 
ATOM     20  C   LIG    1        7.656  -9.341   0.905  0.00  0.00    +0.166 A 
ATOM     21  C   LIG    1        7.609  -8.267   1.790  0.00  0.00    +0.167 A 
ATOM     22  O   LIG    1        8.880  -7.985   2.202  0.00  0.00    -0.453 OA
ATOM     23  C   LIG    1        9.656  -9.155   1.881  0.00  0.00    +0.466 C 
ATOM     24  O   LIG    1        8.956  -9.733   0.764  0.00  0.00    -0.453 OA
ATOM     25  C   LIG    1        6.393  -7.680   2.098  0.00  0.00    +0.054 A 
ENDBRANCH  16  17
ENDBRANCH   4  16
TORSDOF 3
