REMARK  Name = ZINC45357357
REMARK                            x       y       z     vdW  Elec       q    Type
REMARK                         _______ _______ _______ _____ _____    ______ ____
ROOT
ATOM      1  C   LIG    1        4.106  -0.829  -0.028  0.00  0.00    +0.221 C 
ENDROOT
BRANCH   1   5
ATOM      2  C   LIG    1        0.486   1.426  -0.264  0.00  0.00    +0.000 A 
ATOM      3  C   LIG    1        1.706   2.076  -0.253  0.00  0.00    +0.000 A 
ATOM      4  C   LIG    1        2.877   1.346  -0.177  0.00  0.00    +0.007 A 
ATOM      5  C   LIG    1        2.829  -0.034  -0.111  0.00  0.00    -0.006 A 
ATOM      6  C   LIG    1        1.609  -0.684  -0.120  0.00  0.00    +0.007 A 
ATOM      7  C   LIG    1        0.438   0.046  -0.198  0.00  0.00    +0.000 A 
ENDBRANCH   1   5
BRANCH   1   8
ATOM      8  O   LIG    1        3.992  -1.998  -0.842  0.00  0.00    -0.482 OA
BRANCH   8   9
ATOM      9  C   LIG    1        4.284  -1.862  -2.161  0.00  0.00    +0.130 A 
ATOM     10  C   LIG    1        4.562  -0.618  -2.673  0.00  0.00    +0.046 A 
ATOM     11  C   LIG    1        4.865  -0.439  -4.015  0.00  0.00    +0.005 A 
ATOM     12  C   LIG    1        4.890  -1.531  -4.860  0.00  0.00    +0.016 A 
ATOM     13  C   LIG    1        4.614  -2.787  -4.364  0.00  0.00    +0.024 A 
ATOM     14  S   LIG    1        4.539  -4.412  -5.075  0.00  0.00    -0.081 S 
ATOM     15  C   LIG    1        4.122  -5.322  -3.598  0.00  0.00    +0.099 A 
ATOM     16  C   LIG    1        4.055  -4.349  -2.651  0.00  0.00    +0.035 A 
ATOM     17  C   LIG    1        4.306  -3.011  -3.001  0.00  0.00    +0.032 A 
BRANCH  15  18
ATOM     18  C   LIG    1        3.898  -6.767  -3.444  0.00  0.00    +0.273 C 
ATOM     19  N   LIG    1        4.010  -7.576  -4.500  0.00  0.00    -0.288 N 
ATOM     20  H   LIG    1        3.862  -8.529  -4.399  0.00  0.00    +0.301 HD
ATOM     21  H   LIG    1        4.239  -7.210  -5.369  0.00  0.00    +0.301 HD
BRANCH  18  22
ATOM     22  N   LIG    1        3.583  -7.270  -2.249  0.00  0.00    -0.249 N 
ATOM     23  H   LIG    1        3.436  -8.224  -2.147  0.00  0.00    +0.288 HD
ATOM     24  H   LIG    1        3.502  -6.683  -1.481  0.00  0.00    +0.288 HD
ENDBRANCH  18  22
ENDBRANCH  15  18
ENDBRANCH   8   9
ENDBRANCH   1   8
BRANCH   1  25
ATOM     25  C   LIG    1        4.358  -1.241   1.424  0.00  0.00    +0.155 C 
BRANCH  25  26
ATOM     26  N   LIG    1        5.657  -1.910   1.523  0.00  0.00    -0.295 N 
ATOM     27  H   LIG    1        6.204  -2.028   0.731  0.00  0.00    +0.150 HD
ATOM     28  C   LIG    1        6.093  -2.363   2.716  0.00  0.00    +0.304 C 
ATOM     29  N   LIG    1        7.288  -2.978   2.807  0.00  0.00    -0.269 N 
ATOM     30  H   LIG    1        7.870  -3.026   2.032  0.00  0.00    +0.156 HD
ATOM     31  O   LIG    1        5.408  -2.215   3.709  0.00  0.00    -0.253 OA
BRANCH  29  32
ATOM     32  C   LIG    1        7.691  -3.549   4.020  0.00  0.00    +0.035 A 
ATOM     33  C   LIG    1        9.029  -3.525   4.390  0.00  0.00    +0.023 A 
ATOM     34  C   LIG    1        9.422  -4.088   5.588  0.00  0.00    +0.002 A 
ATOM     35  C   LIG    1        8.486  -4.676   6.418  0.00  0.00    +0.000 A 
ATOM     36  C   LIG    1        7.152  -4.703   6.052  0.00  0.00    +0.002 A 
ATOM     37  C   LIG    1        6.752  -4.136   4.858  0.00  0.00    +0.023 A 
ENDBRANCH  29  32
ENDBRANCH  25  26
ENDBRANCH   1  25
TORSDOF 8
