REMARK  Name = ZINC36242045
REMARK                            x       y       z     vdW  Elec       q    Type
REMARK                         _______ _______ _______ _____ _____    ______ ____
ROOT
ATOM      1  C   LIG    1       -0.017   1.379   0.010  0.00  0.00    +0.005 A 
ATOM      2  C   LIG    1        1.169   2.087   0.002  0.00  0.00    +0.026 A 
ATOM      3  C   LIG    1        2.381   1.409  -0.013  0.00  0.00    +0.047 A 
ATOM      4  C   LIG    1        2.396   0.021  -0.021  0.00  0.00    +0.026 A 
ATOM      5  C   LIG    1        1.207  -0.682  -0.013  0.00  0.00    +0.005 A 
ATOM      6  C   LIG    1        0.002  -0.004   0.002  0.00  0.00    -0.047 A 
ENDROOT
BRANCH   3   7
ATOM      7  N   LIG    1        3.586   2.125  -0.021  0.00  0.00    -0.306 N 
ATOM      8  C   LIG    1        4.850   1.594  -0.042  0.00  0.00    +0.112 A 
ATOM      9  C   LIG    1        5.709   2.631  -0.043  0.00  0.00    +0.130 A 
ATOM     10  N   LIG    1        4.995   3.766  -0.024  0.00  0.00    -0.244 NA
ATOM     11  C   LIG    1        3.723   3.477  -0.016  0.00  0.00    +0.204 A 
ENDBRANCH   3   7
BRANCH   6  12
ATOM     12  C   LIG    1       -1.294  -0.774   0.010  0.00  0.00    +0.035 C 
BRANCH  12  13
ATOM     13  C   LIG    1       -1.746  -1.026  -1.429  0.00  0.00    +0.016 C 
BRANCH  13  14
ATOM     14  C   LIG    1       -3.061  -1.808  -1.421  0.00  0.00    +0.121 C 
BRANCH  14  15
ATOM     15  C   LIG    1       -3.506  -2.057  -2.839  0.00  0.00    +0.305 C 
ATOM     16  O   LIG    1       -2.834  -1.647  -3.770  0.00  0.00    -0.251 OA
BRANCH  15  17
ATOM     17  O   LIG    1       -4.539  -2.668  -3.055  0.00  0.00    -0.481 OA
ATOM     18  H   LIG    1       -5.056  -2.983  -2.340  0.00  0.00    +0.295 HD
ENDBRANCH  15  17
ENDBRANCH  14  15
ENDBRANCH  13  14
ENDBRANCH  12  13
ENDBRANCH   6  12
TORSDOF 6
