REMARK  Name = ZINC13862822
REMARK                            x       y       z     vdW  Elec       q    Type
REMARK                         _______ _______ _______ _____ _____    ______ ____
ROOT
ATOM      1  C   LIG    1        1.210  -0.678  -0.012  0.00  0.00    +0.001 A 
ATOM      2  C   LIG    1        2.407   0.017  -0.019  0.00  0.00    +0.001 A 
ATOM      3  C   LIG    1        2.411   1.399  -0.012  0.00  0.00    +0.012 A 
ATOM      4  C   LIG    1        1.203   2.092   0.002  0.00  0.00    +0.033 A 
ATOM      5  C   LIG    1       -0.017   1.387   0.010  0.00  0.00    -0.006 A 
ATOM      6  C   LIG    1       -1.304   2.116   0.032  0.00  0.00    -0.006 A 
ATOM      7  C   LIG    1       -2.488   1.440   0.308  0.00  0.00    +0.010 A 
ATOM      8  C   LIG    1       -3.688   2.127   0.326  0.00  0.00    +0.016 A 
ATOM      9  C   LIG    1       -3.726   3.488   0.072  0.00  0.00    +0.019 A 
ATOM     10 BR   LIG    1       -5.380   4.405   0.103  0.00  0.00    -0.050 Br
ATOM     11  C   LIG    1       -2.559   4.180  -0.214  0.00  0.00    +0.027 A 
ATOM     12  C   LIG    1       -1.344   3.500  -0.230  0.00  0.00    +0.034 A 
ATOM     13  C   LIG    1       -0.081   4.215  -0.516  0.00  0.00    +0.234 C 
ATOM     14  O   LIG    1       -0.059   5.258  -1.135  0.00  0.00    -0.283 OA
ATOM     15  C   LIG    1        1.178   3.571   0.008  0.00  0.00    +0.234 C 
ATOM     16  O   LIG    1        2.116   4.227   0.411  0.00  0.00    -0.283 OA
ATOM     17  C   LIG    1        0.002  -0.004   0.002  0.00  0.00    +0.009 A 
ENDROOT
TORSDOF 0
