REMARK  Name = ZINC20583646
REMARK                            x       y       z     vdW  Elec       q    Type
REMARK                         _______ _______ _______ _____ _____    ______ ____
ROOT
ATOM      1  C   LIG    1       -0.068   5.349   0.030  0.00  0.00    +0.160 C 
ENDROOT
BRANCH   1   4
ATOM      2  C   LIG    1        1.174   1.783   0.000  0.00  0.00    +0.003 A 
ATOM      3  C   LIG    1        1.156   3.166   0.008  0.00  0.00    +0.005 A 
ATOM      4  C   LIG    1       -0.050   3.842   0.022  0.00  0.00    -0.025 A 
ATOM      5  C   LIG    1       -1.238   3.136   0.030  0.00  0.00    +0.043 A 
ATOM      6  C   LIG    1       -1.221   1.752   0.017  0.00  0.00    +0.124 A 
ATOM      7  F   LIG    1       -2.382   1.062   0.019  0.00  0.00    -0.205 F 
ATOM      8  C   LIG    1       -0.013   1.076   0.008  0.00  0.00    +0.038 A 
ENDBRANCH   1   4
BRANCH   1   9
ATOM      9  N   LIG    1       -0.087   5.844  -1.348  0.00  0.00    -0.304 N 
ATOM     10  C   LIG    1        0.988   6.225  -2.104  0.00  0.00    +0.226 A 
ATOM     11  N   LIG    1        0.532   6.598  -3.266  0.00  0.00    -0.137 NA
ATOM     12  N   LIG    1       -0.747   6.479  -3.297  0.00  0.00    -0.123 NA
ATOM     13  C   LIG    1       -1.180   6.015  -2.148  0.00  0.00    +0.189 A 
BRANCH  13  14
ATOM     14  S   LIG    1       -2.856   5.680  -1.718  0.00  0.00    -0.103 S 
ATOM     15  H   LIG    1       -2.911   5.211  -0.442  0.00  0.00    +0.110 HD
ENDBRANCH  13  14
ENDBRANCH   1   9
TORSDOF 3
