REMARK  Name = ZINC33909278
REMARK                            x       y       z     vdW  Elec       q    Type
REMARK                         _______ _______ _______ _____ _____    ______ ____
ROOT
ATOM      1  C   LIG    1       -1.602  -1.800   2.673  0.00  0.00    +0.218 A 
ATOM      2  N   LIG    1       -1.567  -0.988   3.711  0.00  0.00    -0.195 NA
ATOM      3  C   LIG    1       -2.175  -1.556   4.753  0.00  0.00    +0.170 A 
ATOM      4  C   LIG    1       -2.624  -2.808   4.347  0.00  0.00    +0.153 A 
ATOM      5  C   LIG    1       -3.307  -3.624   5.266  0.00  0.00    +0.280 A 
ATOM      6  N   LIG    1       -3.513  -3.176   6.522  0.00  0.00    -0.273 N 
ATOM      7  C   LIG    1       -3.074  -1.964   6.904  0.00  0.00    +0.331 A 
ATOM      8  O   LIG    1       -3.276  -1.593   8.045  0.00  0.00    -0.246 OA
ATOM      9  H   LIG    1       -3.983  -3.736   7.158  0.00  0.00    +0.173 HD
ATOM     10  O   LIG    1       -3.709  -4.725   4.932  0.00  0.00    -0.265 OA
ATOM     11  N   LIG    1       -2.416  -1.151   6.057  0.00  0.00    -0.280 N 
ATOM     12  C   LIG    1       -1.954   0.162   6.512  0.00  0.00    +0.155 C 
ATOM     13  N   LIG    1       -2.254  -2.943   3.016  0.00  0.00    -0.301 N 
ENDROOT
BRANCH   1  14
ATOM     14  N   LIG    1       -1.069  -1.529   1.433  0.00  0.00    -0.206 N 
ATOM     15  H   LIG    1       -1.143  -2.183   0.720  0.00  0.00    +0.177 HD
BRANCH  14  18
ATOM     16  C   LIG    1        0.826   1.224  -0.216  0.00  0.00    +0.068 C 
ATOM     17  C   LIG    1       -0.010  -0.010   0.007  0.00  0.00    +0.063 C 
ATOM     18  N   LIG    1       -0.418  -0.311   1.202  0.00  0.00    -0.184 NA
BRANCH  17  19
ATOM     19  C   LIG    1       -0.363  -0.876  -1.133  0.00  0.00    -0.002 A 
ATOM     20  C   LIG    1       -1.633  -1.455  -1.207  0.00  0.00    +0.012 A 
ATOM     21  C   LIG    1       -1.956  -2.264  -2.276  0.00  0.00    +0.033 A 
ATOM     22  C   LIG    1       -1.028  -2.503  -3.274  0.00  0.00    +0.122 A 
ATOM     23  C   LIG    1        0.231  -1.933  -3.207  0.00  0.00    +0.033 A 
ATOM     24  C   LIG    1        0.567  -1.117  -2.147  0.00  0.00    +0.012 A 
BRANCH  22  25
ATOM     25  N   LIG    1       -1.383  -3.372  -4.418  0.00  0.00    +0.006 N 
ATOM     26  O   LIG    1       -2.482  -3.872  -4.480  0.00  0.00    -0.130 OA
BRANCH  25  27
ATOM     27  O   LIG    1       -0.574  -3.583  -5.292  0.00  0.00    -0.396 OA
ATOM     28  H   LIG    1        0.278  -3.195  -5.244  0.00  0.00    +0.329 HD
ENDBRANCH  25  27
ENDBRANCH  22  25
ENDBRANCH  17  19
ENDBRANCH  14  18
ENDBRANCH   1  14
BRANCH  13  29
ATOM     29  C   LIG    1       -2.513  -4.096   2.149  0.00  0.00    +0.160 C 
BRANCH  29  30
ATOM     30  C   LIG    1       -1.370  -5.072   2.257  0.00  0.00    -0.028 A 
ATOM     31  C   LIG    1       -0.285  -4.962   1.407  0.00  0.00    +0.005 A 
ATOM     32  C   LIG    1        0.763  -5.858   1.506  0.00  0.00    +0.000 A 
ATOM     33  C   LIG    1        0.727  -6.862   2.454  0.00  0.00    +0.000 A 
ATOM     34  C   LIG    1       -0.357  -6.971   3.305  0.00  0.00    +0.000 A 
ATOM     35  C   LIG    1       -1.404  -6.073   3.209  0.00  0.00    +0.005 A 
ENDBRANCH  29  30
ENDBRANCH  13  29
TORSDOF 7
