REMARK  Name = ZINC29205511
REMARK                            x       y       z     vdW  Elec       q    Type
REMARK                         _______ _______ _______ _____ _____    ______ ____
ROOT
ATOM      1  C   LIG    1       -2.667   5.092   1.224  0.00  0.00    -0.010 C 
ATOM      2  C   LIG    1       -2.632   4.128   0.037  0.00  0.00    -0.055 C 
ENDROOT
BRANCH   2   3
ATOM      3  N   LIG    1       -3.732   3.162   0.158  0.00  0.00    +0.382 N 
ATOM      4  H   LIG    1       -3.622   2.595   1.094  0.00  0.00    -0.089 HD
ATOM      5  H   LIG    1       -4.692   3.699   0.165  0.00  0.00    -0.089 HD
ATOM      6  H   LIG    1       -3.707   2.468  -0.696  0.00  0.00    -0.089 HD
ENDBRANCH   2   3
BRANCH   2   7
ATOM      7  C   LIG    1       -1.317   3.392   0.027  0.00  0.00    -0.036 C 
ATOM      8  C   LIG    1       -1.299   2.061   0.019  0.00  0.00    +0.085 C 
BRANCH   8   9
ATOM      9  C   LIG    1       -0.016   1.344   0.009  0.00  0.00    +0.329 C 
ATOM     10  O   LIG    1        1.028   1.966   0.003  0.00  0.00    -0.246 OA
BRANCH   9  11
ATOM     11  O   LIG    1        0.002  -0.004   0.002  0.00  0.00    -0.478 OA
ATOM     12  H   LIG    1       -0.803  -0.484   0.007  0.00  0.00    +0.295 HD
ENDBRANCH   9  11
ENDBRANCH   8   9
ENDBRANCH   2   7
TORSDOF 4
