REMARK  Name = ZINC28098690
REMARK                            x       y       z     vdW  Elec       q    Type
REMARK                         _______ _______ _______ _____ _____    ______ ____
ROOT
ATOM      1  C   LIG    1       -0.018   1.461   0.010  0.00  0.00    +0.150 C 
ATOM      2  N   LIG    1        0.002  -0.004   0.002  0.00  0.00    -0.335 N 
ATOM      3  C   LIG    1        0.008  -0.784  -1.127  0.00  0.00    +0.088 A 
ATOM      4  C   LIG    1        0.028  -2.082  -0.779  0.00  0.00    +0.034 A 
ATOM      5  C   LIG    1        0.035  -2.125   0.682  0.00  0.00    +0.083 A 
ATOM      6  C   LIG    1        0.054  -3.159   1.643  0.00  0.00    +0.262 A 
ATOM      7  O   LIG    1        0.069  -4.330   1.303  0.00  0.00    -0.267 OA
ATOM      8  N   LIG    1        0.069  -2.817   2.951  0.00  0.00    -0.295 N 
ATOM      9  H   LIG    1        0.085  -3.507   3.632  0.00  0.00    +0.172 HD
ATOM     10  C   LIG    1        0.053  -1.503   3.316  0.00  0.00    +0.195 A 
ATOM     11  N   LIG    1        0.032  -0.532   2.431  0.00  0.00    -0.198 NA
ATOM     12  C   LIG    1        0.023  -0.792   1.116  0.00  0.00    +0.149 A 
ENDROOT
BRANCH  10  13
ATOM     13  N   LIG    1        0.062  -1.184   4.651  0.00  0.00    -0.329 N 
ATOM     14  H   LIG    1        0.078  -1.889   5.318  0.00  0.00    +0.145 HD
ATOM     15  H   LIG    1        0.051  -0.255   4.928  0.00  0.00    +0.145 HD
ENDBRANCH  10  13
TORSDOF 1
