REMARK  Name = ZINC34929024
REMARK                            x       y       z     vdW  Elec       q    Type
REMARK                         _______ _______ _______ _____ _____    ______ ____
ROOT
ATOM      1  C   LIG    1        1.516  -2.381   2.500  0.00  0.00    +0.168 C 
ATOM      2  C   LIG    1        0.578  -2.364   3.714  0.00  0.00    +0.067 C 
ATOM      3  C   LIG    1        1.216  -3.182   4.808  0.00  0.00    -0.016 A 
ATOM      4  C   LIG    1        0.905  -3.228   6.219  0.00  0.00    +0.003 A 
ATOM      5  C   LIG    1       -0.043  -2.566   7.005  0.00  0.00    +0.010 A 
ATOM      6  C   LIG    1       -0.054  -2.862   8.346  0.00  0.00    +0.001 A 
ATOM      7  C   LIG    1        0.826  -3.773   8.906  0.00  0.00    +0.002 A 
ATOM      8  C   LIG    1        1.774  -4.443   8.152  0.00  0.00    +0.026 A 
ATOM      9  C   LIG    1        1.810  -4.162   6.788  0.00  0.00    +0.047 A 
ATOM     10  N   LIG    1        2.599  -4.632   5.777  0.00  0.00    -0.357 N 
ATOM     11  H   LIG    1        3.308  -5.286   5.881  0.00  0.00    +0.166 HD
ATOM     12  C   LIG    1        2.239  -4.042   4.596  0.00  0.00    +0.034 A 
ATOM     13  C   LIG    1        2.848  -4.276   3.234  0.00  0.00    +0.135 C 
ATOM     14  N   LIG    1        1.920  -3.764   2.213  0.00  0.00    -0.298 NA
ATOM     15  H   LIG    1        1.114  -4.365   2.123  0.00  0.00    +0.123 HD
ENDROOT
BRANCH   1  16
ATOM     16  C   LIG    1        0.801  -1.808   1.304  0.00  0.00    +0.325 C 
ATOM     17  O   LIG    1        0.324  -2.546   0.475  0.00  0.00    -0.249 OA
BRANCH  16  18
ATOM     18  O   LIG    1        0.693  -0.477   1.160  0.00  0.00    -0.464 OA
BRANCH  18  20
ATOM     19  C   LIG    1       -0.019   1.526   0.010  0.00  0.00    +0.048 C 
ATOM     20  C   LIG    1        0.002  -0.004   0.002  0.00  0.00    +0.229 C 
ENDBRANCH  18  20
ENDBRANCH  16  18
ENDBRANCH   1  16
TORSDOF 3
