REMARK  Name = ZINC34285231
REMARK                            x       y       z     vdW  Elec       q    Type
REMARK                         _______ _______ _______ _____ _____    ______ ____
ROOT
ATOM      1  C   LIG    1       -3.482  -0.037  -1.266  0.00  0.00    +0.220 A 
ATOM      2  N   LIG    1       -4.077   0.306  -2.394  0.00  0.00    -0.195 NA
ATOM      3  C   LIG    1       -5.415   0.418  -2.442  0.00  0.00    +0.166 A 
ATOM      4  C   LIG    1       -6.309   0.750  -3.443  0.00  0.00    +0.019 A 
ATOM      5  C   LIG    1       -7.588   0.700  -2.898  0.00  0.00    +0.141 A 
ATOM      6  N   LIG    1       -7.500   0.359  -1.634  0.00  0.00    -0.170 NA
ATOM      7  N   LIG    1       -6.153   0.173  -1.310  0.00  0.00    -0.183 N 
ATOM      8  C   LIG    1       -5.504  -0.180  -0.157  0.00  0.00    +0.221 A 
ATOM      9  N   LIG    1       -4.189  -0.283  -0.158  0.00  0.00    -0.181 NA
ENDROOT
BRANCH   4  10
ATOM     10  C   LIG    1       -5.961   1.101  -4.867  0.00  0.00    +0.018 C 
ATOM     11  C   LIG    1       -6.454   2.515  -5.178  0.00  0.00    +0.012 C 
ATOM     12  C   LIG    1       -6.633   0.106  -5.816  0.00  0.00    +0.012 C 
ENDBRANCH   4  10
BRANCH   1  13
ATOM     13  N   LIG    1       -2.105  -0.148  -1.230  0.00  0.00    -0.308 N 
ATOM     14  H   LIG    1       -1.584   0.029  -2.029  0.00  0.00    +0.149 HD
BRANCH  13  15
ATOM     15  CA  LIG    1       -1.433  -0.534   0.013  0.00  0.00    +0.098 C 
BRANCH  15  17
ATOM     16  C   LIG    1       -0.019   1.526   0.010  0.00  0.00    +0.006 C 
ATOM     17  C   LIG    1        0.002  -0.004   0.002  0.00  0.00    +0.021 C 
ENDBRANCH  15  17
BRANCH  15  18
ATOM     18  C   LIG    1       -1.413  -2.059   0.130  0.00  0.00    +0.178 C 
BRANCH  18  19
ATOM     19  O   LIG    1       -0.612  -2.607  -0.918  0.00  0.00    -0.393 OA
ATOM     20  H   LIG    1       -0.554  -3.572  -0.906  0.00  0.00    +0.209 HD
ENDBRANCH  18  19
ENDBRANCH  15  18
ENDBRANCH  13  15
ENDBRANCH   1  13
BRANCH   8  21
ATOM     21  N   LIG    1       -6.216  -0.430   0.987  0.00  0.00    -0.309 N 
ATOM     22  H   LIG    1       -7.184  -0.357   0.982  0.00  0.00    +0.149 HD
BRANCH  21  23
ATOM     23  C   LIG    1       -5.516  -0.807   2.217  0.00  0.00    +0.139 C 
BRANCH  23  24
ATOM     24  C   LIG    1       -6.520  -1.025   3.320  0.00  0.00    -0.030 A 
ATOM     25  C   LIG    1       -6.900   0.031   4.127  0.00  0.00    +0.005 A 
ATOM     26  C   LIG    1       -7.821  -0.168   5.139  0.00  0.00    +0.000 A 
ATOM     27  C   LIG    1       -8.363  -1.423   5.342  0.00  0.00    +0.000 A 
ATOM     28  C   LIG    1       -7.984  -2.479   4.534  0.00  0.00    +0.000 A 
ATOM     29  C   LIG    1       -7.066  -2.279   3.520  0.00  0.00    +0.005 A 
ENDBRANCH  23  24
ENDBRANCH  21  23
ENDBRANCH   8  21
TORSDOF 9
