REMARK  Name = ZINC26819872
REMARK                            x       y       z     vdW  Elec       q    Type
REMARK                         _______ _______ _______ _____ _____    ______ ____
ROOT
ATOM      1  C   LIG    1       -0.013   1.086   0.008  0.00  0.00    +0.177 C 
ATOM      2  C   LIG    1       -0.753   1.593  -1.232  0.00  0.00    +0.177 C 
ATOM      3  C   LIG    1       -0.037   1.099  -2.490  0.00  0.00    +0.193 C 
ATOM      4  C   LIG    1        1.399   1.629  -2.501  0.00  0.00    +0.193 C 
ATOM      5  C   LIG    1        2.139   1.122  -1.262  0.00  0.00    +0.178 C 
ATOM      6  C   LIG    1        1.423   1.615  -0.003  0.00  0.00    +0.192 C 
ENDROOT
BRANCH   1   7
ATOM      7  O   LIG    1       -0.682   1.547   1.184  0.00  0.00    -0.386 OA
ATOM      8  H   LIG    1       -1.599   1.248   1.257  0.00  0.00    +0.210 HD
ENDBRANCH   1   7
BRANCH   2   9
ATOM      9  O   LIG    1       -2.093   1.098  -1.221  0.00  0.00    -0.386 OA
ATOM     10  H   LIG    1       -2.608   1.372  -0.450  0.00  0.00    +0.210 HD
ENDBRANCH   2   9
BRANCH   5  11
ATOM     11  O   LIG    1        2.158  -0.307  -1.270  0.00  0.00    -0.386 OA
ATOM     12  H   LIG    1        2.612  -0.698  -0.511  0.00  0.00    +0.210 HD
ENDBRANCH   5  11
BRANCH   3  13
ATOM     13  O   LIG    1       -0.017  -0.330  -2.498  0.00  0.00    -0.278 OA
BRANCH  13  14
ATOM     14  P   LIG    1       -0.692  -1.209  -3.666  0.00  0.00    +0.473 P 
ATOM     15  O   LIG    1       -2.196  -0.803  -3.823  0.00  0.00    -0.228 OA
BRANCH  14  16
ATOM     16  O   LIG    1       -0.597  -2.729  -3.296  0.00  0.00    -0.303 OA
ATOM     17  H   LIG    1       -1.064  -2.888  -2.461  0.00  0.00    +0.222 HD
ENDBRANCH  14  16
BRANCH  14  18
ATOM     18  O   LIG    1        0.063  -0.953  -5.015  0.00  0.00    -0.303 OA
ATOM     19  H   LIG    1        0.004  -0.012  -5.244  0.00  0.00    +0.222 HD
ENDBRANCH  14  18
ENDBRANCH  13  14
ENDBRANCH   3  13
BRANCH   4  20
ATOM     20  O   LIG    1        2.068   1.168  -3.677  0.00  0.00    -0.278 OA
BRANCH  20  21
ATOM     21  P   LIG    1        2.682   2.163  -4.783  0.00  0.00    +0.473 P 
ATOM     22  O   LIG    1        1.565   3.141  -5.284  0.00  0.00    -0.228 OA
BRANCH  21  23
ATOM     23  O   LIG    1        3.226   1.328  -5.992  0.00  0.00    -0.303 OA
ATOM     24  H   LIG    1        2.501   0.817  -6.384  0.00  0.00    +0.222 HD
ENDBRANCH  21  23
BRANCH  21  25
ATOM     25  O   LIG    1        3.853   2.989  -4.150  0.00  0.00    -0.303 OA
ATOM     26  H   LIG    1        3.517   3.506  -3.401  0.00  0.00    +0.222 HD
ENDBRANCH  21  25
ENDBRANCH  20  21
ENDBRANCH   4  20
BRANCH   6  27
ATOM     27  O   LIG    1        2.114   1.142   1.155  0.00  0.00    -0.278 OA
BRANCH  27  28
ATOM     28  P   LIG    1        2.749   2.125   2.260  0.00  0.00    +0.473 P 
ATOM     29  O   LIG    1        3.726   3.133   1.563  0.00  0.00    -0.228 OA
BRANCH  28  30
ATOM     30  O   LIG    1        3.538   1.281   3.318  0.00  0.00    -0.303 OA
ATOM     31  H   LIG    1        4.248   0.790   2.876  0.00  0.00    +0.222 HD
ENDBRANCH  28  30
BRANCH  28  32
ATOM     32  O   LIG    1        1.603   2.919   2.974  0.00  0.00    -0.303 OA
ATOM     33  H   LIG    1        1.115   3.442   2.318  0.00  0.00    +0.222 HD
ENDBRANCH  28  32
ENDBRANCH  27  28
ENDBRANCH   6  27
TORSDOF 15
