REMARK  Name = ZINC00038933
REMARK                            x       y       z     vdW  Elec       q    Type
REMARK                         _______ _______ _______ _____ _____    ______ ____
ROOT
ATOM      1  C   LIG    1        3.695  -0.683  -0.037  0.00  0.00    +0.139 A 
ATOM      2  C   LIG    1        3.689  -2.044  -0.050  0.00  0.00    +0.098 A 
ATOM      3  C   LIG    1        4.918  -2.743  -0.067  0.00  0.00    +0.193 A 
ATOM      4  C   LIG    1        6.157  -1.941  -0.069  0.00  0.00    +0.065 A 
ATOM      5  C   LIG    1        7.418  -2.561  -0.085  0.00  0.00    +0.016 A 
ATOM      6  C   LIG    1        8.554  -1.820  -0.087  0.00  0.00    +0.009 A 
ATOM      7  C   LIG    1        8.483  -0.412  -0.073  0.00  0.00    -0.014 A 
ATOM      8  C   LIG    1        9.651   0.368  -0.075  0.00  0.00    +0.008 A 
ATOM      9  C   LIG    1        9.557   1.727  -0.062  0.00  0.00    +0.001 A 
ATOM     10  C   LIG    1        8.316   2.358  -0.046  0.00  0.00    +0.001 A 
ATOM     11  C   LIG    1        7.162   1.633  -0.043  0.00  0.00    +0.012 A 
ATOM     12  C   LIG    1        7.222   0.231  -0.057  0.00  0.00    +0.025 A 
ATOM     13  C   LIG    1        6.046  -0.550  -0.055  0.00  0.00    +0.147 A 
ATOM     14  O   LIG    1        4.953  -3.963  -0.079  0.00  0.00    -0.287 OA
ATOM     15  O   LIG    1        4.831   0.029  -0.045  0.00  0.00    -0.454 OA
ENDROOT
BRANCH   1  19
ATOM     16  C   LIG    1       -0.017   1.379   0.010  0.00  0.00    +0.000 A 
ATOM     17  C   LIG    1        1.168   2.094   0.002  0.00  0.00    +0.001 A 
ATOM     18  C   LIG    1        2.377   1.430  -0.013  0.00  0.00    +0.011 A 
ATOM     19  C   LIG    1        2.404   0.034  -0.021  0.00  0.00    +0.017 A 
ATOM     20  C   LIG    1        1.204  -0.681  -0.013  0.00  0.00    +0.011 A 
ATOM     21  C   LIG    1        0.002  -0.004   0.002  0.00  0.00    +0.001 A 
ENDBRANCH   1  19
TORSDOF 1
