REMARK  Name = ZINC20149036
REMARK                            x       y       z     vdW  Elec       q    Type
REMARK                         _______ _______ _______ _____ _____    ______ ____
ROOT
ATOM      1  C   LIG    1        1.824  -4.449   0.022  0.00  0.00    +0.113 A 
ATOM      2  C   LIG    1        2.063  -5.173   1.176  0.00  0.00    +0.031 A 
ATOM      3  C   LIG    1        2.033  -6.553   1.146  0.00  0.00    +0.025 A 
ATOM      4  C   LIG    1        1.762  -7.215  -0.045  0.00  0.00    +0.031 A 
ATOM      5  C   LIG    1        1.522  -6.485  -1.202  0.00  0.00    +0.025 A 
ATOM      6  C   LIG    1        1.549  -5.104  -1.165  0.00  0.00    +0.031 A 
ENDROOT
BRANCH   1   7
ATOM      7  S   LIG    1        1.864  -2.688   0.064  0.00  0.00    +0.101 S 
ATOM      8  O   LIG    1        2.681  -2.327   1.169  0.00  0.00    -0.146 OA
ATOM      9  O   LIG    1        2.141  -2.256  -1.261  0.00  0.00    -0.146 OA
BRANCH   7  16
ATOM     10  C   LIG    1       -1.475   0.896   0.909  0.00  0.00    +0.005 A 
ATOM     11  C   LIG    1       -0.427   1.810   0.703  0.00  0.00    +0.018 A 
ATOM     12  C   LIG    1        0.816   1.370   0.415  0.00  0.00    +0.084 A 
ATOM     13  N   LIG    1        1.078   0.036   0.318  0.00  0.00    -0.345 N 
ATOM     14  H   LIG    1        1.976  -0.265   0.110  0.00  0.00    +0.167 HD
ATOM     15  C   LIG    1        0.076  -0.883   0.514  0.00  0.00    +0.153 A 
ATOM     16  N   LIG    1        0.332  -2.172   0.420  0.00  0.00    -0.111 NA
ATOM     17  C   LIG    1       -1.232  -0.438   0.817  0.00  0.00    +0.048 A 
ENDBRANCH   7  16
ENDBRANCH   1   7
BRANCH   4  18
ATOM     18  N   LIG    1        1.731  -8.611  -0.079  0.00  0.00    -0.320 N 
ATOM     19  H   LIG    1        1.899  -9.120   0.730  0.00  0.00    +0.152 HD
BRANCH  18  20
ATOM     20  C   LIG    1        1.465  -9.258  -1.247  0.00  0.00    +0.085 C 
ATOM     21  C   LIG    1        1.305 -10.614  -1.256  0.00  0.00    +0.061 C 
ATOM     22  C   LIG    1        1.149 -11.510  -0.085  0.00  0.00    +0.025 A 
ATOM     23  C   LIG    1        1.017 -12.806  -0.599  0.00  0.00    +0.043 A 
ATOM     24  N   LIG    1        1.081 -12.756  -1.986  0.00  0.00    -0.281 N 
ATOM     25  H   LIG    1        1.013 -13.532  -2.564  0.00  0.00    +0.155 HD
ATOM     26  C   LIG    1        0.854 -13.868   0.291  0.00  0.00    +0.026 A 
ATOM     27  C   LIG    1        0.820 -13.674   1.636  0.00  0.00    +0.031 A 
ATOM     28  C   LIG    1        0.950 -12.381   2.191  0.00  0.00    +0.079 A 
ATOM     29  N   LIG    1        0.942 -11.990   3.483  0.00  0.00    -0.247 NA
ATOM     30  C   LIG    1        1.077 -10.744   3.831  0.00  0.00    +0.157 A 
ATOM     31  S   LIG    1        1.236  -9.919   2.373  0.00  0.00    -0.075 S 
ATOM     32  C   LIG    1        1.115 -11.313   1.284  0.00  0.00    +0.049 A 
ATOM     33  C   LIG    1        1.244 -11.497  -2.425  0.00  0.00    +0.250 C 
ATOM     34  O   LIG    1        1.328 -11.150  -3.591  0.00  0.00    -0.270 OA
ENDBRANCH  18  20
ENDBRANCH   4  18
TORSDOF 4
