REMARK  Name = ZINC29552512
REMARK                            x       y       z     vdW  Elec       q    Type
REMARK                         _______ _______ _______ _____ _____    ______ ____
ROOT
ATOM      1  C   LIG    1        1.916   1.712  -4.725  0.00  0.00    -0.002 C 
ATOM      2  C   LIG    1        0.547   1.006  -4.816  0.00  0.00    +0.004 C 
ATOM      3  C   LIG    1        0.742  -0.404  -4.217  0.00  0.00    +0.005 C 
ATOM      4  C   LIG    1        1.982  -0.243  -3.254  0.00  0.00    +0.001 C 
ATOM      5  C   LIG    1        1.437   0.464  -2.007  0.00  0.00    +0.025 C 
ATOM      6  C   LIG    1        0.638  -0.558  -1.198  0.00  0.00    +0.118 C 
ATOM      7  C   LIG    1        0.417  -0.075   0.235  0.00  0.00    +0.035 C 
ATOM      8  C   LIG    1        0.534   1.444   0.249  0.00  0.00    +0.000 C 
ATOM      9  C   LIG    1        1.998   1.828   0.024  0.00  0.00    -0.026 C 
ATOM     10  C   LIG    1        2.807   1.435   1.262  0.00  0.00    +0.012 C 
ATOM     11  C   LIG    1        2.083   3.345  -0.140  0.00  0.00    +0.010 C 
ATOM     12  C   LIG    1        1.612   3.990   1.171  0.00  0.00    +0.032 C 
ATOM     13  C   LIG    1        0.172   3.575   1.473  0.00  0.00    +0.115 C 
ATOM     14  C   LIG    1        0.064   2.049   1.569  0.00  0.00    +0.035 C 
ATOM     15  C   LIG    1        2.568   1.071  -1.192  0.00  0.00    +0.001 C 
ATOM     16  C   LIG    1        3.332   2.083  -2.059  0.00  0.00    +0.005 C 
ATOM     17  C   LIG    1        3.945   1.350  -3.249  0.00  0.00    +0.007 C 
ATOM     18  C   LIG    1        2.870   0.694  -4.086  0.00  0.00    -0.026 C 
ATOM     19  C   LIG    1        3.531  -0.131  -5.192  0.00  0.00    +0.012 C 
ENDROOT
BRANCH   1  21
ATOM     20  C   LIG    1        3.725   2.865  -6.005  0.00  0.00    +0.008 C 
ATOM     21  C   LIG    1        2.409   2.094  -6.122  0.00  0.00    -0.010 C 
BRANCH  21  22
ATOM     22  C   LIG    1        1.363   2.974  -6.809  0.00  0.00    +0.013 C 
BRANCH  22  23
ATOM     23  C   LIG    1        1.798   3.252  -8.249  0.00  0.00    +0.096 C 
BRANCH  23  24
ATOM     24  C   LIG    1        0.767   4.119  -8.927  0.00  0.00    +0.213 C 
ATOM     25  N   LIG    1        0.940   4.494 -10.209  0.00  0.00    -0.314 N 
ATOM     26  H   LIG    1        1.834   4.169 -10.762  0.00  0.00    +0.149 HD
ATOM     27  O   LIG    1       -0.219   4.477  -8.318  0.00  0.00    -0.276 OA
BRANCH  25  28
ATOM     28  C   LIG    1       -0.062   5.336 -10.868  0.00  0.00    +0.129 C 
BRANCH  28  29
ATOM     29  C   LIG    1        0.373   5.615 -12.308  0.00  0.00    +0.216 C 
BRANCH  29  30
ATOM     30  S   LIG    1       -0.867   6.658 -13.123  0.00  0.00    +0.081 S 
ATOM     31  O   LIG    1       -0.876   7.954 -12.542  0.00  0.00    -0.147 OA
ATOM     32  O   LIG    1       -2.078   5.934 -13.296  0.00  0.00    -0.147 OA
BRANCH  30  33
ATOM     33  O   LIG    1       -0.336   6.868 -14.534  0.00  0.00    -0.254 OA
ATOM     34  H   LIG    1       -0.301   6.017 -14.997  0.00  0.00    +0.244 HD
ENDBRANCH  30  33
ENDBRANCH  29  30
ENDBRANCH  28  29
ENDBRANCH  25  28
ENDBRANCH  23  24
ENDBRANCH  22  23
ENDBRANCH  21  22
ENDBRANCH   1  21
BRANCH   6  35
ATOM     35  O   LIG    1       -0.630  -0.765  -1.824  0.00  0.00    -0.391 OA
ATOM     36  H   LIG    1       -1.351  -1.471  -1.386  0.00  0.00    +0.210 HD
ENDBRANCH   6  35
BRANCH  13  37
ATOM     37  O   LIG    1       -0.683   4.041   0.426  0.00  0.00    -0.392 OA
ATOM     38  H   LIG    1       -1.763   3.838   0.467  0.00  0.00    +0.210 HD
ENDBRANCH  13  37
TORSDOF 10
