REMARK  Name = ZINC20898557
REMARK                            x       y       z     vdW  Elec       q    Type
REMARK                         _______ _______ _______ _____ _____    ______ ____
ROOT
ATOM      1  C   LIG    1        3.670  -0.744  -0.397  0.00  0.00    +0.044 C 
ATOM      2  C   LIG    1        2.366   0.004  -0.281  0.00  0.00    -0.046 A 
ATOM      3  C   LIG    1        2.367   1.386  -0.250  0.00  0.00    +0.028 A 
ATOM      4  C   LIG    1        1.170   2.076  -0.143  0.00  0.00    +0.052 A 
ATOM      5  C   LIG    1       -0.033   1.363  -0.088  0.00  0.00    +0.068 A 
ATOM      6  N   LIG    1       -1.228   2.093  -0.017  0.00  0.00    -0.306 N 
ATOM      7  C   LIG    1       -2.481   1.639   0.260  0.00  0.00    +0.069 A 
ATOM      8  C   LIG    1       -3.323   2.723   0.263  0.00  0.00    +0.089 A 
ATOM      9  C   LIG    1       -2.486   3.909  -0.046  0.00  0.00    +0.082 A 
ATOM     10  N   LIG    1       -3.096   5.171  -0.101  0.00  0.00    -0.294 N 
ATOM     11  C   LIG    1       -2.323   6.380  -0.397  0.00  0.00    +0.154 C 
ATOM     12  C   LIG    1       -4.426   5.226   0.132  0.00  0.00    +0.332 A 
ATOM     13  N   LIG    1       -5.210   4.180   0.408  0.00  0.00    -0.263 N 
ATOM     14  C   LIG    1       -6.637   4.426   0.629  0.00  0.00    +0.157 C 
ATOM     15  O   LIG    1       -4.955   6.320   0.085  0.00  0.00    -0.246 OA
ATOM     16  C   LIG    1       -4.760   2.901   0.495  0.00  0.00    +0.266 A 
ATOM     17  O   LIG    1       -5.498   1.968   0.749  0.00  0.00    -0.267 OA
ATOM     18  C   LIG    1       -1.248   3.466  -0.212  0.00  0.00    +0.073 A 
ATOM     19  C   LIG    1        0.008   4.235  -0.563  0.00  0.00    +0.150 C 
ATOM     20  C   LIG    1       -0.026  -0.018  -0.111  0.00  0.00    +0.031 A 
ATOM     21  N   LIG    1        1.160   3.473  -0.059  0.00  0.00    -0.330 N 
ATOM     22  H   LIG    1        2.017   4.001   0.385  0.00  0.00    +0.147 HD
ATOM     23  C   LIG    1        1.177  -0.697  -0.207  0.00  0.00    -0.045 A 
ATOM     24  C   LIG    1        1.189  -2.204  -0.231  0.00  0.00    +0.044 C 
ENDROOT
BRANCH   7  25
ATOM     25  C   LIG    1       -2.865   0.235   0.507  0.00  0.00    -0.000 A 
ATOM     26  C   LIG    1       -3.829  -0.380  -0.295  0.00  0.00    +0.010 A 
ATOM     27  C   LIG    1       -4.179  -1.694  -0.062  0.00  0.00    +0.001 A 
ATOM     28  C   LIG    1       -3.586  -2.398   0.971  0.00  0.00    +0.000 A 
ATOM     29  C   LIG    1       -2.634  -1.794   1.773  0.00  0.00    +0.001 A 
ATOM     30  C   LIG    1       -2.271  -0.482   1.548  0.00  0.00    +0.010 A 
ENDBRANCH   7  25
BRANCH  19  31
ATOM     31  C   LIG    1        0.111   4.387  -2.059  0.00  0.00    -0.021 A 
ATOM     32  C   LIG    1        0.558   3.331  -2.830  0.00  0.00    +0.009 A 
ATOM     33  C   LIG    1        0.649   3.466  -4.202  0.00  0.00    +0.046 A 
ATOM     34  C   LIG    1        0.302   4.667  -4.804  0.00  0.00    +0.117 A 
ATOM     35  C   LIG    1       -0.141   5.727  -4.027  0.00  0.00    +0.046 A 
ATOM     36  C   LIG    1       -0.236   5.585  -2.656  0.00  0.00    +0.009 A 
BRANCH  34  37
ATOM     37  O   LIG    1        0.396   4.804  -6.153  0.00  0.00    -0.507 OA
ATOM     38  H   LIG    1        0.121   5.757  -6.629  0.00  0.00    +0.292 HD
ENDBRANCH  34  37
ENDBRANCH  19  31
TORSDOF 3
