REMARK  Name = ZINC28643021
REMARK                            x       y       z     vdW  Elec       q    Type
REMARK                         _______ _______ _______ _____ _____    ______ ____
ROOT
ATOM      1  C   LIG    1       -0.603   1.144   1.591  0.00  0.00    +0.001 A 
ATOM      2  C   LIG    1        0.463   2.027   1.643  0.00  0.00    +0.001 A 
ATOM      3  C   LIG    1        1.723   1.618   1.261  0.00  0.00    +0.015 A 
ATOM      4  C   LIG    1        1.936   0.312   0.822  0.00  0.00    +0.020 A 
ATOM      5  C   LIG    1        0.863  -0.579   0.770  0.00  0.00    -0.004 A 
ATOM      6  C   LIG    1        1.040  -1.971   0.315  0.00  0.00    -0.012 C 
ATOM      7  C   LIG    1        2.347  -2.652   0.357  0.00  0.00    -0.003 A 
ATOM      8  C   LIG    1        2.382  -4.049   0.380  0.00  0.00    +0.022 A 
ATOM      9  C   LIG    1        3.590  -4.712   0.419  0.00  0.00    +0.055 A 
ATOM     10  C   LIG    1        4.776  -3.997   0.438  0.00  0.00    +0.013 A 
ATOM     11  C   LIG    1        4.756  -2.618   0.415  0.00  0.00    +0.016 A 
ATOM     12  C   LIG    1        3.543  -1.932   0.373  0.00  0.00    +0.020 A 
ATOM     13  C   LIG    1       -0.025  -2.640  -0.152  0.00  0.00    -0.017 C 
ATOM     14  S   LIG    1        3.556  -0.175   0.342  0.00  0.00    -0.088 S 
ATOM     15  C   LIG    1       -0.409  -0.150   1.159  0.00  0.00    +0.009 A 
ENDROOT
BRANCH   9  16
ATOM     16  C   LIG    1        3.620  -6.218   0.444  0.00  0.00    +0.417 C 
ATOM     17  F   LIG    1        2.472  -6.698   1.083  0.00  0.00    -0.166 F 
ATOM     18  F   LIG    1        4.755  -6.651   1.138  0.00  0.00    -0.166 F 
ATOM     19  F   LIG    1        3.662  -6.705  -0.867  0.00  0.00    -0.166 F 
ENDBRANCH   9  16
BRANCH  13  20
ATOM     20  C   LIG    1       -1.252  -1.887  -0.597  0.00  0.00    +0.043 C 
BRANCH  20  21
ATOM     21  C   LIG    1       -1.649  -2.344  -2.002  0.00  0.00    +0.088 C 
BRANCH  21  22
ATOM     22  N   LIG    1       -2.845  -1.609  -2.436  0.00  0.00    -0.300 NA
ATOM     23  C   LIG    1       -2.552  -0.179  -2.607  0.00  0.00    +0.100 C 
ATOM     24  C   LIG    1       -3.839   0.561  -2.981  0.00  0.00    +0.100 C 
ATOM     25  N   LIG    1       -4.389  -0.013  -4.218  0.00  0.00    -0.298 NA
ATOM     26  C   LIG    1       -4.681  -1.442  -4.047  0.00  0.00    +0.100 C 
ATOM     27  C   LIG    1       -3.395  -2.183  -3.673  0.00  0.00    +0.100 C 
BRANCH  25  28
ATOM     28  C   LIG    1       -5.585   0.722  -4.651  0.00  0.00    +0.112 C 
BRANCH  28  29
ATOM     29  C   LIG    1       -5.167   2.055  -5.274  0.00  0.00    +0.171 C 
BRANCH  29  30
ATOM     30  O   LIG    1       -4.381   1.810  -6.442  0.00  0.00    -0.394 OA
ATOM     31  H   LIG    1       -4.081   2.612  -6.890  0.00  0.00    +0.209 HD
ENDBRANCH  29  30
ENDBRANCH  28  29
ENDBRANCH  25  28
ENDBRANCH  21  22
ENDBRANCH  20  21
ENDBRANCH  13  20
TORSDOF 7
