REMARK  Name = ZINC34212555
REMARK                            x       y       z     vdW  Elec       q    Type
REMARK                         _______ _______ _______ _____ _____    ______ ____
ROOT
ATOM      1  C   LIG    1       -0.019   1.522   0.010  0.00  0.00    +0.012 C 
ATOM      2  C   LIG    1        0.002  -0.004   0.002  0.00  0.00    -0.016 C 
ATOM      3  C   LIG    1       -1.402  -0.559   0.050  0.00  0.00    +0.008 C 
ATOM      4  C   LIG    1       -2.013  -0.221   1.425  0.00  0.00    +0.005 C 
ATOM      5  C   LIG    1       -1.195  -0.845   2.543  0.00  0.00    +0.000 C 
ATOM      6  C   LIG    1        0.264  -0.365   2.511  0.00  0.00    -0.004 C 
ATOM      7  C   LIG    1        0.351   1.067   3.014  0.00  0.00    +0.006 C 
ATOM      8  C   LIG    1       -0.000   1.092   4.509  0.00  0.00    +0.023 C 
ATOM      9  C   LIG    1       -0.673  -0.216   4.904  0.00  0.00    +0.079 C 
ATOM     10  N   LIG    1       -1.192  -0.139   6.264  0.00  0.00    -0.312 N 
ATOM     11  H   LIG    1       -0.725   0.425   6.900  0.00  0.00    +0.149 HD
ATOM     12  C   LIG    1       -2.275  -0.802   6.673  0.00  0.00    +0.213 C 
ATOM     13  O   LIG    1       -2.604  -0.701   7.836  0.00  0.00    -0.276 OA
ATOM     14  C   LIG    1       -3.110  -1.666   5.775  0.00  0.00    +0.096 C 
ATOM     15  C   LIG    1       -2.430  -1.897   4.429  0.00  0.00    +0.018 C 
ATOM     16  C   LIG    1       -1.785  -0.596   3.928  0.00  0.00    -0.010 C 
ATOM     17  C   LIG    1       -2.844   0.503   3.888  0.00  0.00    +0.013 C 
ATOM     18  C   LIG    1        0.850  -0.438  -1.210  0.00  0.00    +0.104 C 
ATOM     19  C   LIG    1        2.312  -0.275  -0.716  0.00  0.00    +0.015 C 
ATOM     20  C   LIG    1        2.238  -0.088   0.827  0.00  0.00    +0.005 C 
ATOM     21  C   LIG    1        0.833  -0.609   1.150  0.00  0.00    -0.001 C 
ENDROOT
BRANCH  18  22
ATOM     22  C   LIG    1        0.583   0.474  -2.375  0.00  0.00    +0.308 C 
ATOM     23  O   LIG    1        1.459   0.687  -3.196  0.00  0.00    -0.251 OA
BRANCH  22  24
ATOM     24  O   LIG    1       -0.509   1.001  -2.498  0.00  0.00    -0.480 OA
ATOM     25  H   LIG    1       -1.183   0.837  -1.867  0.00  0.00    +0.295 HD
ENDBRANCH  22  24
ENDBRANCH  18  22
TORSDOF 2
