REMARK  Name = ZINC43025379
REMARK                            x       y       z     vdW  Elec       q    Type
REMARK                         _______ _______ _______ _____ _____    ______ ____
ROOT
ATOM      1  N   LIG    1       -1.931  -4.524   1.248  0.00  0.00    -0.302 N 
ATOM      2  C   LIG    1       -0.559  -4.626   1.333  0.00  0.00    +0.074 A 
ATOM      3  C   LIG    1        0.252  -4.317   0.247  0.00  0.00    +0.056 A 
ATOM      4  C   LIG    1        1.630  -4.436   0.384  0.00  0.00    +0.075 A 
ATOM      5  N   LIG    1        2.174  -4.838   1.530  0.00  0.00    -0.253 NA
ATOM      6  C   LIG    1        1.448  -5.141   2.582  0.00  0.00    +0.141 A 
ATOM      7  C   LIG    1        0.050  -5.048   2.532  0.00  0.00    +0.108 A 
ATOM      8  N   LIG    1       -0.697  -5.357   3.609  0.00  0.00    -0.224 NA
ATOM      9  C   LIG    1       -2.003  -5.273   3.567  0.00  0.00    +0.185 A 
ATOM     10  C   LIG    1       -2.678  -4.830   2.333  0.00  0.00    +0.292 A 
ATOM     11  O   LIG    1       -3.891  -4.745   2.290  0.00  0.00    -0.264 OA
ENDROOT
BRANCH   4  12
ATOM     12  C   LIG    1        2.508  -4.110  -0.765  0.00  0.00    +0.019 A 
ATOM     13  C   LIG    1        3.889  -4.327  -0.687  0.00  0.00    +0.017 A 
ATOM     14  C   LIG    1        4.666  -4.007  -1.784  0.00  0.00    +0.068 A 
ATOM     15  C   LIG    1        4.057  -3.486  -2.919  0.00  0.00    +0.214 A 
ATOM     16  N   LIG    1        2.748  -3.292  -2.961  0.00  0.00    -0.221 NA
ATOM     17  C   LIG    1        1.970  -3.589  -1.939  0.00  0.00    +0.124 A 
BRANCH  15  18
ATOM     18  O   LIG    1        4.814  -3.170  -3.999  0.00  0.00    -0.480 OA
ATOM     19  C   LIG    1        4.132  -2.638  -5.137  0.00  0.00    +0.279 C 
ENDBRANCH  15  18
ENDBRANCH   4  12
BRANCH   9  20
ATOM     20  N   LIG    1       -2.752  -5.595   4.685  0.00  0.00    -0.327 N 
ATOM     21  H   LIG    1       -3.719  -5.533   4.656  0.00  0.00    +0.148 HD
BRANCH  20  22
ATOM     22  C   LIG    1       -2.083  -6.030   5.914  0.00  0.00    +0.084 C 
BRANCH  22  23
ATOM     23  C   LIG    1       -3.132  -6.323   6.989  0.00  0.00    -0.060 C 
BRANCH  23  24
ATOM     24  N   LIG    1       -2.461  -6.759   8.221  0.00  0.00    +0.384 N 
ATOM     25  H   LIG    1       -1.783  -6.066   8.499  0.00  0.00    -0.082 HD
ATOM     26  C   LIG    1       -1.783  -8.041   7.983  0.00  0.00    -0.050 C 
ATOM     27  C   LIG    1       -1.085  -8.493   9.268  0.00  0.00    +0.141 C 
ATOM     28  O   LIG    1       -2.051  -8.597  10.317  0.00  0.00    -0.383 OA
ATOM     29  C   LIG    1       -2.756  -7.379  10.572  0.00  0.00    +0.141 C 
ATOM     30  C   LIG    1       -3.457  -6.924   9.289  0.00  0.00    -0.050 C 
ENDBRANCH  23  24
ENDBRANCH  22  23
ENDBRANCH  20  22
ENDBRANCH   9  20
BRANCH   1  31
ATOM     31  C   LIG    1       -2.570  -4.085   0.005  0.00  0.00    +0.153 C 
BRANCH  31  32
ATOM     32  C   LIG    1       -2.711  -2.561   0.014  0.00  0.00    +0.181 C 
BRANCH  32  33
ATOM     33  O   LIG    1       -1.414  -1.962   0.005  0.00  0.00    -0.378 OA
BRANCH  33  34
ATOM     34  C   LIG    1       -1.433  -0.534   0.013  0.00  0.00    +0.159 C 
BRANCH  34  36
ATOM     35  C   LIG    1       -0.019   1.526   0.010  0.00  0.00    +0.006 C 
ATOM     36  C   LIG    1        0.002  -0.004   0.002  0.00  0.00    +0.025 C 
ENDBRANCH  34  36
ENDBRANCH  33  34
ENDBRANCH  32  33
ENDBRANCH  31  32
ENDBRANCH   1  31
TORSDOF 11
