REMARK  Name = ZINC28231323
REMARK                            x       y       z     vdW  Elec       q    Type
REMARK                         _______ _______ _______ _____ _____    ______ ____
ROOT
ATOM      1  N   LIG    1        2.450   3.733   0.115  0.00  0.00    -0.333 N 
ATOM      2  C   LIG    1        3.196   3.525   1.364  0.00  0.00    +0.086 C 
ATOM      3  C   LIG    1        4.536   4.259   1.284  0.00  0.00    -0.059 C 
ATOM      4  N   LIG    1        4.294   5.690   1.050  0.00  0.00    +0.385 N 
ATOM      5  H   LIG    1        3.681   6.071   1.880  0.00  0.00    -0.081 HD
ATOM      6  C   LIG    1        3.549   5.898  -0.199  0.00  0.00    -0.059 C 
ATOM      7  C   LIG    1        2.208   5.164  -0.118  0.00  0.00    +0.086 C 
ENDROOT
BRANCH   1  11
ATOM      8  C   LIG    1       -1.130   1.597   0.133  0.00  0.00    +0.120 A 
ATOM      9  C   LIG    1        0.073   0.937   0.337  0.00  0.00    +0.047 A 
ATOM     10  C   LIG    1        1.259   1.643   0.329  0.00  0.00    +0.027 A 
ATOM     11  C   LIG    1        1.248   3.016   0.123  0.00  0.00    +0.030 A 
ATOM     12  C   LIG    1        0.043   3.678  -0.075  0.00  0.00    +0.027 A 
ATOM     13  C   LIG    1       -1.143   2.970  -0.067  0.00  0.00    +0.047 A 
BRANCH   8  15
ATOM     14  C   LIG    1       -3.498   1.644  -0.082  0.00  0.00    +0.277 C 
ATOM     15  O   LIG    1       -2.297   0.900   0.134  0.00  0.00    -0.495 OA
ENDBRANCH   8  15
ENDBRANCH   1  11
BRANCH   4  16
ATOM     16  C   LIG    1        5.556   6.442   1.042  0.00  0.00    -0.039 C 
ATOM     17  C   LIG    1        6.419   5.978  -0.133  0.00  0.00    -0.013 C 
ATOM     18  C   LIG    1        7.733   6.762  -0.142  0.00  0.00    -0.001 C 
ATOM     19  C   LIG    1        7.435   8.255  -0.287  0.00  0.00    +0.002 C 
ATOM     20  C   LIG    1        6.572   8.720   0.888  0.00  0.00    +0.030 C 
ATOM     21  C   LIG    1        5.258   7.936   0.897  0.00  0.00    +0.101 C 
BRANCH  21  22
ATOM     22  O   LIG    1        4.452   8.370   1.994  0.00  0.00    -0.393 OA
ATOM     23  H   LIG    1        4.135   9.421   2.063  0.00  0.00    +0.210 HD
ENDBRANCH  21  22
ENDBRANCH   4  16
TORSDOF 4
