REMARK  Name = ZINC27899846
REMARK                            x       y       z     vdW  Elec       q    Type
REMARK                         _______ _______ _______ _____ _____    ______ ____
ROOT
ATOM      1  C   LIG    1        7.277   1.272   3.474  0.00  0.00    +0.185 C 
ATOM      2  C   LIG    1        6.512  -0.032   3.694  0.00  0.00    +0.052 C 
ATOM      3  C   LIG    1        6.466  -0.317   5.201  0.00  0.00    +0.012 C 
ATOM      4  C   LIG    1        7.889  -0.404   5.756  0.00  0.00    +0.012 C 
ATOM      5  C   LIG    1        5.730   0.821   5.862  0.00  0.00    -0.020 C 
ATOM      6  C   LIG    1        5.798   2.047   5.378  0.00  0.00    -0.044 C 
ATOM      7  C   LIG    1        4.971   3.112   5.992  0.00  0.00    -0.000 C 
ATOM      8  C   LIG    1        4.771   4.244   5.340  0.00  0.00    -0.023 C 
ATOM      9  C   LIG    1        5.346   4.551   3.991  0.00  0.00    +0.012 C 
ATOM     10  C   LIG    1        4.296   5.285   3.155  0.00  0.00    +0.012 C 
ATOM     11  C   LIG    1        5.769   3.278   3.255  0.00  0.00    +0.007 C 
ATOM     12  C   LIG    1        6.634   2.433   4.194  0.00  0.00    +0.063 C 
ENDROOT
BRANCH   1  13
ATOM     13  O   LIG    1        8.636   1.109   3.960  0.00  0.00    -0.461 OA
BRANCH  13  14
ATOM     14  C   LIG    1        9.536   0.610   3.098  0.00  0.00    +0.310 C 
ATOM     15  O   LIG    1        9.200   0.320   1.974  0.00  0.00    -0.251 OA
BRANCH  14  16
ATOM     16  C   LIG    1       10.966   0.413   3.532  0.00  0.00    +0.094 C 
ATOM     17  C   LIG    1       11.562   1.758   3.952  0.00  0.00    +0.019 C 
BRANCH  16  19
ATOM     18  C   LIG    1       13.196  -0.480   2.845  0.00  0.00    +0.004 C 
ATOM     19  C   LIG    1       11.777  -0.163   2.369  0.00  0.00    +0.011 C 
ENDBRANCH  16  19
ENDBRANCH  14  16
ENDBRANCH  13  14
ENDBRANCH   1  13
BRANCH  11  20
ATOM     20  C   LIG    1        4.527   2.484   2.848  0.00  0.00    +0.008 C 
BRANCH  20  21
ATOM     21  C   LIG    1        3.608   2.317   4.060  0.00  0.00    +0.045 C 
BRANCH  21  22
ATOM     22  C   LIG    1        2.303   1.648   3.622  0.00  0.00    +0.179 C 
ATOM     23  C   LIG    1        1.432   1.373   4.851  0.00  0.00    +0.076 C 
ATOM     24  C   LIG    1        0.105   0.752   4.404  0.00  0.00    +0.129 C 
ATOM     25  C   LIG    1       -0.612   1.730   3.466  0.00  0.00    +0.152 C 
ATOM     26  C   LIG    1        0.347   2.124   2.364  0.00  0.00    +0.310 C 
ATOM     27  O   LIG    1        0.013   2.077   1.204  0.00  0.00    -0.251 OA
ATOM     28  O   LIG    1        1.585   2.529   2.714  0.00  0.00    -0.461 OA
BRANCH  24  29
ATOM     29  O   LIG    1       -0.713   0.498   5.548  0.00  0.00    -0.391 OA
ATOM     30  H   LIG    1       -1.710   0.051   5.422  0.00  0.00    +0.210 HD
ENDBRANCH  24  29
ENDBRANCH  21  22
ENDBRANCH  20  21
ENDBRANCH  11  20
TORSDOF 8
