REMARK  Name = ZINC40379069
REMARK                            x       y       z     vdW  Elec       q    Type
REMARK                         _______ _______ _______ _____ _____    ______ ____
ROOT
ATOM      1  C   LIG    1       -0.019   1.527   0.010  0.00  0.00    +0.007 C 
ATOM      2  C   LIG    1        1.376   2.159   0.001  0.00  0.00    -0.010 C 
ATOM      3  C   LIG    1        2.174   1.584  -1.202  0.00  0.00    +0.007 C 
ATOM      4  C   LIG    1        2.269   0.080  -0.809  0.00  0.00    -0.006 C 
ATOM      5  C   LIG    1        0.870  -0.467  -1.220  0.00  0.00    +0.007 C 
ATOM      6  C   LIG    1        2.276   0.061   0.748  0.00  0.00    -0.042 C 
ATOM      7  C   LIG    1        0.878  -0.486   1.193  0.00  0.00    +0.009 C 
ATOM      8  C   LIG    1        2.185   1.572   1.192  0.00  0.00    +0.009 C 
ATOM      9  C   LIG    1        0.002  -0.004   0.002  0.00  0.00    -0.010 C 
ENDROOT
BRANCH   6  10
ATOM     10  C   LIG    1        3.455  -0.707   1.348  0.00  0.00    -0.079 C 
BRANCH  10  11
ATOM     11  N   LIG    1        3.372  -0.666   2.814  0.00  0.00    +0.378 N 
ATOM     12  H   LIG    1        4.149  -1.173   3.209  0.00  0.00    -0.090 HD
ATOM     13  H   LIG    1        2.506  -1.090   3.113  0.00  0.00    -0.090 HD
ATOM     14  H   LIG    1        3.402   0.293   3.126  0.00  0.00    -0.090 HD
ENDBRANCH  10  11
ENDBRANCH   6  10
TORSDOF 2
