REMARK  Name = ZINC22197575
REMARK                            x       y       z     vdW  Elec       q    Type
REMARK                         _______ _______ _______ _____ _____    ______ ____
ROOT
ATOM      1  C   LIG    1        7.710  -1.984   4.895  0.00  0.00    +0.077 C 
ENDROOT
BRANCH   1   2
ATOM      2  C   LIG    1        8.117  -2.251   6.321  0.00  0.00    +0.215 C 
ATOM      3  N   LIG    1        9.227  -2.971   6.581  0.00  0.00    -0.286 N 
ATOM      4  H   LIG    1        9.726  -3.374   5.853  0.00  0.00    +0.155 HD
ATOM      5  O   LIG    1        7.447  -1.819   7.234  0.00  0.00    -0.276 OA
BRANCH   3   6
ATOM      6  C   LIG    1        9.658  -3.138   7.902  0.00  0.00    +0.033 A 
ATOM      7  C   LIG    1       11.016  -3.182   8.189  0.00  0.00    +0.025 A 
ATOM      8  C   LIG    1       11.439  -3.347   9.494  0.00  0.00    +0.030 A 
ATOM      9  C   LIG    1       10.512  -3.469  10.513  0.00  0.00    +0.105 A 
ATOM     10  C   LIG    1        9.159  -3.425  10.229  0.00  0.00    +0.030 A 
ATOM     11  C   LIG    1        8.730  -3.255   8.928  0.00  0.00    +0.025 A 
BRANCH   9  12
ATOM     12  S   LIG    1       11.056  -3.679  12.175  0.00  0.00    +0.056 S 
ATOM     13  O   LIG    1       12.362  -4.234  12.108  0.00  0.00    -0.153 OA
ATOM     14  O   LIG    1        9.993  -4.314  12.873  0.00  0.00    -0.153 OA
BRANCH  12  15
ATOM     15  N   LIG    1       11.216  -2.167  12.833  0.00  0.00    -0.204 NA
ATOM     16  H   LIG    1       11.450  -1.415  12.267  0.00  0.00    +0.144 HD
ATOM     17  H   LIG    1       11.077  -2.035  13.784  0.00  0.00    +0.144 HD
ENDBRANCH  12  15
ENDBRANCH   9  12
ENDBRANCH   3   6
ENDBRANCH   1   2
BRANCH   1  18
ATOM     18  C   LIG    1        6.426  -1.151   4.878  0.00  0.00    -0.069 C 
BRANCH  18  22
ATOM     19  N   LIG    1        4.139  -0.970   1.349  0.00  0.00    -0.302 NA
ATOM     20  C   LIG    1        4.465   0.294   2.023  0.00  0.00    +0.066 C 
ATOM     21  C   LIG    1        4.867   0.007   3.472  0.00  0.00    -0.063 C 
ATOM     22  N   LIG    1        6.030  -0.890   3.488  0.00  0.00    +0.382 N 
ATOM     23  H   LIG    1        6.796  -0.457   2.996  0.00  0.00    -0.082 HD
ATOM     24  C   LIG    1        5.681  -2.158   2.833  0.00  0.00    -0.063 C 
ATOM     25  C   LIG    1        5.286  -1.889   1.379  0.00  0.00    +0.066 C 
BRANCH  19  26
ATOM     26  C   LIG    1        3.693  -0.731  -0.030  0.00  0.00    +0.119 C 
BRANCH  26  30
ATOM     27  C   LIG    1       -0.029   1.365   0.018  0.00  0.00    +0.000 A 
ATOM     28  C   LIG    1        1.160   2.069   0.002  0.00  0.00    +0.000 A 
ATOM     29  C   LIG    1        2.365   1.390  -0.013  0.00  0.00    +0.005 A 
ATOM     30  C   LIG    1        2.380   0.008  -0.013  0.00  0.00    -0.033 A 
ATOM     31  C   LIG    1        1.190  -0.696   0.004  0.00  0.00    +0.005 A 
ATOM     32  C   LIG    1       -0.014  -0.018   0.019  0.00  0.00    +0.000 A 
ENDBRANCH  26  30
ENDBRANCH  19  26
ENDBRANCH  18  22
ENDBRANCH   1  18
TORSDOF 8
