REMARK  Name = ZINC15924299
REMARK                            x       y       z     vdW  Elec       q    Type
REMARK                         _______ _______ _______ _____ _____    ______ ____
ROOT
ATOM      1  C   LIG    1        1.260  -5.022  -0.783  0.00  0.00    +0.393 C 
ATOM      2  N   LIG    1        1.786  -4.311  -1.740  0.00  0.00    -0.129 NA
ATOM      3  H   LIG    1        1.696  -4.598  -2.662  0.00  0.00    +0.306 HD
ENDROOT
BRANCH   1   4
ATOM      4  N   LIG    1        1.298  -4.565   0.514  0.00  0.00    -0.243 N 
ATOM      5  H   LIG    1        0.989  -5.133   1.238  0.00  0.00    +0.265 HD
BRANCH   4  10
ATOM      6  C   LIG    1        3.255   0.641   1.632  0.00  0.00    +0.044 C 
ATOM      7  C   LIG    1        2.735  -0.742   1.335  0.00  0.00    -0.050 A 
ATOM      8  C   LIG    1        2.188  -1.022   0.096  0.00  0.00    +0.007 A 
ATOM      9  C   LIG    1        1.711  -2.289  -0.179  0.00  0.00    +0.042 A 
ATOM     10  C   LIG    1        1.781  -3.281   0.790  0.00  0.00    +0.100 A 
ATOM     11  C   LIG    1        2.330  -2.997   2.033  0.00  0.00    +0.042 A 
ATOM     12  C   LIG    1        2.811  -1.730   2.300  0.00  0.00    +0.007 A 
ENDBRANCH   4  10
ENDBRANCH   1   4
BRANCH   1  13
ATOM     13  N   LIG    1        0.666  -6.234  -1.071  0.00  0.00    -0.186 N 
ATOM     14  H   LIG    1        0.716  -6.597  -1.969  0.00  0.00    +0.271 HD
BRANCH  13  15
ATOM     15  C   LIG    1        0.001  -6.927  -0.082  0.00  0.00    +0.385 C 
ATOM     16  N   LIG    1       -0.146  -8.218  -0.178  0.00  0.00    -0.129 NA
ATOM     17  H   LIG    1        0.274  -8.701  -0.906  0.00  0.00    +0.306 HD
BRANCH  15  18
ATOM     18  N   LIG    1       -0.507  -6.257   1.006  0.00  0.00    -0.289 N 
ATOM     19  H   LIG    1       -0.784  -6.750   1.794  0.00  0.00    +0.255 HD
ATOM     20  H   LIG    1       -0.589  -5.290   0.985  0.00  0.00    +0.255 HD
ENDBRANCH  15  18
ENDBRANCH  13  15
ENDBRANCH   1  13
TORSDOF 5
