REMARK  Name = ZINC14965014
REMARK                            x       y       z     vdW  Elec       q    Type
REMARK                         _______ _______ _______ _____ _____    ______ ____
ROOT
ATOM      1  C   LIG    1       -0.908  -2.081   0.320  0.00  0.00    -0.046 A 
ATOM      2  C   LIG    1       -1.005  -2.663  -0.935  0.00  0.00    +0.005 A 
ATOM      3  C   LIG    1       -1.154  -4.029  -1.063  0.00  0.00    +0.025 A 
ATOM      4  C   LIG    1       -1.207  -4.832   0.070  0.00  0.00    +0.062 A 
ATOM      5  C   LIG    1       -1.109  -4.246   1.343  0.00  0.00    +0.081 A 
ATOM      6  C   LIG    1       -0.953  -2.860   1.454  0.00  0.00    +0.020 A 
ENDROOT
BRANCH   4   7
ATOM      7  N   LIG    1       -1.357  -6.206  -0.056  0.00  0.00    -0.215 N 
ATOM      8  H   LIG    1       -1.884  -6.697   0.593  0.00  0.00    +0.174 HD
BRANCH   7   9
ATOM      9  S   LIG    1       -0.635  -7.005  -1.313  0.00  0.00    +0.072 S 
ATOM     10  O   LIG    1       -1.046  -6.346  -2.503  0.00  0.00    -0.150 OA
ATOM     11  O   LIG    1       -0.859  -8.392  -1.095  0.00  0.00    -0.150 OA
BRANCH   9  12
ATOM     12  C   LIG    1        1.101  -6.747  -1.168  0.00  0.00    +0.108 A 
ATOM     13  C   LIG    1        1.692  -5.659  -1.783  0.00  0.00    +0.029 A 
ATOM     14  C   LIG    1        3.054  -5.455  -1.668  0.00  0.00    +0.002 A 
ATOM     15  C   LIG    1        3.826  -6.340  -0.939  0.00  0.00    +0.000 A 
ATOM     16  C   LIG    1        3.236  -7.428  -0.323  0.00  0.00    +0.002 A 
ATOM     17  C   LIG    1        1.872  -7.628  -0.434  0.00  0.00    +0.029 A 
ENDBRANCH   9  12
ENDBRANCH   7   9
ENDBRANCH   4   7
BRANCH   5  18
ATOM     18  C   LIG    1       -1.164  -5.084   2.550  0.00  0.00    +0.339 C 
ATOM     19  O   LIG    1       -1.079  -4.569   3.657  0.00  0.00    -0.245 OA
BRANCH  18  20
ATOM     20  O   LIG    1       -1.296  -6.296   2.448  0.00  0.00    -0.477 OA
ATOM     21  H   LIG    1       -1.361  -6.690   1.601  0.00  0.00    +0.295 HD
ENDBRANCH  18  20
ENDBRANCH   5  18
BRANCH   1  22
ATOM     22  C   LIG    1       -0.746  -0.588   0.443  0.00  0.00    +0.035 C 
BRANCH  22  24
ATOM     23  C   LIG    1        0.906   1.282   0.561  0.00  0.00    +0.004 C 
ATOM     24  C   LIG    1        0.742  -0.234   0.437  0.00  0.00    +0.001 C 
ENDBRANCH  22  24
ENDBRANCH   1  22
TORSDOF 7
