REMARK  Name = ZINC00001341
REMARK                            x       y       z     vdW  Elec       q    Type
REMARK                         _______ _______ _______ _____ _____    ______ ____
ROOT
ATOM      1  C   LIG    1        0.709  -1.876  -1.214  0.00  0.00    +0.019 A 
ATOM      2  C   LIG    1        0.124  -2.580  -0.178  0.00  0.00    +0.022 A 
ATOM      3  C   LIG    1        0.141  -3.962  -0.182  0.00  0.00    +0.005 A 
ATOM      4  C   LIG    1        0.743  -4.644  -1.223  0.00  0.00    +0.045 A 
ATOM      5  C   LIG    1        1.330  -3.939  -2.264  0.00  0.00    +0.119 A 
ATOM      6  C   LIG    1        1.306  -2.552  -2.260  0.00  0.00    +0.067 A 
ENDROOT
BRANCH   1   7
ATOM      7  N   LIG    1        0.690  -0.478  -1.207  0.00  0.00    -0.387 NA
ATOM      8  C   LIG    1        2.068   0.031  -1.217  0.00  0.00    +0.109 C 
ATOM      9  C   LIG    1       -0.021   0.009  -2.397  0.00  0.00    +0.109 C 
BRANCH   7  11
ATOM     10  C   LIG    1       -0.019   1.526   0.010  0.00  0.00    +0.023 C 
ATOM     11  C   LIG    1        0.002  -0.004   0.002  0.00  0.00    +0.084 C 
ENDBRANCH   7  11
ENDBRANCH   1   7
BRANCH   5  12
ATOM     12  O   LIG    1        1.923  -4.607  -3.289  0.00  0.00    -0.507 OA
ATOM     13  H   LIG    1        1.327  -4.808  -4.023  0.00  0.00    +0.292 HD
ENDBRANCH   5  12
TORSDOF 3
