REMARK  Name = ZINC13832891
REMARK                            x       y       z     vdW  Elec       q    Type
REMARK                         _______ _______ _______ _____ _____    ______ ____
ROOT
ATOM      1  C   LIG    1        8.621  -3.203  -0.103  0.00  0.00    +0.188 C 
ATOM      2  C   LIG    1        7.154  -3.552  -0.078  0.00  0.00    +0.008 A 
ATOM      3  C   LIG    1        6.215  -2.511  -0.064  0.00  0.00    +0.035 A 
ATOM      4  C   LIG    1        4.866  -2.793  -0.056  0.00  0.00    +0.071 A 
ATOM      5  N   LIG    1        4.445  -4.093  -0.063  0.00  0.00    -0.302 N 
ATOM      6  C   LIG    1        2.976  -4.111  -0.054  0.00  0.00    +0.162 C 
ATOM      7  C   LIG    1        2.531  -2.671  -0.039  0.00  0.00    +0.000 A 
ATOM      8  C   LIG    1        1.303  -2.085  -0.024  0.00  0.00    +0.021 A 
ATOM      9  C   LIG    1        1.238  -0.679  -0.014  0.00  0.00    +0.042 A 
ATOM     10  C   LIG    1        0.002  -0.004   0.002  0.00  0.00    +0.126 A 
ATOM     11  C   LIG    1       -0.017   1.373   0.010  0.00  0.00    +0.046 A 
ATOM     12  C   LIG    1        1.171   2.099   0.002  0.00  0.00    +0.006 A 
ATOM     13  C   LIG    1        2.380   1.473  -0.012  0.00  0.00    +0.028 A 
ATOM     14  C   LIG    1        2.444   0.067  -0.020  0.00  0.00    +0.075 A 
ATOM     15  N   LIG    1        3.620  -0.563  -0.033  0.00  0.00    -0.245 NA
ATOM     16  C   LIG    1        5.337  -5.102  -0.074  0.00  0.00    +0.259 A 
ATOM     17  O   LIG    1        4.940  -6.256  -0.083  0.00  0.00    -0.267 OA
ATOM     18  C   LIG    1        3.696  -1.885  -0.042  0.00  0.00    +0.093 A 
ATOM     19  C   LIG    1        6.723  -4.841  -0.074  0.00  0.00    +0.061 A 
ATOM     20  C   LIG    1        7.671  -6.011  -0.056  0.00  0.00    +0.273 C 
ATOM     21  O   LIG    1        9.011  -5.590  -0.425  0.00  0.00    -0.457 OA
ATOM     22  C   LIG    1        9.430  -4.450   0.171  0.00  0.00    +0.344 C 
ATOM     23  O   LIG    1       10.403  -4.429   0.887  0.00  0.00    -0.247 OA
ENDROOT
BRANCH   1  25
ATOM     24  C   LIG    1       10.502  -2.418  -1.547  0.00  0.00    +0.007 C 
ATOM     25  C   LIG    1        8.991  -2.645  -1.479  0.00  0.00    +0.048 C 
ENDBRANCH   1  25
BRANCH   1  26
ATOM     26  O   LIG    1        8.898  -2.224   0.900  0.00  0.00    -0.373 OA
ATOM     27  H   LIG    1        9.826  -1.957   0.944  0.00  0.00    +0.211 HD
ENDBRANCH   1  26
BRANCH  10  28
ATOM     28  O   LIG    1       -1.161  -0.705   0.009  0.00  0.00    -0.506 OA
ATOM     29  H   LIG    1       -1.506  -0.903  -0.872  0.00  0.00    +0.292 HD
ENDBRANCH  10  28
TORSDOF 3
