REMARK  Name = ZINC28092924
REMARK                            x       y       z     vdW  Elec       q    Type
REMARK                         _______ _______ _______ _____ _____    ______ ____
ROOT
ATOM      1  C   LIG    1       -4.915  -0.277   0.021  0.00  0.00    +0.045 C 
ATOM      2  C   LIG    1       -4.922   1.230   0.030  0.00  0.00    -0.036 C 
ATOM      3  C   LIG    1       -3.713   1.936   0.029  0.00  0.00    -0.021 C 
ATOM      4  C   LIG    1       -3.728   3.351   0.038  0.00  0.00    +0.012 C 
ATOM      5  C   LIG    1       -2.576   4.060   0.036  0.00  0.00    +0.052 C 
ATOM      6  C   LIG    1       -1.331   3.396   0.027  0.00  0.00    +0.193 C 
ATOM      7  C   LIG    1       -1.298   1.929   0.019  0.00  0.00    +0.106 C 
ATOM      8  O   LIG    1       -0.290   4.036   0.026  0.00  0.00    -0.287 OA
ATOM      9  C   LIG    1       -2.495   1.231   0.015  0.00  0.00    +0.027 C 
ENDROOT
BRANCH   2  10
ATOM     10  C   LIG    1       -6.149   1.931   0.039  0.00  0.00    -0.021 A 
ATOM     11  C   LIG    1       -6.511   2.735  -1.060  0.00  0.00    +0.012 A 
ATOM     12  C   LIG    1       -7.694   3.413  -1.056  0.00  0.00    +0.047 A 
ATOM     13  C   LIG    1       -8.557   3.319   0.032  0.00  0.00    +0.131 A 
ATOM     14  C   LIG    1       -8.215   2.522   1.139  0.00  0.00    +0.101 A 
ATOM     15  C   LIG    1       -7.013   1.823   1.139  0.00  0.00    +0.026 A 
BRANCH  13  16
ATOM     16  O   LIG    1       -9.729   3.997   0.024  0.00  0.00    -0.506 OA
ATOM     17  H   LIG    1      -10.412   3.924   0.883  0.00  0.00    +0.292 HD
ENDBRANCH  13  16
BRANCH  14  18
ATOM     18  C   LIG    1       -9.130   2.423   2.292  0.00  0.00    +0.340 C 
ATOM     19  O   LIG    1      -10.182   3.031   2.286  0.00  0.00    -0.245 OA
BRANCH  18  20
ATOM     20  O   LIG    1       -8.799   1.659   3.350  0.00  0.00    -0.477 OA
ATOM     21  H   LIG    1       -7.988   1.190   3.355  0.00  0.00    +0.295 HD
ENDBRANCH  18  20
ENDBRANCH  14  18
ENDBRANCH   2  10
BRANCH   7  22
ATOM     22  C   LIG    1       -0.014   1.211   0.009  0.00  0.00    +0.341 C 
ATOM     23  O   LIG    1        0.002  -0.004   0.002  0.00  0.00    -0.245 OA
BRANCH  22  24
ATOM     24  O   LIG    1        1.144   1.901   0.001  0.00  0.00    -0.477 OA
ATOM     25  H   LIG    1        1.131   2.838   0.006  0.00  0.00    +0.295 HD
ENDBRANCH  22  24
ENDBRANCH   7  22
TORSDOF 6
