REMARK  Name = ZINC00004333
REMARK                            x       y       z     vdW  Elec       q    Type
REMARK                         _______ _______ _______ _____ _____    ______ ____
ROOT
ATOM      1  C   LIG    1       -0.001  -0.001  -0.037  0.00  0.00    -0.020 A 
ATOM      2  C   LIG    1        0.116   1.213   0.655  0.00  0.00    +0.012 A 
ATOM      3  C   LIG    1        1.296   1.920   0.609  0.00  0.00    +0.050 A 
ATOM      4  C   LIG    1        2.373   1.434  -0.122  0.00  0.00    +0.158 A 
ATOM      5  C   LIG    1        2.266   0.227  -0.814  0.00  0.00    +0.159 A 
ATOM      6  C   LIG    1        1.088  -0.489  -0.775  0.00  0.00    +0.057 A 
ENDROOT
BRANCH   1   8
ATOM      7  C   LIG    1       -1.236  -2.130  -0.102  0.00  0.00    +0.136 C 
ATOM      8  C   LIG    1       -1.254  -0.756   0.009  0.00  0.00    +0.034 C 
BRANCH   7   9
ATOM      9  C   LIG    1       -2.498  -2.876  -0.205  0.00  0.00    +0.350 C 
ATOM     10  O   LIG    1       -3.558  -2.281  -0.192  0.00  0.00    -0.244 OA
BRANCH   9  11
ATOM     11  O   LIG    1       -2.480  -4.219  -0.315  0.00  0.00    -0.461 OA
BRANCH  11  13
ATOM     12  C   LIG    1       -3.544  -6.399  -0.528  0.00  0.00    +0.048 C 
ATOM     13  C   LIG    1       -3.764  -4.890  -0.412  0.00  0.00    +0.229 C 
ENDBRANCH  11  13
ENDBRANCH   9  11
ENDBRANCH   7   9
BRANCH   7  14
ATOM     14  C   LIG    1        0.013  -2.831  -0.118  0.00  0.00    +0.106 C 
ATOM     15  N   LIG    1        1.004  -3.386  -0.130  0.00  0.00    -0.191 NA
ENDBRANCH   7  14
ENDBRANCH   1   8
BRANCH   4  16
ATOM     16  O   LIG    1        3.534   2.137  -0.163  0.00  0.00    -0.503 OA
ATOM     17  H   LIG    1        4.159   1.905   0.538  0.00  0.00    +0.292 HD
ENDBRANCH   4  16
BRANCH   5  18
ATOM     18  O   LIG    1        3.324  -0.243  -1.528  0.00  0.00    -0.503 OA
ATOM     19  H   LIG    1        3.342   0.055  -2.447  0.00  0.00    +0.292 HD
ENDBRANCH   5  18
TORSDOF 7
