REMARK  Name = ZINC13778409
REMARK                            x       y       z     vdW  Elec       q    Type
REMARK                         _______ _______ _______ _____ _____    ______ ____
ROOT
ATOM      1  S   LIG    1        1.375   0.605   5.031  0.00  0.00    +0.059 S 
ATOM      2  O   LIG    1        2.367  -0.253   5.580  0.00  0.00    -0.153 OA
ATOM      3  O   LIG    1        0.355   1.196   5.824  0.00  0.00    -0.153 OA
ENDROOT
BRANCH   1   4
ATOM      4  C   LIG    1        2.233   1.928   4.245  0.00  0.00    +0.105 A 
ATOM      5  C   LIG    1        3.535   1.747   3.815  0.00  0.00    +0.032 A 
ATOM      6  C   LIG    1        4.210   2.783   3.198  0.00  0.00    +0.048 A 
ATOM      7  C   LIG    1        3.580   4.005   3.010  0.00  0.00    +0.129 A 
ATOM      8  C   LIG    1        2.274   4.184   3.443  0.00  0.00    +0.048 A 
ATOM      9  C   LIG    1        1.602   3.143   4.055  0.00  0.00    +0.032 A 
BRANCH   7  10
ATOM     10  O   LIG    1        4.242   5.026   2.405  0.00  0.00    -0.456 OA
BRANCH  10  11
ATOM     11  C   LIG    1        5.517   4.803   1.991  0.00  0.00    +0.128 A 
ATOM     12  C   LIG    1        5.758   4.322   0.712  0.00  0.00    +0.046 A 
ATOM     13  C   LIG    1        7.055   4.096   0.294  0.00  0.00    +0.004 A 
ATOM     14  C   LIG    1        8.112   4.349   1.149  0.00  0.00    +0.000 A 
ATOM     15  C   LIG    1        7.874   4.827   2.424  0.00  0.00    +0.004 A 
ATOM     16  C   LIG    1        6.580   5.061   2.845  0.00  0.00    +0.046 A 
ENDBRANCH  10  11
ENDBRANCH   7  10
ENDBRANCH   1   4
BRANCH   1  17
ATOM     17  N   LIG    1        0.610  -0.257   3.842  0.00  0.00    -0.176 NA
ATOM     18  H   LIG    1       -0.359  -0.289   3.813  0.00  0.00    +0.149 HD
BRANCH  17  19
ATOM     19  C   LIG    1        1.397  -0.972   2.834  0.00  0.00    +0.187 C 
BRANCH  19  21
ATOM     20  C   LIG    1        0.486   0.530   1.057  0.00  0.00    +0.009 C 
ATOM     21  C   LIG    1        0.667  -0.926   1.490  0.00  0.00    +0.012 C 
ATOM     22  C   LIG    1        1.488  -1.673   0.437  0.00  0.00    +0.009 C 
ENDBRANCH  19  21
BRANCH  19  23
ATOM     23  C   LIG    1        1.575  -2.407   3.260  0.00  0.00    +0.324 C 
ATOM     24  O   LIG    1        2.574  -3.022   2.928  0.00  0.00    -0.249 OA
BRANCH  23  25
ATOM     25  O   LIG    1        0.720  -2.952   3.937  0.00  0.00    -0.479 OA
ATOM     26  H   LIG    1       -0.047  -2.479   4.193  0.00  0.00    +0.295 HD
ENDBRANCH  23  25
ENDBRANCH  19  23
ENDBRANCH  17  19
ENDBRANCH   1  17
TORSDOF 8
