REMARK  Name = ZINC20253498
REMARK                            x       y       z     vdW  Elec       q    Type
REMARK                         _______ _______ _______ _____ _____    ______ ____
ROOT
ATOM      1  C   LIG    1       -2.214   2.604   4.932  0.00  0.00    +0.004 A 
ATOM      2  C   LIG    1       -1.604   2.186   6.096  0.00  0.00    +0.015 A 
ATOM      3  C   LIG    1       -0.454   1.396   6.037  0.00  0.00    +0.062 A 
ATOM      4  C   LIG    1        0.073   1.033   4.797  0.00  0.00    +0.060 A 
ATOM      5  C   LIG    1       -0.547   1.458   3.634  0.00  0.00    +0.121 A 
ATOM      6  C   LIG    1       -1.687   2.248   3.704  0.00  0.00    +0.046 A 
ENDROOT
BRANCH   3   7
ATOM      7  C   LIG    1        0.203   0.947   7.282  0.00  0.00    +0.337 C 
ATOM      8  O   LIG    1        1.203   0.260   7.227  0.00  0.00    -0.245 OA
BRANCH   7   9
ATOM      9  O   LIG    1       -0.308   1.300   8.477  0.00  0.00    -0.477 OA
ATOM     10  H   LIG    1       -1.080   1.829   8.520  0.00  0.00    +0.295 HD
ENDBRANCH   7   9
ENDBRANCH   3   7
BRANCH   5  11
ATOM     11  O   LIG    1       -0.038   1.106   2.425  0.00  0.00    -0.490 OA
BRANCH  11  12
ATOM     12  C   LIG    1       -0.729   1.579   1.267  0.00  0.00    +0.250 C 
BRANCH  12  13
ATOM     13  C   LIG    1       -0.013   1.086   0.008  0.00  0.00    +0.163 C 
BRANCH  13  14
ATOM     14  N   LIG    1       -0.721   1.571  -1.179  0.00  0.00    -0.335 N 
ATOM     15  C   LIG    1       -1.734   0.929  -1.839  0.00  0.00    +0.104 A 
ATOM     16  C   LIG    1       -2.096   1.724  -2.864  0.00  0.00    +0.101 A 
ATOM     17  N   LIG    1       -1.319   2.817  -2.836  0.00  0.00    -0.352 N 
ATOM     18  H   LIG    1       -1.446   3.602  -3.596  0.00  0.00    +0.166 HD
ATOM     19  C   LIG    1       -0.493   2.732  -1.829  0.00  0.00    +0.173 A 
ENDBRANCH  13  14
ENDBRANCH  12  13
ENDBRANCH  11  12
ENDBRANCH   5  11
TORSDOF 6
