REMARK  Name = ZINC14959298
REMARK                            x       y       z     vdW  Elec       q    Type
REMARK                         _______ _______ _______ _____ _____    ______ ____
ROOT
ATOM      1  N   LIG    1        1.237  -2.080  -0.020  0.00  0.00    -0.285 N 
ATOM      2  H   LIG    1        2.082  -2.551  -0.099  0.00  0.00    +0.155 HD
ATOM      3  C   LIG    1        0.087  -2.773   0.089  0.00  0.00    +0.222 C 
ATOM      4  O   LIG    1       -0.975  -2.187   0.102  0.00  0.00    -0.275 OA
ENDROOT
BRANCH   1   9
ATOM      5  C   LIG    1        2.221   1.413   0.572  0.00  0.00    +0.002 A 
ATOM      6  C   LIG    1        1.169   2.086  -0.023  0.00  0.00    +0.012 A 
ATOM      7  C   LIG    1        0.140   1.379  -0.617  0.00  0.00    +0.057 A 
ATOM      8  C   LIG    1        0.160  -0.003  -0.617  0.00  0.00    +0.035 A 
ATOM      9  C   LIG    1        1.214  -0.681  -0.021  0.00  0.00    +0.034 A 
ATOM     10  C   LIG    1        2.247   0.033   0.575  0.00  0.00    +0.023 A 
BRANCH   7  11
ATOM     11  C   LIG    1       -1.004   2.115  -1.264  0.00  0.00    +0.417 C 
ATOM     12  F   LIG    1       -1.513   1.352  -2.320  0.00  0.00    -0.166 F 
ATOM     13  F   LIG    1       -0.550   3.345  -1.753  0.00  0.00    -0.166 F 
ATOM     14  F   LIG    1       -2.013   2.334  -0.319  0.00  0.00    -0.166 F 
ENDBRANCH   7  11
ENDBRANCH   1   9
BRANCH   3  15
ATOM     15  C   LIG    1        0.119  -4.276   0.195  0.00  0.00    +0.101 C 
ATOM     16  C   LIG    1        0.886  -4.725   1.460  0.00  0.00    +0.110 C 
ATOM     17  C   LIG    1        0.121  -5.936   1.947  0.00  0.00    +0.217 C 
ATOM     18  N   LIG    1       -1.092  -5.979   1.370  0.00  0.00    -0.298 N 
ATOM     19  O   LIG    1        0.541  -6.750   2.742  0.00  0.00    -0.276 OA
ATOM     20  C   LIG    1       -1.293  -4.842   0.464  0.00  0.00    +0.121 C 
BRANCH  18  21
ATOM     21  C   LIG    1       -2.086  -7.027   1.613  0.00  0.00    +0.076 C 
ATOM     22  C   LIG    1       -2.451  -7.050   3.098  0.00  0.00    +0.022 C 
ATOM     23  C   LIG    1       -3.489  -8.145   3.352  0.00  0.00    +0.002 C 
ATOM     24  C   LIG    1       -2.908  -9.502   2.949  0.00  0.00    +0.000 C 
ATOM     25  C   LIG    1       -2.544  -9.479   1.463  0.00  0.00    +0.002 C 
ATOM     26  C   LIG    1       -1.505  -8.384   1.209  0.00  0.00    +0.022 C 
ENDBRANCH  18  21
ENDBRANCH   3  15
TORSDOF 4
