REMARK  Name = ZINC29333996
REMARK                            x       y       z     vdW  Elec       q    Type
REMARK                         _______ _______ _______ _____ _____    ______ ____
ROOT
ATOM      1  C   LIG    1        2.086   1.543  -1.183  0.00  0.00    -0.046 C 
ATOM      2  C   LIG    1        2.086   0.012  -1.180  0.00  0.00    +0.144 C 
ATOM      3  O   LIG    1        0.736  -0.460  -1.138  0.00  0.00    -0.379 OA
ATOM      4  C   LIG    1        0.002  -0.004   0.002  0.00  0.00    +0.112 C 
ATOM      5  C   LIG    1       -0.019   1.527   0.010  0.00  0.00    -0.050 C 
ATOM      6  N   LIG    1        1.362   2.030   0.000  0.00  0.00    +0.384 N 
ATOM      7  H   LIG    1        1.339   3.130  -0.012  0.00  0.00    -0.085 HD
ATOM      8  H   LIG    1        1.873   1.685   0.911  0.00  0.00    -0.085 HD
ENDROOT
BRANCH   1  10
ATOM      9  C   LIG    1        3.532   3.578  -1.276  0.00  0.00    +0.002 C 
ATOM     10  C   LIG    1        3.528   2.053  -1.147  0.00  0.00    -0.017 C 
ENDBRANCH   1  10
BRANCH   4  11
ATOM     11  C   LIG    1       -1.431  -0.534  -0.068  0.00  0.00    +0.150 C 
BRANCH  11  12
ATOM     12  C   LIG    1       -1.418  -2.037   0.047  0.00  0.00    +0.307 C 
ATOM     13  O   LIG    1       -0.369  -2.623   0.173  0.00  0.00    -0.251 OA
BRANCH  12  14
ATOM     14  O   LIG    1       -2.571  -2.723   0.011  0.00  0.00    -0.481 OA
ATOM     15  H   LIG    1       -3.384  -2.268  -0.087  0.00  0.00    +0.295 HD
ENDBRANCH  12  14
ENDBRANCH  11  12
ENDBRANCH   4  11
TORSDOF 4
