REMARK  Name = ZINC19795724
REMARK                            x       y       z     vdW  Elec       q    Type
REMARK                         _______ _______ _______ _____ _____    ______ ____
ROOT
ATOM      1  C   LIG    1        1.344   5.819  -0.239  0.00  0.00    +0.015 A 
ATOM      2  C   LIG    1        0.206   5.115  -0.582  0.00  0.00    +0.005 A 
ATOM      3  C   LIG    1        0.190   3.731  -0.508  0.00  0.00    -0.042 A 
ATOM      4  C   LIG    1        1.317   3.052  -0.094  0.00  0.00    -0.029 A 
ATOM      5  C   LIG    1        1.350   1.549  -0.003  0.00  0.00    +0.116 C 
ATOM      6  N   LIG    1       -0.012   1.005   0.008  0.00  0.00    -0.312 NA
ATOM      7  H   LIG    1        0.031  -0.092  -0.061  0.00  0.00    +0.122 HD
ATOM      8  C   LIG    1       -0.778   1.528  -1.135  0.00  0.00    +0.086 C 
ATOM      9  C   LIG    1        2.458   3.760   0.251  0.00  0.00    +0.020 A 
ATOM     10  C   LIG    1       -1.077   3.006  -0.882  0.00  0.00    +0.050 C 
ATOM     11  C   LIG    1        2.473   5.139   0.179  0.00  0.00    +0.018 A 
ATOM     12 BR   LIG    1        4.035   6.096   0.652  0.00  0.00    -0.050 Br
ENDROOT
TORSDOF 0
