REMARK  Name = ZINC13760709
REMARK                            x       y       z     vdW  Elec       q    Type
REMARK                         _______ _______ _______ _____ _____    ______ ____
ROOT
ATOM      1  C   LIG    1        2.120  -2.184  -4.454  0.00  0.00    -0.028 A 
ATOM      2  C   LIG    1        3.145  -1.512  -3.813  0.00  0.00    +0.006 A 
ATOM      3  C   LIG    1        4.455  -1.902  -4.002  0.00  0.00    +0.009 A 
ATOM      4  C   LIG    1        4.745  -2.977  -4.842  0.00  0.00    -0.017 A 
ATOM      5  C   LIG    1        3.708  -3.651  -5.486  0.00  0.00    +0.009 A 
ATOM      6  C   LIG    1        2.401  -3.254  -5.284  0.00  0.00    +0.006 A 
ENDROOT
BRANCH   4   7
ATOM      7  C   LIG    1        6.150  -3.400  -5.050  0.00  0.00    -0.007 A 
ATOM      8  C   LIG    1        7.122  -2.461  -5.383  0.00  0.00    +0.009 A 
ATOM      9  C   LIG    1        8.430  -2.860  -5.576  0.00  0.00    +0.001 A 
ATOM     10  C   LIG    1        8.783  -4.193  -5.442  0.00  0.00    +0.001 A 
ATOM     11  C   LIG    1        7.832  -5.137  -5.113  0.00  0.00    +0.012 A 
ATOM     12  C   LIG    1        6.509  -4.751  -4.908  0.00  0.00    +0.028 A 
BRANCH  12  13
ATOM     13  C   LIG    1        5.487  -5.759  -4.549  0.00  0.00    +0.183 A 
ATOM     14  N   LIG    1        5.714  -7.109  -4.375  0.00  0.00    -0.271 N 
ATOM     15  H   LIG    1        6.569  -7.557  -4.468  0.00  0.00    +0.174 HD
ATOM     16  C   LIG    1        4.547  -7.702  -4.054  0.00  0.00    +0.440 A 
ATOM     17  O   LIG    1        3.598  -6.751  -4.025  0.00  0.00    -0.295 OA
ATOM     18  O   LIG    1        4.382  -8.886  -3.831  0.00  0.00    -0.221 OA
ATOM     19  N   LIG    1        4.225  -5.519  -4.339  0.00  0.00    -0.054 NA
ENDBRANCH  12  13
ENDBRANCH   4   7
BRANCH   1  20
ATOM     20  C   LIG    1        0.692  -1.753  -4.243  0.00  0.00    +0.162 C 
BRANCH  20  29
ATOM     21  C   LIG    1        0.397  -1.806  -1.735  0.00  0.00    +0.299 A 
ATOM     22  N   LIG    1        0.316  -0.947  -0.752  0.00  0.00    -0.195 NA
ATOM     23  C   LIG    1        0.413   0.317  -1.244  0.00  0.00    +0.094 A 
ATOM     24  C   LIG    1        0.389   1.581  -0.652  0.00  0.00    +0.030 A 
ATOM     25  C   LIG    1        0.514   2.713  -1.430  0.00  0.00    +0.003 A 
ATOM     26  C   LIG    1        0.663   2.616  -2.800  0.00  0.00    +0.017 A 
ATOM     27  C   LIG    1        0.690   1.363  -3.417  0.00  0.00    +0.084 A 
ATOM     28  C   LIG    1        0.565   0.205  -2.635  0.00  0.00    +0.086 A 
ATOM     29  N   LIG    1        0.557  -1.143  -2.918  0.00  0.00    -0.289 N 
BRANCH  27  30
ATOM     30  C   LIG    1        0.848   1.258  -4.877  0.00  0.00    +0.339 C 
ATOM     31  O   LIG    1        0.354   2.106  -5.608  0.00  0.00    -0.245 OA
BRANCH  30  32
ATOM     32  O   LIG    1        1.474   0.324  -5.359  0.00  0.00    -0.477 OA
ATOM     33  H   LIG    1        1.853  -0.325  -4.799  0.00  0.00    +0.295 HD
ENDBRANCH  30  32
ENDBRANCH  27  30
BRANCH  21  34
ATOM     34  O   LIG    1        0.336  -3.150  -1.600  0.00  0.00    -0.464 OA
BRANCH  34  36
ATOM     35  C   LIG    1        0.119  -5.191  -0.323  0.00  0.00    +0.048 C 
ATOM     36  C   LIG    1        0.164  -3.662  -0.277  0.00  0.00    +0.229 C 
ENDBRANCH  34  36
ENDBRANCH  21  34
ENDBRANCH  20  29
ENDBRANCH   1  20
TORSDOF 8
