REMARK  Name = ZINC14945722
REMARK                            x       y       z     vdW  Elec       q    Type
REMARK                         _______ _______ _______ _____ _____    ______ ____
ROOT
ATOM      1  C   LIG    1       -2.435   3.869   0.044  0.00  0.00    +0.131 A 
ATOM      2  C   LIG    1       -1.226   3.131   0.030  0.00  0.00    +0.040 A 
ATOM      3  C   LIG    1       -1.208   1.732   0.017  0.00  0.00    +0.013 A 
ATOM      4  C   LIG    1       -0.013   1.076   0.008  0.00  0.00    +0.001 A 
ATOM      5  C   LIG    1        1.189   1.779   0.000  0.00  0.00    +0.002 A 
ATOM      6  C   LIG    1        1.206   3.142   0.007  0.00  0.00    +0.028 A 
ATOM      7  C   LIG    1       -0.005   3.848   0.022  0.00  0.00    +0.077 A 
ATOM      8  N   LIG    1       -0.045   5.189   0.029  0.00  0.00    -0.224 NA
ATOM      9  C   LIG    1       -1.194   5.820   0.043  0.00  0.00    +0.236 A 
ATOM     10  N   LIG    1       -2.360   5.193   0.050  0.00  0.00    -0.209 NA
ENDROOT
BRANCH   9  11
ATOM     11  C   LIG    1       -1.188   7.327   0.051  0.00  0.00    +0.452 C 
ATOM     12  F   LIG    1       -1.516   7.788   1.330  0.00  0.00    -0.163 F 
ATOM     13  F   LIG    1       -2.127   7.803  -0.871  0.00  0.00    -0.163 F 
ATOM     14  F   LIG    1        0.085   7.790  -0.300  0.00  0.00    -0.163 F 
ENDBRANCH   9  11
BRANCH   1  15
ATOM     15  N   LIG    1       -3.655   3.229   0.052  0.00  0.00    -0.322 N 
ATOM     16  H   LIG    1       -3.694   2.260   0.047  0.00  0.00    +0.148 HD
BRANCH  15  18
ATOM     17  C   LIG    1       -5.245   4.383   1.508  0.00  0.00    +0.033 C 
ATOM     18  C   LIG    1       -4.894   4.012   0.066  0.00  0.00    +0.099 C 
BRANCH  18  19
ATOM     19  C   LIG    1       -6.011   3.195  -0.528  0.00  0.00    -0.028 A 
ATOM     20  C   LIG    1       -6.107   1.845  -0.246  0.00  0.00    +0.005 A 
ATOM     21  C   LIG    1       -7.135   1.097  -0.788  0.00  0.00    +0.000 A 
ATOM     22  C   LIG    1       -8.062   1.696  -1.620  0.00  0.00    +0.000 A 
ATOM     23  C   LIG    1       -7.963   3.045  -1.907  0.00  0.00    +0.000 A 
ATOM     24  C   LIG    1       -6.938   3.794  -1.361  0.00  0.00    +0.005 A 
ENDBRANCH  18  19
ENDBRANCH  15  18
ENDBRANCH   1  15
TORSDOF 4
