REMARK  Name = ZINC38158973
REMARK                            x       y       z     vdW  Elec       q    Type
REMARK                         _______ _______ _______ _____ _____    ______ ____
ROOT
ATOM      1  C   LIG    1       -4.644  -0.194   1.337  0.00  0.00    +0.143 C 
ENDROOT
BRANCH   1   2
ATOM      2  O   LIG    1       -3.276  -0.122   1.743  0.00  0.00    -0.389 OA
ATOM      3  H   LIG    1       -2.836  -0.981   1.796  0.00  0.00    +0.210 HD
ENDBRANCH   1   2
BRANCH   1   4
ATOM      4  C   LIG    1       -5.430  -1.042   2.338  0.00  0.00    +0.102 C 
BRANCH   4   5
ATOM      5  N   LIG    1       -5.448  -0.371   3.640  0.00  0.00    -0.308 N 
ATOM      6  H   LIG    1       -4.614  -0.119   4.067  0.00  0.00    +0.149 HD
ATOM      7  C   LIG    1       -6.622  -0.103   4.244  0.00  0.00    +0.234 C 
ATOM      8  O   LIG    1       -7.660  -0.490   3.751  0.00  0.00    -0.274 OA
BRANCH   7   9
ATOM      9  C   LIG    1       -6.646   0.678   5.532  0.00  0.00    +0.161 C 
BRANCH   9  10
ATOM     10  N   LIG    1       -8.031   0.835   5.983  0.00  0.00    -0.302 N 
ATOM     11  H   LIG    1       -8.757   0.800   5.341  0.00  0.00    +0.150 HD
ATOM     12  C   LIG    1       -8.297   1.028   7.290  0.00  0.00    +0.234 C 
ATOM     13  O   LIG    1       -7.386   1.159   8.081  0.00  0.00    -0.274 OA
BRANCH  12  14
ATOM     14  C   LIG    1       -9.724   1.083   7.769  0.00  0.00    +0.161 C 
BRANCH  14  15
ATOM     15  N   LIG    1       -9.805   1.917   8.971  0.00  0.00    -0.304 N 
ATOM     16  H   LIG    1       -9.025   2.031   9.535  0.00  0.00    +0.149 HD
ATOM     17  C   LIG    1      -10.964   2.525   9.292  0.00  0.00    +0.211 C 
ATOM     18  C   LIG    1      -11.047   3.383  10.529  0.00  0.00    +0.109 C 
ATOM     19  O   LIG    1      -11.940   2.382   8.587  0.00  0.00    -0.276 OA
ENDBRANCH  14  15
BRANCH  14  20
ATOM     20  C   LIG    1      -10.206  -0.332   8.097  0.00  0.00    +0.012 C 
ATOM     21  C   LIG    1      -10.025  -1.229   6.871  0.00  0.00    +0.009 C 
ATOM     22  C   LIG    1      -11.686  -0.290   8.484  0.00  0.00    +0.009 C 
ENDBRANCH  14  20
ENDBRANCH  12  14
ENDBRANCH   9  10
BRANCH   9  23
ATOM     23  C   LIG    1       -6.025   2.058   5.304  0.00  0.00    +0.012 C 
ATOM     24  C   LIG    1       -5.935   2.804   6.637  0.00  0.00    +0.009 C 
ATOM     25  C   LIG    1       -6.896   2.855   4.331  0.00  0.00    +0.009 C 
ENDBRANCH   9  23
ENDBRANCH   7   9
ENDBRANCH   4   5
BRANCH   4  26
ATOM     26  C   LIG    1       -4.763  -2.412   2.480  0.00  0.00    +0.028 C 
BRANCH  26  27
ATOM     27  C   LIG    1       -5.615  -3.302   3.387  0.00  0.00    -0.015 C 
ATOM     28  C   LIG    1       -5.543  -2.784   4.824  0.00  0.00    +0.007 C 
ATOM     29  C   LIG    1       -5.086  -4.737   3.335  0.00  0.00    +0.007 C 
ENDBRANCH  26  27
ENDBRANCH   4  26
ENDBRANCH   1   4
BRANCH   1  30
ATOM     30  C   LIG    1       -4.731  -0.832  -0.051  0.00  0.00    +0.129 C 
BRANCH  30  33
ATOM     31  N   LIG    1       -4.015  -0.294  -2.357  0.00  0.00    -0.304 N 
ATOM     32  H   LIG    1       -4.413  -1.132  -2.643  0.00  0.00    +0.149 HD
ATOM     33  C   LIG    1       -4.061   0.067  -1.060  0.00  0.00    +0.216 C 
ATOM     34  O   LIG    1       -3.564   1.114  -0.703  0.00  0.00    -0.276 OA
BRANCH  31  36
ATOM     35  C   LIG    1       -4.360   1.637  -3.819  0.00  0.00    +0.038 C 
ATOM     36  C   LIG    1       -3.365   0.579  -3.338  0.00  0.00    +0.156 C 
BRANCH  36  37
ATOM     37  C   LIG    1       -2.899  -0.243  -4.512  0.00  0.00    +0.233 C 
ATOM     38  N   LIG    1       -2.268   0.352  -5.543  0.00  0.00    -0.308 N 
ATOM     39  H   LIG    1       -2.115   1.310  -5.530  0.00  0.00    +0.149 HD
ATOM     40  O   LIG    1       -3.092  -1.440  -4.528  0.00  0.00    -0.274 OA
BRANCH  38  41
ATOM     41  C   LIG    1       -1.816  -0.447  -6.685  0.00  0.00    +0.102 C 
BRANCH  41  42
ATOM     42  C   LIG    1       -0.649   0.263  -7.374  0.00  0.00    +0.145 C 
BRANCH  42  43
ATOM     43  O   LIG    1       -1.077   1.548  -7.832  0.00  0.00    -0.389 OA
ATOM     44  H   LIG    1       -1.390   2.132  -7.128  0.00  0.00    +0.210 HD
ENDBRANCH  42  43
BRANCH  42  45
ATOM     45  C   LIG    1        0.503   0.433  -6.381  0.00  0.00    +0.153 C 
BRANCH  45  46
ATOM     46  C   LIG    1        1.695   1.021  -7.091  0.00  0.00    +0.307 C 
ATOM     47  O   LIG    1        1.630   1.280  -8.281  0.00  0.00    -0.251 OA
BRANCH  46  48
ATOM     48  O   LIG    1        2.725   1.237  -6.476  0.00  0.00    -0.481 OA
ATOM     49  H   LIG    1        2.776   1.038  -5.561  0.00  0.00    +0.295 HD
ENDBRANCH  46  48
ENDBRANCH  45  46
ENDBRANCH  42  45
ENDBRANCH  41  42
BRANCH  41  50
ATOM     50  C   LIG    1       -2.967  -0.617  -7.677  0.00  0.00    +0.028 C 
BRANCH  50  51
ATOM     51  C   LIG    1       -4.085  -1.436  -7.027  0.00  0.00    -0.015 C 
ATOM     52  C   LIG    1       -3.580  -2.853  -6.746  0.00  0.00    +0.007 C 
ATOM     53  C   LIG    1       -5.286  -1.500  -7.973  0.00  0.00    +0.007 C 
ENDBRANCH  50  51
ENDBRANCH  41  50
ENDBRANCH  38  41
ENDBRANCH  36  37
ENDBRANCH  31  36
ENDBRANCH  30  33
ENDBRANCH   1  30
TORSDOF 23
