REMARK  Name = ZINC00027317
REMARK                            x       y       z     vdW  Elec       q    Type
REMARK                         _______ _______ _______ _____ _____    ______ ____
ROOT
ATOM      1  C   LIG    1        3.047   3.449  -0.004  0.00  0.00    +0.030 A 
ATOM      2  C   LIG    1        3.427   4.775  -0.005  0.00  0.00    +0.111 A 
ATOM      3  N   LIG    1        2.524   5.738   0.009  0.00  0.00    -0.263 NA
ATOM      4  C   LIG    1        1.230   5.482   0.019  0.00  0.00    +0.111 A 
ATOM      5  C   LIG    1        0.765   4.183   0.017  0.00  0.00    +0.030 A 
ATOM      6  C   LIG    1        1.686   3.133   0.002  0.00  0.00    +0.007 A 
ENDROOT
BRANCH   6   7
ATOM      7  C   LIG    1        1.232   1.720  -0.001  0.00  0.00    +0.112 A 
ATOM      8  C   LIG    1        2.038   0.567  -0.014  0.00  0.00    +0.164 A 
ATOM      9  N   LIG    1        1.208  -0.449  -0.012  0.00  0.00    -0.163 NA
ATOM     10  N   LIG    1        0.002  -0.004   0.002  0.00  0.00    -0.196 N 
ATOM     11  H   LIG    1       -0.815  -0.581   0.007  0.00  0.00    +0.213 HD
ATOM     12  N   LIG    1       -0.015   1.282   0.009  0.00  0.00    -0.155 NA
ENDBRANCH   6   7
TORSDOF 1
