REMARK  Name = ZINC13823768
REMARK                            x       y       z     vdW  Elec       q    Type
REMARK                         _______ _______ _______ _____ _____    ______ ____
ROOT
ATOM      1  C   LIG    1        0.294  -0.031   0.017  0.00  0.00    +0.019 C 
ENDROOT
BRANCH   1   7
ATOM      2  C   LIG    1        0.173  -1.194  -2.288  0.00  0.00    +0.012 A 
ATOM      3  C   LIG    1        0.730  -1.297  -3.549  0.00  0.00    +0.023 A 
ATOM      4  C   LIG    1        1.800  -0.524  -3.861  0.00  0.00    +0.055 A 
ATOM      5 BR   LIG    1        2.774  -0.435  -5.479  0.00  0.00    -0.043 Br
ATOM      6  S   LIG    1        2.046   0.392  -2.349  0.00  0.00    -0.086 S 
ATOM      7  C   LIG    1        0.714  -0.324  -1.401  0.00  0.00    -0.007 A 
ENDBRANCH   1   7
BRANCH   1   8
ATOM      8  C   LIG    1        1.452  -0.345   0.967  0.00  0.00    -0.077 C 
BRANCH   8   9
ATOM      9  N   LIG    1        1.732  -1.791   0.918  0.00  0.00    +0.379 N 
ATOM     10  H   LIG    1        1.933  -2.064  -0.052  0.00  0.00    -0.090 HD
ATOM     11  H   LIG    1        0.923  -2.315   1.249  0.00  0.00    -0.090 HD
ATOM     12  H   LIG    1        2.539  -2.011   1.499  0.00  0.00    -0.090 HD
ENDBRANCH   8   9
ENDBRANCH   1   8
BRANCH   1  13
ATOM     13  C   LIG    1       -0.082   1.446   0.143  0.00  0.00    +0.127 C 
BRANCH  13  14
ATOM     14  C   LIG    1       -0.653   1.704   1.514  0.00  0.00    +0.305 C 
ATOM     15  O   LIG    1       -0.853   0.782   2.268  0.00  0.00    -0.251 OA
BRANCH  14  16
ATOM     16  O   LIG    1       -0.938   2.959   1.897  0.00  0.00    -0.481 OA
ATOM     17  H   LIG    1       -0.783   3.674   1.312  0.00  0.00    +0.295 HD
ENDBRANCH  14  16
ENDBRANCH  13  14
ENDBRANCH   1  13
TORSDOF 6
