REMARK  Name = ZINC00001984
REMARK                            x       y       z     vdW  Elec       q    Type
REMARK                         _______ _______ _______ _____ _____    ______ ____
ROOT
ATOM      1  C   LIG    1        0.663   2.070  -0.661  0.00  0.00    +0.122 A 
ATOM      2  C   LIG    1       -0.416   1.209  -0.491  0.00  0.00    +0.046 A 
ATOM      3  C   LIG    1       -0.207  -0.148  -0.393  0.00  0.00    +0.015 A 
ATOM      4  C   LIG    1        1.091  -0.661  -0.465  0.00  0.00    +0.022 A 
ATOM      5  C   LIG    1        2.174   0.208  -0.635  0.00  0.00    +0.015 A 
ATOM      6  C   LIG    1        1.956   1.564  -0.732  0.00  0.00    +0.046 A 
ENDROOT
BRANCH   4   7
ATOM      7  C   LIG    1        1.320  -2.114  -0.360  0.00  0.00    +0.193 C 
ATOM      8  O   LIG    1        2.190  -2.643  -1.024  0.00  0.00    -0.287 OA
BRANCH   7   9
ATOM      9  C   LIG    1        0.490  -2.928   0.553  0.00  0.00    +0.022 A 
ATOM     10  C   LIG    1       -0.392  -2.307   1.440  0.00  0.00    +0.013 A 
ATOM     11  C   LIG    1       -1.167  -3.073   2.285  0.00  0.00    +0.021 A 
ATOM     12  C   LIG    1       -1.064  -4.454   2.264  0.00  0.00    +0.041 A 
ATOM     13 CL   LIG    1       -2.038  -5.410   3.336  0.00  0.00    -0.084 Cl
ATOM     14  C   LIG    1       -0.186  -5.075   1.391  0.00  0.00    +0.021 A 
ATOM     15  C   LIG    1        0.590  -4.322   0.536  0.00  0.00    +0.013 A 
ENDBRANCH   7   9
ENDBRANCH   4   7
BRANCH   1  16
ATOM     16  O   LIG    1        0.453   3.407  -0.757  0.00  0.00    -0.475 OA
BRANCH  16  18
ATOM     17  C   LIG    1        1.178   5.709  -0.874  0.00  0.00    +0.067 C 
ATOM     18  C   LIG    1        1.611   4.244  -0.795  0.00  0.00    +0.200 C 
ATOM     19  C   LIG    1        2.440   4.025   0.472  0.00  0.00    +0.067 C 
BRANCH  18  20
ATOM     20  C   LIG    1        2.441   3.899  -2.005  0.00  0.00    +0.348 C 
ATOM     21  O   LIG    1        2.078   3.026  -2.757  0.00  0.00    -0.247 OA
BRANCH  20  22
ATOM     22  O   LIG    1        3.583   4.562  -2.246  0.00  0.00    -0.478 OA
ATOM     23  H   LIG    1        3.864   5.239  -1.663  0.00  0.00    +0.295 HD
ENDBRANCH  20  22
ENDBRANCH  18  20
ENDBRANCH  16  18
ENDBRANCH   1  16
TORSDOF 6
