REMARK  Name = ZINC19735374
REMARK                            x       y       z     vdW  Elec       q    Type
REMARK                         _______ _______ _______ _____ _____    ______ ____
ROOT
ATOM      1  CA  LIG    1       -1.774   4.452  -2.634  0.00  0.00    +0.036 C 
ENDROOT
BRANCH   1   2
ATOM      2  N   LIG    1       -0.965   4.186  -3.830  0.00  0.00    +0.387 N 
ATOM      3  H1  LIG    1        0.001   4.705  -3.742  0.00  0.00    -0.089 HD
ATOM      4  H2  LIG    1       -0.792   3.104  -3.923  0.00  0.00    -0.089 HD
ATOM      5  H3  LIG    1       -1.497   4.551  -4.721  0.00  0.00    -0.089 HD
ENDBRANCH   1   2
BRANCH   1   6
ATOM      6  C   LIG    1       -2.010   5.935  -2.506  0.00  0.00    +0.290 C 
ATOM      7  O   LIG    1       -1.286   6.714  -3.080  0.00  0.00    -0.253 OA
BRANCH   6   8
ATOM      8  OXT LIG    1       -3.025   6.391  -1.755  0.00  0.00    -0.482 OA
ATOM      9  HXT LIG    1       -3.587   5.787  -1.310  0.00  0.00    +0.295 HD
ENDBRANCH   6   8
ENDBRANCH   1   6
BRANCH   1  10
ATOM     10  C   LIG    1       -1.034   3.946  -1.394  0.00  0.00    +0.004 C 
BRANCH  10  11
ATOM     11  C   LIG    1       -0.904   2.423  -1.465  0.00  0.00    +0.096 C 
BRANCH  11  13
ATOM     12  C   LIG    1        0.002  -0.004   0.002  0.00  0.00    +0.111 C 
ATOM     13  P   LIG    1       -0.023   1.819   0.012  0.00  0.00    +0.199 P 
ATOM     14  O   LIG    1       -0.715   2.296   1.230  0.00  0.00    -0.291 OA
BRANCH  13  15
ATOM     15  O   LIG    1        1.488   2.376   0.001  0.00  0.00    -0.344 OA
ATOM     16  H   LIG    1        1.957   2.055   0.786  0.00  0.00    +0.218 HD
ENDBRANCH  13  15
ENDBRANCH  11  13
ENDBRANCH  10  11
ENDBRANCH   1  10
TORSDOF 7
