REMARK  Name = ZINC29052255
REMARK                            x       y       z     vdW  Elec       q    Type
REMARK                         _______ _______ _______ _____ _____    ______ ____
ROOT
ATOM      1  C   LIG    1       -5.326   5.808   0.044  0.00  0.00    -0.017 C 
ATOM      2  C   LIG    1       -4.743   5.165   1.306  0.00  0.00    +0.028 C 
ATOM      3  C   LIG    1       -3.216   5.236   1.249  0.00  0.00    +0.106 C 
ATOM      4  N   LIG    1       -2.735   4.532   0.053  0.00  0.00    -0.329 N 
ATOM      5  C   LIG    1       -3.244   5.161  -1.173  0.00  0.00    +0.106 C 
ATOM      6  C   LIG    1       -4.772   5.087  -1.189  0.00  0.00    +0.028 C 
ENDROOT
BRANCH   4   7
ATOM      7  C   LIG    1       -1.347   4.465   0.039  0.00  0.00    +0.042 A 
ATOM      8  C   LIG    1       -0.572   5.620   0.038  0.00  0.00    +0.043 A 
ATOM      9  C   LIG    1        0.807   5.511   0.024  0.00  0.00    +0.115 A 
ATOM     10  N   LIG    1        1.407   4.338   0.012  0.00  0.00    -0.237 NA
ATOM     11  C   LIG    1        0.723   3.200   0.012  0.00  0.00    +0.140 A 
ATOM     12  N   LIG    1        1.098   1.879   0.002  0.00  0.00    -0.346 N 
ATOM     13  H   LIG    1        2.164   1.610  -0.010  0.00  0.00    +0.167 HD
ATOM     14  C   LIG    1       -0.013   1.076   0.008  0.00  0.00    +0.085 A 
ATOM     15  C   LIG    1       -1.121   1.832   0.017  0.00  0.00    +0.031 A 
ATOM     16  C   LIG    1       -0.682   3.228   0.026  0.00  0.00    +0.040 A 
ENDBRANCH   4   7
BRANCH   1  23
ATOM     17  C   LIG    1       -7.456   5.062   1.126  0.00  0.00    +0.005 A 
ATOM     18  C   LIG    1       -8.834   4.957   1.150  0.00  0.00    +0.020 A 
ATOM     19  C   LIG    1       -9.584   5.470   0.106  0.00  0.00    +0.041 A 
ATOM     20 CL   LIG    1      -11.315   5.333   0.132  0.00  0.00    -0.084 Cl
ATOM     21  C   LIG    1       -8.955   6.091  -0.957  0.00  0.00    +0.020 A 
ATOM     22  C   LIG    1       -7.577   6.200  -0.977  0.00  0.00    +0.005 A 
ATOM     23  C   LIG    1       -6.828   5.688   0.066  0.00  0.00    -0.043 A 
ENDBRANCH   1  23
BRANCH   1  24
ATOM     24  C   LIG    1       -4.931   7.285  -0.007  0.00  0.00    -0.075 C 
BRANCH  24  25
ATOM     25  N   LIG    1       -5.491   7.900  -1.217  0.00  0.00    +0.379 N 
ATOM     26  H   LIG    1       -5.098   7.385  -2.106  0.00  0.00    -0.090 HD
ATOM     27  H   LIG    1       -6.587   7.814  -1.199  0.00  0.00    -0.090 HD
ATOM     28  H   LIG    1       -5.207   8.962  -1.254  0.00  0.00    -0.090 HD
ENDBRANCH  24  25
ENDBRANCH   1  24
TORSDOF 4
