REMARK  Name = ZINC71295290
REMARK                            x       y       z     vdW  Elec       q    Type
REMARK                         _______ _______ _______ _____ _____    ______ ____
ROOT
ATOM      1  N   LIG    1        3.178  -3.981  -6.200  0.00  0.00    -0.311 N 
ATOM      2  C   LIG    1        2.985  -3.020  -7.295  0.00  0.00    +0.125 C 
ATOM      3  C   LIG    1        4.343  -2.400  -7.648  0.00  0.00    +0.128 C 
ATOM      4  N   LIG    1        5.322  -3.483  -7.820  0.00  0.00    -0.282 N 
ATOM      5  C   LIG    1        6.030  -3.592  -8.962  0.00  0.00    +0.307 C 
ATOM      6  N   LIG    1        7.001  -4.521  -9.067  0.00  0.00    -0.269 N 
ATOM      7  H   LIG    1        7.159  -5.141  -8.338  0.00  0.00    +0.156 HD
ATOM      8  O   LIG    1        5.793  -2.852  -9.898  0.00  0.00    -0.252 OA
ATOM      9  C   LIG    1        5.515  -4.444  -6.726  0.00  0.00    +0.128 C 
ATOM     10  C   LIG    1        4.161  -5.060  -6.370  0.00  0.00    +0.125 C 
ENDROOT
BRANCH   6  11
ATOM     11  C   LIG    1        7.781  -4.590 -10.227  0.00  0.00    +0.038 A 
ATOM     12  C   LIG    1        8.120  -3.427 -10.908  0.00  0.00    +0.026 A 
ATOM     13  C   LIG    1        8.890  -3.496 -12.052  0.00  0.00    +0.043 A 
ATOM     14  C   LIG    1        9.326  -4.723 -12.522  0.00  0.00    +0.159 A 
ATOM     15  F   LIG    1       10.079  -4.788 -13.642  0.00  0.00    -0.202 F 
ATOM     16  C   LIG    1        8.989  -5.886 -11.845  0.00  0.00    +0.160 A 
ATOM     17  F   LIG    1        9.415  -7.082 -12.305  0.00  0.00    -0.202 F 
ATOM     18  C   LIG    1        8.222  -5.819 -10.696  0.00  0.00    +0.064 A 
ENDBRANCH   6  11
BRANCH   1  22
ATOM     19  C   LIG    1        1.039  -3.625  -2.700  0.00  0.00    +0.090 A 
ATOM     20  C   LIG    1        0.544  -4.485  -3.688  0.00  0.00    +0.039 A 
ATOM     21  C   LIG    1        1.265  -4.609  -4.875  0.00  0.00    +0.092 A 
ATOM     22  C   LIG    1        2.453  -3.870  -5.032  0.00  0.00    +0.140 A 
ATOM     23  N   LIG    1        2.883  -3.068  -4.068  0.00  0.00    -0.226 NA
ATOM     24  C   LIG    1        2.224  -2.923  -2.938  0.00  0.00    +0.160 A 
BRANCH  24  25
ATOM     25  C   LIG    1        2.760  -1.991  -1.882  0.00  0.00    +0.435 C 
ATOM     26  F   LIG    1        1.714  -1.213  -1.373  0.00  0.00    -0.164 F 
ATOM     27  F   LIG    1        3.730  -1.156  -2.445  0.00  0.00    -0.164 F 
ATOM     28  F   LIG    1        3.331  -2.738  -0.847  0.00  0.00    -0.164 F 
ENDBRANCH  24  25
BRANCH  19  29
ATOM     29  C   LIG    1        0.315  -3.457  -1.426  0.00  0.00    +0.341 C 
ATOM     30  O   LIG    1        0.932  -3.380  -0.383  0.00  0.00    -0.245 OA
BRANCH  29  31
ATOM     31  O   LIG    1       -1.031  -3.389  -1.420  0.00  0.00    -0.461 OA
BRANCH  31  33
ATOM     32  C   LIG    1       -3.183  -3.171  -0.343  0.00  0.00    +0.048 C 
ATOM     33  C   LIG    1       -1.666  -3.226  -0.151  0.00  0.00    +0.229 C 
ENDBRANCH  31  33
ENDBRANCH  29  31
ENDBRANCH  19  29
BRANCH  21  34
ATOM     34  C   LIG    1        0.804  -5.475  -5.919  0.00  0.00    +0.103 C 
ATOM     35  N   LIG    1        0.439  -6.162  -6.746  0.00  0.00    -0.191 NA
ENDBRANCH  21  34
ENDBRANCH   1  22
TORSDOF 7
