REMARK  Name = ZINC14946470
REMARK                            x       y       z     vdW  Elec       q    Type
REMARK                         _______ _______ _______ _____ _____    ______ ____
ROOT
ATOM      1  C   LIG    1       -3.814   7.059   0.585  0.00  0.00    +0.000 C 
ATOM      2  C   LIG    1       -3.787   7.007  -0.806  0.00  0.00    +0.002 C 
ATOM      3  C   LIG    1       -3.211   5.960  -1.458  0.00  0.00    +0.019 C 
ATOM      4  C   LIG    1       -2.633   4.912  -0.722  0.00  0.00    +0.058 C 
ATOM      5  N   LIG    1       -2.061   3.869  -1.418  0.00  0.00    -0.310 NA
ATOM      6  H   LIG    1       -2.050   3.842  -2.445  0.00  0.00    +0.122 HD
ATOM      7  C   LIG    1       -1.512   2.878  -0.666  0.00  0.00    +0.061 C 
ATOM      8  C   LIG    1       -0.825   1.629  -1.186  0.00  0.00    +0.021 C 
ATOM      9  C   LIG    1       -0.013   1.086   0.008  0.00  0.00    +0.033 C 
ATOM     10  C   LIG    1       -0.802   1.617   1.223  0.00  0.00    +0.121 C 
ATOM     11  C   LIG    1       -1.500   2.866   0.723  0.00  0.00    +0.051 C 
ATOM     12  C   LIG    1       -2.076   3.912   1.428  0.00  0.00    +0.062 C 
ATOM     13  C   LIG    1       -2.662   4.969   0.692  0.00  0.00    +0.023 C 
ATOM     14  C   LIG    1       -3.264   6.061   1.332  0.00  0.00    +0.006 C 
ENDROOT
BRANCH  12  15
ATOM     15  N   LIG    1       -2.078   3.922   2.814  0.00  0.00    -0.327 NA
ATOM     16  H   LIG    1       -1.672   3.191   3.305  0.00  0.00    +0.118 HD
ATOM     17  H   LIG    1       -2.484   4.661   3.293  0.00  0.00    +0.118 HD
ENDBRANCH  12  15
BRANCH  10  18
ATOM     18  O   LIG    1        0.090   1.937   2.293  0.00  0.00    -0.391 OA
ATOM     19  H   LIG    1        0.597   1.181   2.622  0.00  0.00    +0.210 HD
ENDBRANCH  10  18
TORSDOF 2
