REMARK  Name = ZINC14954265
REMARK                            x       y       z     vdW  Elec       q    Type
REMARK                         _______ _______ _______ _____ _____    ______ ____
ROOT
ATOM      1  C   LIG    1       -5.779  -1.428   3.733  0.00  0.00    -0.025 A 
ATOM      2  C   LIG    1       -5.409  -0.356   4.548  0.00  0.00    +0.008 A 
ATOM      3  C   LIG    1       -6.373   0.390   5.195  0.00  0.00    +0.001 A 
ATOM      4  C   LIG    1       -7.711   0.083   5.042  0.00  0.00    +0.012 A 
ATOM      5  C   LIG    1       -8.096  -0.987   4.230  0.00  0.00    +0.022 A 
ATOM      6  C   LIG    1       -7.127  -1.740   3.569  0.00  0.00    +0.019 A 
ENDROOT
BRANCH   5   7
ATOM      7  C   LIG    1       -9.527  -1.314   4.066  0.00  0.00    +0.189 A 
ATOM      8  C   LIG    1      -10.101  -2.559   4.144  0.00  0.00    +0.107 A 
ATOM      9  C   LIG    1      -11.484  -2.307   3.914  0.00  0.00    +0.211 A 
ATOM     10  N   LIG    1      -11.596  -1.013   3.731  0.00  0.00    -0.069 NA
ATOM     11  O   LIG    1      -10.530  -0.451   3.817  0.00  0.00    -0.352 OA
BRANCH   8  12
ATOM     12  N   LIG    1       -9.476  -3.785   4.392  0.00  0.00    -0.353 N 
ATOM     13  H   LIG    1       -9.985  -4.609   4.338  0.00  0.00    +0.142 HD
ATOM     14  H   LIG    1       -8.533  -3.811   4.618  0.00  0.00    +0.142 HD
ENDBRANCH   8  12
BRANCH   9  15
ATOM     15  C   LIG    1      -12.576  -3.306   3.886  0.00  0.00    +0.361 C 
ATOM     16  O   LIG    1      -12.330  -4.480   4.073  0.00  0.00    -0.243 OA
BRANCH  15  17
ATOM     17  O   LIG    1      -13.843  -2.912   3.654  0.00  0.00    -0.476 OA
ATOM     18  H   LIG    1      -14.033  -2.006   3.510  0.00  0.00    +0.295 HD
ENDBRANCH  15  17
ENDBRANCH   9  15
ENDBRANCH   5   7
BRANCH   1  20
ATOM     19  C   LIG    1       -3.463  -1.923   3.194  0.00  0.00    +0.014 C 
ATOM     20  C   LIG    1       -4.745  -2.225   3.041  0.00  0.00    +0.007 C 
BRANCH  19  21
ATOM     21  C   LIG    1       -2.408  -2.736   2.488  0.00  0.00    +0.256 C 
BRANCH  21  22
ATOM     22  O   LIG    1       -1.445  -1.859   1.901  0.00  0.00    -0.487 OA
BRANCH  22  28
ATOM     23  C   LIG    1        0.562  -1.634   0.620  0.00  0.00    +0.142 A 
ATOM     24  C   LIG    1        1.613  -2.243  -0.083  0.00  0.00    +0.134 A 
ATOM     25  C   LIG    1        1.676  -3.624  -0.165  0.00  0.00    +0.046 A 
ATOM     26  C   LIG    1        0.702  -4.403   0.433  0.00  0.00    +0.007 A 
ATOM     27  C   LIG    1       -0.341  -3.814   1.123  0.00  0.00    +0.047 A 
ATOM     28  C   LIG    1       -0.421  -2.434   1.223  0.00  0.00    +0.138 A 
BRANCH  23  29
ATOM     29  C   LIG    1        0.488  -0.169   0.719  0.00  0.00    +0.346 C 
ATOM     30  O   LIG    1        1.025   0.406   1.645  0.00  0.00    -0.245 OA
BRANCH  29  32
ATOM     31  C   LIG    1       -0.209   1.980  -0.057  0.00  0.00    +0.280 C 
ATOM     32  O   LIG    1       -0.177   0.537  -0.218  0.00  0.00    -0.464 OA
ENDBRANCH  29  32
ENDBRANCH  23  29
BRANCH  24  33
ATOM     33  O   LIG    1        2.567  -1.482  -0.675  0.00  0.00    -0.506 OA
ATOM     34  H   LIG    1        3.324  -1.287  -0.106  0.00  0.00    +0.292 HD
ENDBRANCH  24  33
ENDBRANCH  22  28
ENDBRANCH  21  22
ENDBRANCH  19  21
ENDBRANCH   1  20
TORSDOF 11
