REMARK  Name = ZINC21524930
REMARK                            x       y       z     vdW  Elec       q    Type
REMARK                         _______ _______ _______ _____ _____    ______ ____
ROOT
ATOM      1  C   LIG    1       -2.467   0.906  -0.086  0.00  0.00    +0.069 A 
ATOM      2  C   LIG    1       -3.072   0.344  -1.182  0.00  0.00    +0.089 A 
ATOM      3  C   LIG    1       -4.381  -0.181  -0.720  0.00  0.00    +0.082 A 
ATOM      4  N   LIG    1       -5.219  -0.818  -1.647  0.00  0.00    -0.294 N 
ATOM      5  C   LIG    1       -6.527  -1.350  -1.254  0.00  0.00    +0.154 C 
ATOM      6  C   LIG    1       -4.772  -0.920  -2.918  0.00  0.00    +0.332 A 
ATOM      7  N   LIG    1       -3.598  -0.465  -3.367  0.00  0.00    -0.263 N 
ATOM      8  C   LIG    1       -3.276  -0.665  -4.782  0.00  0.00    +0.157 C 
ATOM      9  O   LIG    1       -5.498  -1.472  -3.721  0.00  0.00    -0.246 OA
ATOM     10  C   LIG    1       -4.464   0.093   0.574  0.00  0.00    +0.076 A 
ATOM     11  C   LIG    1       -5.566  -0.235   1.557  0.00  0.00    +0.186 C 
ATOM     12  N   LIG    1       -5.494   0.738   2.659  0.00  0.00    -0.328 N 
ATOM     13  H   LIG    1       -6.419   1.137   3.101  0.00  0.00    +0.147 HD
ATOM     14  C   LIG    1       -4.250   1.155   3.146  0.00  0.00    +0.052 A 
ATOM     15  C   LIG    1       -4.105   1.540   4.470  0.00  0.00    +0.025 A 
ATOM     16  C   LIG    1       -2.875   1.967   4.932  0.00  0.00    +0.002 A 
ATOM     17  C   LIG    1       -1.785   2.015   4.082  0.00  0.00    +0.002 A 
ATOM     18  C   LIG    1       -1.917   1.626   2.760  0.00  0.00    +0.028 A 
ATOM     19  C   LIG    1       -3.142   1.190   2.293  0.00  0.00    +0.068 A 
ATOM     20  C   LIG    1       -2.687   0.172  -2.587  0.00  0.00    +0.266 A 
ATOM     21  O   LIG    1       -1.626   0.576  -3.024  0.00  0.00    -0.267 OA
ATOM     22  N   LIG    1       -3.315   0.767   0.968  0.00  0.00    -0.306 N 
ENDROOT
BRANCH   1  29
ATOM     23  C   LIG    1       -2.245   3.744  -0.608  0.00  0.00    +0.044 C 
ATOM     24  C   LIG    1       -1.019   2.920  -0.308  0.00  0.00    -0.041 A 
ATOM     25  C   LIG    1        0.225   3.515  -0.286  0.00  0.00    +0.004 A 
ATOM     26  C   LIG    1        1.351   2.761  -0.010  0.00  0.00    +0.000 A 
ATOM     27  C   LIG    1        1.239   1.405   0.246  0.00  0.00    +0.001 A 
ATOM     28  C   LIG    1        0.001   0.797   0.226  0.00  0.00    +0.010 A 
ATOM     29  C   LIG    1       -1.140   1.552  -0.057  0.00  0.00    +0.003 A 
ENDBRANCH   1  29
BRANCH  11  30
ATOM     30  C   LIG    1       -5.373  -1.629   2.094  0.00  0.00    +0.131 A 
ATOM     31  C   LIG    1       -4.436  -2.007   2.982  0.00  0.00    +0.047 A 
ATOM     32  C   LIG    1       -4.615  -3.392   3.203  0.00  0.00    +0.045 A 
ATOM     33  C   LIG    1       -5.652  -3.777   2.437  0.00  0.00    +0.102 A 
ATOM     34  C   LIG    1       -6.207  -5.175   2.345  0.00  0.00    +0.086 C 
ATOM     35  O   LIG    1       -6.110  -2.704   1.772  0.00  0.00    -0.463 OA
ENDBRANCH  11  30
TORSDOF 2
