REMARK  Name = ZINC29482860
REMARK                            x       y       z     vdW  Elec       q    Type
REMARK                         _______ _______ _______ _____ _____    ______ ____
ROOT
ATOM      1  C   LIG    1       -1.220   1.751   0.017  0.00  0.00    +0.010 A 
ATOM      2  C   LIG    1       -0.013   1.076   0.008  0.00  0.00    +0.049 A 
ATOM      3  C   LIG    1        1.178   1.784   0.000  0.00  0.00    +0.159 A 
ATOM      4  C   LIG    1        1.157   3.177   0.008  0.00  0.00    +0.164 A 
ATOM      5  C   LIG    1       -0.053   3.845   0.022  0.00  0.00    +0.029 A 
ATOM      6  C   LIG    1       -0.413   5.312   0.033  0.00  0.00    +0.200 C 
ATOM      7  O   LIG    1       -1.791   5.385  -0.374  0.00  0.00    -0.369 OA
ATOM      8  C   LIG    1       -2.369   4.136   0.046  0.00  0.00    +0.132 C 
ATOM      9  C   LIG    1       -1.242   3.130   0.030  0.00  0.00    -0.012 A 
ENDROOT
BRANCH   3  10
ATOM     10  O   LIG    1        2.365   1.121  -0.015  0.00  0.00    -0.503 OA
ATOM     11  H   LIG    1        3.310   1.685  -0.021  0.00  0.00    +0.292 HD
ENDBRANCH   3  10
BRANCH   4  12
ATOM     12  O   LIG    1        2.323   3.877   0.001  0.00  0.00    -0.503 OA
ATOM     13  H   LIG    1        2.304   4.977   0.006  0.00  0.00    +0.292 HD
ENDBRANCH   4  12
BRANCH   8  14
ATOM     14  C   LIG    1       -3.469   3.710  -0.929  0.00  0.00    -0.050 C 
BRANCH  14  15
ATOM     15  N   LIG    1       -4.557   4.697  -0.902  0.00  0.00    +0.380 N 
ATOM     16  H   LIG    1       -4.971   4.758   0.116  0.00  0.00    -0.090 HD
ATOM     17  H   LIG    1       -4.166   5.681  -1.198  0.00  0.00    -0.090 HD
ATOM     18  H   LIG    1       -5.348   4.391  -1.602  0.00  0.00    -0.090 HD
ENDBRANCH  14  15
ENDBRANCH   8  14
TORSDOF 4
