REMARK  Name = ZINC19300304
REMARK                            x       y       z     vdW  Elec       q    Type
REMARK                         _______ _______ _______ _____ _____    ______ ____
ROOT
ATOM      1  C   LIG    1        1.417   2.055  -0.000  0.00  0.00    +0.265 C 
ENDROOT
BRANCH   1   2
ATOM      2  P   LIG    1        1.392   3.878   0.010  0.00  0.00    +0.371 P 
ATOM      3  O   LIG    1        0.645   4.390  -1.242  0.00  0.00    -0.255 OA
BRANCH   2   4
ATOM      4  O   LIG    1        2.902   4.435  -0.002  0.00  0.00    -0.322 OA
ATOM      5  H   LIG    1        2.966   5.400   0.003  0.00  0.00    +0.220 HD
ENDBRANCH   2   4
BRANCH   2   6
ATOM      6  O   LIG    1        0.669   4.376   1.281  0.00  0.00    -0.322 OA
ATOM      7  H   LIG    1       -0.241   4.041   1.288  0.00  0.00    +0.220 HD
ENDBRANCH   2   6
ENDBRANCH   1   2
BRANCH   1   8
ATOM      8  P   LIG    1        2.270   1.467  -1.500  0.00  0.00    +0.371 P 
ATOM      9  O   LIG    1        2.404  -0.093  -1.447  0.00  0.00    -0.255 OA
BRANCH   8  10
ATOM     10  O   LIG    1        3.696   2.112  -1.576  0.00  0.00    -0.322 OA
ATOM     11  H   LIG    1        4.208   1.858  -0.793  0.00  0.00    +0.220 HD
ENDBRANCH   8  10
BRANCH   8  12
ATOM     12  O   LIG    1        1.443   1.878  -2.766  0.00  0.00    -0.322 OA
ATOM     13  H   LIG    1        0.560   1.479  -2.719  0.00  0.00    +0.220 HD
ENDBRANCH   8  12
ENDBRANCH   1   8
BRANCH   1  14
ATOM     14  O   LIG    1        2.108   1.582   1.157  0.00  0.00    -0.367 OA
ATOM     15  H   LIG    1        1.708   1.857   1.994  0.00  0.00    +0.212 HD
ENDBRANCH   1  14
BRANCH   1  16
ATOM     16  C   LIG    1       -0.019   1.526   0.010  0.00  0.00    +0.041 C 
BRANCH  16  17
ATOM     17  C   LIG    1        0.002  -0.004   0.002  0.00  0.00    -0.082 C 
BRANCH  17  18
ATOM     18  N   LIG    1       -1.376  -0.512   0.012  0.00  0.00    +0.378 N 
ATOM     19  H   LIG    1       -1.362  -1.521   0.007  0.00  0.00    -0.090 HD
ATOM     20  H   LIG    1       -1.864  -0.178  -0.805  0.00  0.00    -0.090 HD
ATOM     21  H   LIG    1       -1.848  -0.187   0.843  0.00  0.00    -0.090 HD
ENDBRANCH  17  18
ENDBRANCH  16  17
ENDBRANCH   1  16
TORSDOF 10
