REMARK  Name = ZINC36467752
REMARK                            x       y       z     vdW  Elec       q    Type
REMARK                         _______ _______ _______ _____ _____    ______ ____
ROOT
ATOM      1  C   LIG    1        1.225  -4.078  -0.035  0.00  0.00    -0.019 A 
ATOM      2  C   LIG    1        0.089  -4.795  -0.027  0.00  0.00    +0.087 A 
ATOM      3  N   LIG    1        0.381  -6.131  -0.037  0.00  0.00    -0.360 N 
ATOM      4  C   LIG    1        1.748  -6.312  -0.053  0.00  0.00    +0.047 A 
ATOM      5  C   LIG    1        2.562  -7.440  -0.067  0.00  0.00    +0.028 A 
ATOM      6  C   LIG    1        3.931  -7.302  -0.098  0.00  0.00    +0.025 A 
ATOM      7  C   LIG    1        4.516  -6.037  -0.100  0.00  0.00    +0.025 A 
ATOM      8  C   LIG    1        3.725  -4.904  -0.081  0.00  0.00    +0.033 A 
ATOM      9  H   LIG    1       -0.276  -6.845  -0.034  0.00  0.00    +0.165 HD
ATOM     10  C   LIG    1        2.335  -5.034  -0.059  0.00  0.00    +0.005 A 
ENDROOT
BRANCH   1  16
ATOM     11  C   LIG    1       -0.018   1.465   0.010  0.00  0.00    -0.096 C 
ATOM     12  N   LIG    1        0.002  -0.004   0.002  0.00  0.00    +0.378 N 
ATOM     13  H   LIG    1       -0.945  -0.352   0.012  0.00  0.00    -0.082 HD
ATOM     14  C   LIG    1        0.681  -0.476  -1.210  0.00  0.00    -0.079 C 
ATOM     15  C   LIG    1        0.634  -2.005  -1.264  0.00  0.00    -0.011 C 
ATOM     16  C   LIG    1        1.336  -2.575  -0.029  0.00  0.00    +0.018 C 
ATOM     17  C   LIG    1        0.666  -2.018   1.230  0.00  0.00    -0.011 C 
ATOM     18  C   LIG    1        0.712  -0.489   1.192  0.00  0.00    -0.079 C 
ENDBRANCH   1  16
BRANCH   7  19
ATOM     19  N   LIG    1        5.910  -5.913  -0.122  0.00  0.00    -0.358 N 
ATOM     20  H   LIG    1        6.468  -6.707  -0.135  0.00  0.00    +0.142 HD
ATOM     21  H   LIG    1        6.320  -5.034  -0.123  0.00  0.00    +0.142 HD
ENDBRANCH   7  19
TORSDOF 2
