REMARK  Name = ZINC26575646
REMARK                            x       y       z     vdW  Elec       q    Type
REMARK                         _______ _______ _______ _____ _____    ______ ____
ROOT
ATOM      1  C   LIG    1       -3.555  -0.632   1.333  0.00  0.00    -0.011 C 
ATOM      2  C   LIG    1       -2.126  -0.087   1.305  0.00  0.00    -0.043 C 
ATOM      3  C   LIG    1       -1.434  -0.535   0.016  0.00  0.00    +0.131 C 
ATOM      4  C   LIG    1        0.002  -0.004   0.002  0.00  0.00    +0.168 C 
ATOM      5  C   LIG    1        0.740  -0.513   1.244  0.00  0.00    +0.128 C 
ATOM      6  C   LIG    1       -0.017  -0.065   2.498  0.00  0.00    -0.048 C 
ATOM      7  N   LIG    1       -1.384  -0.599   2.464  0.00  0.00    +0.384 N 
ATOM      8  H   LIG    1       -1.331  -1.696   2.410  0.00  0.00    -0.085 HD
ATOM      9  H   LIG    1       -1.900  -0.302   3.390  0.00  0.00    -0.085 HD
ENDROOT
BRANCH   3  10
ATOM     10  O   LIG    1       -2.144  -0.020  -1.112  0.00  0.00    -0.391 OA
ATOM     11  H   LIG    1       -1.792  -0.240  -2.131  0.00  0.00    +0.210 HD
ENDBRANCH   3  10
BRANCH   4  12
ATOM     12  O   LIG    1       -0.017   1.425   0.010  0.00  0.00    -0.387 OA
ATOM     13  H   LIG    1        0.928   1.988   0.002  0.00  0.00    +0.210 HD
ENDBRANCH   4  12
BRANCH   5  14
ATOM     14  O   LIG    1        0.803  -1.940   1.210  0.00  0.00    -0.391 OA
ATOM     15  H   LIG    1        1.300  -2.488   2.024  0.00  0.00    +0.210 HD
ENDBRANCH   5  14
TORSDOF 3
