REMARK  Name = ZINC43017312
REMARK                            x       y       z     vdW  Elec       q    Type
REMARK                         _______ _______ _______ _____ _____    ______ ____
ROOT
ATOM      1  C   LIG    1        1.266  -2.905   1.740  0.00  0.00    +0.141 C 
ATOM      2  C   LIG    1        2.443  -2.208   2.429  0.00  0.00    +0.049 C 
ATOM      3  C   LIG    1        2.557  -2.733   3.869  0.00  0.00    +0.080 C 
ATOM      4  C   LIG    1        1.149  -2.680   4.506  0.00  0.00    +0.024 C 
ATOM      5  C   LIG    1        0.508  -4.038   4.155  0.00  0.00    +0.024 C 
ATOM      6  C   LIG    1        1.589  -4.785   3.339  0.00  0.00    +0.080 C 
ATOM      7  N   LIG    1        2.882  -4.177   3.787  0.00  0.00    -0.279 N 
ATOM      8  C   LIG    1        4.054  -4.785   4.060  0.00  0.00    +0.307 C 
ATOM      9  N   LIG    1        4.166  -6.122   3.928  0.00  0.00    -0.269 N 
ATOM     10  H   LIG    1        3.387  -6.654   3.702  0.00  0.00    +0.156 HD
ATOM     11  O   LIG    1        5.009  -4.128   4.425  0.00  0.00    -0.252 OA
ATOM     12  C   LIG    1        1.427  -4.423   1.854  0.00  0.00    +0.049 C 
ENDROOT
BRANCH   9  13
ATOM     13  C   LIG    1        5.407  -6.742   4.117  0.00  0.00    +0.035 A 
ATOM     14  C   LIG    1        5.759  -7.843   3.348  0.00  0.00    +0.024 A 
ATOM     15  C   LIG    1        6.984  -8.452   3.537  0.00  0.00    +0.014 A 
ATOM     16  C   LIG    1        7.859  -7.966   4.490  0.00  0.00    +0.055 A 
ATOM     17  C   LIG    1        7.511  -6.870   5.259  0.00  0.00    +0.014 A 
ATOM     18  C   LIG    1        6.290  -6.253   5.071  0.00  0.00    +0.024 A 
BRANCH  16  19
ATOM     19  C   LIG    1        9.195  -8.634   4.694  0.00  0.00    +0.417 C 
ATOM     20  F   LIG    1        9.088  -9.994   4.386  0.00  0.00    -0.166 F 
ATOM     21  F   LIG    1        9.592  -8.487   6.027  0.00  0.00    -0.166 F 
ATOM     22  F   LIG    1       10.145  -8.040   3.856  0.00  0.00    -0.166 F 
ENDBRANCH  16  19
ENDBRANCH   9  13
BRANCH   1  23
ATOM     23  S   LIG    1        1.226  -2.432  -0.011  0.00  0.00    +0.017 S 
ATOM     24  O   LIG    1        2.458  -2.764  -0.636  0.00  0.00    -0.168 OA
ATOM     25  O   LIG    1       -0.011  -2.819  -0.594  0.00  0.00    -0.168 OA
BRANCH  23  30
ATOM     26  C   LIG    1       -0.048   1.373   0.025  0.00  0.00    +0.005 A 
ATOM     27  C   LIG    1        1.162   2.050   0.007  0.00  0.00    +0.020 A 
ATOM     28  C   LIG    1        2.338   1.325  -0.015  0.00  0.00    +0.113 A 
ATOM     29  N   LIG    1        2.319   0.007  -0.019  0.00  0.00    -0.237 NA
ATOM     30  C   LIG    1        1.187  -0.670  -0.003  0.00  0.00    +0.177 A 
ATOM     31  C   LIG    1       -0.029  -0.013   0.020  0.00  0.00    +0.047 A 
ENDBRANCH  23  30
ENDBRANCH   1  23
TORSDOF 4
