REMARK  Name = ZINC22210961
REMARK                            x       y       z     vdW  Elec       q    Type
REMARK                         _______ _______ _______ _____ _____    ______ ____
ROOT
ATOM      1  C   LIG    1       -3.564   3.072  -0.054  0.00  0.00    +0.129 A 
ATOM      2  C   LIG    1       -3.504   1.684  -0.065  0.00  0.00    +0.048 A 
ATOM      3  C   LIG    1       -4.658   0.930  -0.159  0.00  0.00    +0.027 A 
ATOM      4  C   LIG    1       -5.896   1.553  -0.254  0.00  0.00    +0.045 A 
ATOM      5  C   LIG    1       -5.957   2.955  -0.248  0.00  0.00    +0.052 A 
ATOM      6  C   LIG    1       -7.383   3.316  -0.360  0.00  0.00    +0.249 C 
ATOM      7  C   LIG    1       -8.107   2.005  -0.428  0.00  0.00    +0.289 C 
ATOM      8  O   LIG    1       -9.306   1.852  -0.525  0.00  0.00    -0.266 OA
ATOM      9  O   LIG    1       -7.864   4.430  -0.391  0.00  0.00    -0.282 OA
ATOM     10  N   LIG    1       -7.185   1.029  -0.361  0.00  0.00    -0.278 N 
ATOM     11  H   LIG    1       -7.336  -0.060  -0.381  0.00  0.00    +0.155 HD
ATOM     12  C   LIG    1       -4.789   3.712  -0.149  0.00  0.00    +0.060 A 
ENDROOT
BRANCH   1  13
ATOM     13  O   LIG    1       -2.421   3.802   0.043  0.00  0.00    -0.456 OA
BRANCH  13  17
ATOM     14  C   LIG    1        1.178   1.790  -0.070  0.00  0.00    +0.000 A 
ATOM     15  C   LIG    1        0.377   1.835  -1.196  0.00  0.00    +0.004 A 
ATOM     16  C   LIG    1       -0.827   2.512  -1.162  0.00  0.00    +0.046 A 
ATOM     17  C   LIG    1       -1.236   3.139   0.006  0.00  0.00    +0.128 A 
ATOM     18  C   LIG    1       -0.430   3.092   1.135  0.00  0.00    +0.046 A 
ATOM     19  C   LIG    1        0.775   2.417   1.094  0.00  0.00    +0.004 A 
ENDBRANCH  13  17
ENDBRANCH   1  13
TORSDOF 2
