REMARK  Name = ZINC19866409
REMARK                            x       y       z     vdW  Elec       q    Type
REMARK                         _______ _______ _______ _____ _____    ______ ____
ROOT
ATOM      1  C   LIG    1        3.711  -0.707  -0.038  0.00  0.00    +0.135 C 
ENDROOT
BRANCH   1   5
ATOM      2  C   LIG    1        0.035   1.467   0.061  0.00  0.00    +0.000 A 
ATOM      3  C   LIG    1        0.020   0.087  -0.022  0.00  0.00    +0.000 A 
ATOM      4  C   LIG    1        1.210  -0.617  -0.054  0.00  0.00    +0.005 A 
ATOM      5  C   LIG    1        2.414   0.060  -0.004  0.00  0.00    -0.031 A 
ATOM      6  C   LIG    1        2.429   1.440   0.079  0.00  0.00    +0.005 A 
ATOM      7  C   LIG    1        1.240   2.143   0.112  0.00  0.00    +0.000 A 
ENDBRANCH   1   5
BRANCH   1   8
ATOM      8  C   LIG    1        3.870  -1.483   1.245  0.00  0.00    -0.031 A 
ATOM      9  C   LIG    1        3.012  -2.528   1.531  0.00  0.00    +0.005 A 
ATOM     10  C   LIG    1        3.158  -3.240   2.707  0.00  0.00    +0.000 A 
ATOM     11  C   LIG    1        4.161  -2.906   3.597  0.00  0.00    +0.000 A 
ATOM     12  C   LIG    1        5.020  -1.861   3.310  0.00  0.00    +0.000 A 
ATOM     13  C   LIG    1        4.877  -1.153   2.132  0.00  0.00    +0.005 A 
ENDBRANCH   1   8
BRANCH   1  14
ATOM     14  C   LIG    1        3.700  -1.661  -1.204  0.00  0.00    +0.225 C 
ATOM     15  N   LIG    1        3.567  -1.190  -2.459  0.00  0.00    -0.314 N 
ATOM     16  H   LIG    1        3.479  -0.236  -2.612  0.00  0.00    +0.149 HD
ATOM     17  O   LIG    1        3.810  -2.854  -1.013  0.00  0.00    -0.275 OA
BRANCH  15  18
ATOM     18  C   LIG    1        3.557  -2.117  -3.593  0.00  0.00    +0.105 C 
BRANCH  18  19
ATOM     19  C   LIG    1        3.395  -1.330  -4.895  0.00  0.00    +0.034 C 
BRANCH  19  20
ATOM     20  C   LIG    1        3.384  -2.299  -6.079  0.00  0.00    +0.086 C 
BRANCH  20  21
ATOM     21  N   LIG    1        3.229  -1.542  -7.329  0.00  0.00    -0.298 NA
ATOM     22  C   LIG    1        1.908  -0.902  -7.397  0.00  0.00    +0.112 C 
ATOM     23  C   LIG    1        1.812  -0.078  -8.684  0.00  0.00    +0.175 C 
ATOM     24  O   LIG    1        2.060  -0.927  -9.807  0.00  0.00    -0.377 OA
ATOM     25  C   LIG    1        3.338  -1.567  -9.774  0.00  0.00    +0.175 C 
ATOM     26  C   LIG    1        3.450  -2.406  -8.498  0.00  0.00    +0.112 C 
ENDBRANCH  20  21
ENDBRANCH  19  20
ENDBRANCH  18  19
ENDBRANCH  15  18
ENDBRANCH   1  14
TORSDOF 7
