REMARK  Name = ZINC19478595
REMARK                            x       y       z     vdW  Elec       q    Type
REMARK                         _______ _______ _______ _____ _____    ______ ____
ROOT
ATOM      1  C   LIG    1        1.170   2.086   0.002  0.00  0.00    -0.042 A 
ATOM      2  C   LIG    1       -0.017   1.375   0.010  0.00  0.00    +0.005 A 
ATOM      3  C   LIG    1        0.002  -0.004   0.002  0.00  0.00    +0.013 A 
ATOM      4  C   LIG    1        1.222  -0.682  -0.013  0.00  0.00    +0.039 A 
ATOM      5  C   LIG    1        2.416   0.041  -0.021  0.00  0.00    +0.013 A 
ATOM      6  C   LIG    1        2.383   1.420  -0.013  0.00  0.00    +0.005 A 
ENDROOT
BRANCH   1   8
ATOM      7  C   LIG    1        0.423   4.083   1.268  0.00  0.00    +0.015 C 
ATOM      8  C   LIG    1        1.142   3.593   0.010  0.00  0.00    -0.013 C 
ATOM      9  C   LIG    1        0.400   4.096  -1.230  0.00  0.00    +0.015 C 
ATOM     10  C   LIG    1        2.575   4.130  -0.001  0.00  0.00    +0.015 C 
ENDBRANCH   1   8
BRANCH   4  11
ATOM     11  C   LIG    1        1.250  -2.160  -0.021  0.00  0.00    +0.267 C 
ATOM     12  N   LIG    1        2.429  -2.812  -0.036  0.00  0.00    -0.193 N 
ATOM     13  H   LIG    1        3.371  -2.245  -0.042  0.00  0.00    +0.183 HD
ATOM     14  O   LIG    1        0.208  -2.788  -0.014  0.00  0.00    -0.268 OA
BRANCH  12  15
ATOM     15  O   LIG    1        2.455  -4.228  -0.043  0.00  0.00    -0.295 OA
ATOM     16  H   LIG    1        3.418  -4.760  -0.055  0.00  0.00    +0.241 HD
ENDBRANCH  12  15
ENDBRANCH   4  11
TORSDOF 3
