REMARK  Name = ZINC14951858
REMARK                            x       y       z     vdW  Elec       q    Type
REMARK                         _______ _______ _______ _____ _____    ______ ____
ROOT
ATOM      1  C   LIG    1       -0.018   1.503   0.010  0.00  0.00    +0.070 C 
ATOM      2  C   LIG    1        0.002  -0.004   0.002  0.00  0.00    +0.098 C 
ATOM      3  N   LIG    1        0.022  -0.665   1.132  0.00  0.00    -0.074 NA
ENDROOT
BRANCH   2   4
ATOM      4  C   LIG    1        0.000  -0.705  -1.227  0.00  0.00    +0.175 C 
ATOM      5  N   LIG    1        0.018  -2.008  -1.234  0.00  0.00    -0.118 NA
BRANCH   5   6
ATOM      6  N   LIG    1        0.016  -2.702  -2.451  0.00  0.00    -0.155 N 
ATOM      7  H   LIG    1        0.001  -2.213  -3.288  0.00  0.00    +0.292 HD
BRANCH   6   8
ATOM      8  C   LIG    1        0.034  -4.078  -2.459  0.00  0.00    +0.400 C 
ATOM      9  N   LIG    1        0.054  -4.736  -1.333  0.00  0.00    -0.128 NA
ATOM     10  H   LIG    1        0.067  -5.706  -1.339  0.00  0.00    +0.306 HD
BRANCH   8  11
ATOM     11  N   LIG    1        0.032  -4.759  -3.654  0.00  0.00    -0.288 N 
ATOM     12  H   LIG    1        0.045  -5.729  -3.659  0.00  0.00    +0.255 HD
ATOM     13  H   LIG    1        0.018  -4.270  -4.491  0.00  0.00    +0.255 HD
ENDBRANCH   8  11
ENDBRANCH   6   8
ENDBRANCH   5   6
ENDBRANCH   2   4
BRANCH   3  14
ATOM     14  N   LIG    1        0.039  -1.955   1.125  0.00  0.00    +0.044 NA
ATOM     15  C   LIG    1        0.059  -2.620   2.264  0.00  0.00    +0.404 C 
BRANCH  15  16
ATOM     16  N   LIG    1        0.078  -3.991   2.256  0.00  0.00    -0.287 N 
ATOM     17  H   LIG    1        0.092  -4.481   3.094  0.00  0.00    +0.255 HD
ATOM     18  H   LIG    1        0.076  -4.472   1.413  0.00  0.00    +0.255 HD
ENDBRANCH  15  16
BRANCH  15  19
ATOM     19  N   LIG    1        0.061  -1.941   3.455  0.00  0.00    -0.287 N 
ATOM     20  H   LIG    1        0.076  -2.430   4.292  0.00  0.00    +0.255 HD
ATOM     21  H   LIG    1        0.048  -0.971   3.460  0.00  0.00    +0.255 HD
ENDBRANCH  15  19
ENDBRANCH   3  14
TORSDOF 7
