REMARK  Name = ZINC28604308
REMARK                            x       y       z     vdW  Elec       q    Type
REMARK                         _______ _______ _______ _____ _____    ______ ____
ROOT
ATOM      1  C   LIG    1        3.850  -0.521  -0.053  0.00  0.00    -0.017 A 
ATOM      2  C   LIG    1        4.220  -1.390   0.975  0.00  0.00    +0.010 A 
ATOM      3  C   LIG    1        5.463  -1.984   0.958  0.00  0.00    +0.024 A 
ATOM      4  C   LIG    1        6.353  -1.711  -0.075  0.00  0.00    +0.033 A 
ATOM      5  C   LIG    1        5.989  -0.841  -1.097  0.00  0.00    +0.024 A 
ATOM      6  C   LIG    1        4.745  -0.248  -1.089  0.00  0.00    +0.010 A 
ENDROOT
BRANCH   1   9
ATOM      7  C   LIG    1        1.127   2.089  -0.206  0.00  0.00    +0.003 A 
ATOM      8  C   LIG    1        2.378   1.479  -0.214  0.00  0.00    +0.009 A 
ATOM      9  C   LIG    1        2.513   0.114  -0.042  0.00  0.00    -0.005 A 
ATOM     10  C   LIG    1        1.307  -0.689   0.150  0.00  0.00    +0.046 A 
ATOM     11  C   LIG    1        0.005  -0.006   0.152  0.00  0.00    +0.066 A 
ATOM     12  N   LIG    1       -0.913  -0.937   0.340  0.00  0.00    -0.298 N 
ATOM     13  H   LIG    1       -1.977  -0.660   0.379  0.00  0.00    +0.187 HD
ATOM     14  N   LIG    1       -0.287  -2.182   0.461  0.00  0.00    -0.286 N 
ATOM     15  H   LIG    1       -0.889  -3.088   0.624  0.00  0.00    +0.188 HD
ATOM     16  C   LIG    1        1.045  -2.038   0.347  0.00  0.00    +0.118 A 
ATOM     17  C   LIG    1       -0.024   1.393  -0.032  0.00  0.00    +0.028 A 
BRANCH  16  18
ATOM     18  N   LIG    1        1.988  -3.053   0.415  0.00  0.00    -0.343 N 
ATOM     19  H   LIG    1        3.057  -2.819   0.309  0.00  0.00    +0.144 HD
ATOM     20  H   LIG    1        1.665  -4.092   0.576  0.00  0.00    +0.144 HD
ENDBRANCH  16  18
ENDBRANCH   1   9
BRANCH   4  21
ATOM     21  N   LIG    1        7.615  -2.311  -0.086  0.00  0.00    -0.285 N 
ATOM     22  H   LIG    1        7.744  -3.328   0.314  0.00  0.00    +0.155 HD
ATOM     23  C   LIG    1        8.674  -1.643  -0.585  0.00  0.00    +0.220 C 
ATOM     24  O   LIG    1        8.552  -0.489  -0.937  0.00  0.00    -0.275 OA
BRANCH  23  25
ATOM     25  C   LIG    1       10.009  -2.332  -0.707  0.00  0.00    +0.075 C 
ATOM     26  C   LIG    1       10.477  -2.784   0.678  0.00  0.00    +0.013 C 
ATOM     27  C   LIG    1       11.833  -3.483   0.554  0.00  0.00    +0.001 C 
ATOM     28  C   LIG    1       12.856  -2.511  -0.037  0.00  0.00    +0.000 C 
ATOM     29  C   LIG    1       12.388  -2.058  -1.422  0.00  0.00    +0.001 C 
ATOM     30  C   LIG    1       11.032  -1.359  -1.298  0.00  0.00    +0.013 C 
ENDBRANCH  23  25
ENDBRANCH   4  21
TORSDOF 4
