REMARK  Name = ZINC00031164
REMARK                            x       y       z     vdW  Elec       q    Type
REMARK                         _______ _______ _______ _____ _____    ______ ____
ROOT
ATOM      1  C   LIG    1        3.696   2.049  -0.023  0.00  0.00    -0.039 C 
ATOM      2  C   LIG    1        4.277   2.060   1.393  0.00  0.00    -0.011 C 
ATOM      3  C   LIG    1        5.629   2.779   1.379  0.00  0.00    -0.003 C 
ATOM      4  C   LIG    1        6.555   2.083   0.377  0.00  0.00    -0.019 C 
ATOM      5  C   LIG    1        5.890   2.071  -1.001  0.00  0.00    -0.082 C 
ATOM      6  N   LIG    1        4.616   1.347  -0.926  0.00  0.00    +0.384 N 
ATOM      7  H   LIG    1        4.206   1.294  -1.847  0.00  0.00    -0.085 HD
ATOM      8  H   LIG    1        4.779   0.413  -0.579  0.00  0.00    -0.085 HD
ENDROOT
BRANCH   1  11
ATOM      9  C   LIG    1       -0.017   1.378   0.010  0.00  0.00    +0.020 A 
ATOM     10  C   LIG    1        1.185   2.070   0.002  0.00  0.00    +0.005 A 
ATOM     11  C   LIG    1        2.365   1.343  -0.013  0.00  0.00    -0.043 A 
ATOM     12  C   LIG    1        2.305  -0.038  -0.020  0.00  0.00    +0.112 A 
ATOM     13  N   LIG    1        1.144  -0.663  -0.013  0.00  0.00    -0.263 NA
ATOM     14  C   LIG    1        0.002  -0.004   0.002  0.00  0.00    +0.111 A 
ENDBRANCH   1  11
TORSDOF 1
