REMARK  Name = ZINC26186543
REMARK                            x       y       z     vdW  Elec       q    Type
REMARK                         _______ _______ _______ _____ _____    ______ ____
ROOT
ATOM      1  C   LIG    1       -0.742   1.585  -1.213  0.00  0.00    +0.216 C 
ATOM      2  N   LIG    1       -0.288   1.272  -2.443  0.00  0.00    -0.293 N 
ATOM      3  C   LIG    1        0.900   0.463  -2.811  0.00  0.00    +0.090 C 
ATOM      4  C   LIG    1        1.547   1.253  -3.974  0.00  0.00    +0.025 C 
ATOM      5  C   LIG    1        0.387   2.043  -4.602  0.00  0.00    +0.025 C 
ATOM      6  C   LIG    1        0.370  -0.868  -3.385  0.00  0.00    +0.107 C 
ATOM      7  N   LIG    1       -0.387  -0.588  -4.614  0.00  0.00    -0.295 NA
ATOM      8  C   LIG    1       -1.460   0.388  -4.379  0.00  0.00    +0.107 C 
ATOM      9  C   LIG    1       -0.853   1.659  -3.760  0.00  0.00    +0.090 C 
ATOM     10  O   LIG    1       -1.736   2.268  -1.088  0.00  0.00    -0.276 OA
ENDROOT
BRANCH   1  12
ATOM     11  C   LIG    1       -0.729   1.579   1.267  0.00  0.00    +0.013 C 
ATOM     12  C   LIG    1       -0.013   1.086   0.008  0.00  0.00    +0.092 C 
ENDBRANCH   1  12
BRANCH   7  13
ATOM     13  C   LIG    1       -0.920  -1.826  -5.197  0.00  0.00    +0.112 C 
BRANCH  13  14
ATOM     14  C   LIG    1        0.221  -2.700  -5.650  0.00  0.00    -0.011 C 
ATOM     15  C   LIG    1        0.316  -3.947  -5.210  0.00  0.00    +0.005 C 
BRANCH  15  16
ATOM     16  C   LIG    1        1.436  -4.804  -5.654  0.00  0.00    -0.025 A 
ATOM     17  C   LIG    1        2.391  -4.306  -6.541  0.00  0.00    +0.008 A 
ATOM     18  C   LIG    1        3.437  -5.109  -6.946  0.00  0.00    +0.001 A 
ATOM     19  C   LIG    1        3.533  -6.410  -6.485  0.00  0.00    +0.000 A 
ATOM     20  C   LIG    1        2.586  -6.912  -5.611  0.00  0.00    +0.001 A 
ATOM     21  C   LIG    1        1.538  -6.117  -5.192  0.00  0.00    +0.008 A 
ENDBRANCH  15  16
ENDBRANCH  13  14
ENDBRANCH   7  13
TORSDOF 4
