REMARK  Name = ZINC28263619
REMARK                            x       y       z     vdW  Elec       q    Type
REMARK                         _______ _______ _______ _____ _____    ______ ____
ROOT
ATOM      1  C   LIG    1       -1.438  -0.560  -0.049  0.00  0.00    +0.165 C 
ENDROOT
BRANCH   1   2
ATOM      2  N   LIG    1       -2.283  -0.844  -1.212  0.00  0.00    -0.270 N 
ATOM      3  H   LIG    1       -3.081  -0.316  -1.372  0.00  0.00    +0.153 HD
ATOM      4  C   LIG    1       -1.953  -1.840  -2.058  0.00  0.00    +0.401 C 
ATOM      5  O   LIG    1       -0.954  -2.502  -1.857  0.00  0.00    -0.226 OA
BRANCH   4   6
ATOM      6  O   LIG    1       -2.729  -2.101  -3.126  0.00  0.00    -0.446 OA
BRANCH   6   7
ATOM      7  C   LIG    1       -2.319  -3.170  -3.981  0.00  0.00    +0.269 C 
BRANCH   7   8
ATOM      8  C   LIG    1       -3.303  -3.313  -5.114  0.00  0.00    -0.010 A 
ATOM      9  C   LIG    1       -4.399  -4.144  -4.976  0.00  0.00    +0.007 A 
ATOM     10  C   LIG    1       -5.301  -4.276  -6.016  0.00  0.00    +0.000 A 
ATOM     11  C   LIG    1       -5.107  -3.576  -7.192  0.00  0.00    +0.000 A 
ATOM     12  C   LIG    1       -4.011  -2.744  -7.329  0.00  0.00    +0.000 A 
ATOM     13  C   LIG    1       -3.112  -2.609  -6.288  0.00  0.00    +0.007 A 
ENDBRANCH   7   8
ENDBRANCH   6   7
ENDBRANCH   4   6
ENDBRANCH   1   2
BRANCH   1  14
ATOM     14  C   LIG    1       -2.264   0.105   1.022  0.00  0.00    +0.234 C 
ATOM     15  N   LIG    1       -1.862   0.062   2.307  0.00  0.00    -0.304 N 
ATOM     16  H   LIG    1       -1.077  -0.452   2.553  0.00  0.00    +0.149 HD
ATOM     17  O   LIG    1       -3.291   0.680   0.727  0.00  0.00    -0.274 OA
BRANCH  15  18
ATOM     18  C   LIG    1       -2.610   0.793   3.334  0.00  0.00    +0.152 C 
BRANCH  18  19
ATOM     19  C   LIG    1       -3.759  -0.055   3.816  0.00  0.00    +0.184 C 
ATOM     20  O   LIG    1       -3.742  -1.250   3.643  0.00  0.00    -0.293 OA
BRANCH  19  21
ATOM     21  C   LIG    1       -4.929   0.589   4.514  0.00  0.00    +0.289 C 
ATOM     22  F   LIG    1       -5.861  -0.393   4.865  0.00  0.00    -0.241 F 
ENDBRANCH  19  21
ENDBRANCH  18  19
BRANCH  18  23
ATOM     23  C   LIG    1       -1.683   1.113   4.509  0.00  0.00    +0.150 C 
BRANCH  23  24
ATOM     24  C   LIG    1       -0.603   2.059   4.053  0.00  0.00    +0.309 C 
ATOM     25  O   LIG    1       -0.576   2.439   2.907  0.00  0.00    -0.251 OA
BRANCH  24  26
ATOM     26  O   LIG    1        0.330   2.481   4.922  0.00  0.00    -0.468 OA
ATOM     27  C   LIG    1        1.324   3.377   4.422  0.00  0.00    +0.280 C 
ENDBRANCH  24  26
ENDBRANCH  23  24
ENDBRANCH  18  23
ENDBRANCH  15  18
ENDBRANCH   1  14
BRANCH   1  29
ATOM     28  C   LIG    1        0.607  -0.349  -1.468  0.00  0.00    +0.009 C 
ATOM     29  C   LIG    1       -0.296   0.370  -0.464  0.00  0.00    +0.012 C 
ATOM     30  C   LIG    1       -0.874   1.631  -1.109  0.00  0.00    +0.009 C 
ENDBRANCH   1  29
TORSDOF 12
