REMARK  Name = ZINC52541473
REMARK                            x       y       z     vdW  Elec       q    Type
REMARK                         _______ _______ _______ _____ _____    ______ ____
ROOT
ATOM      1  C   LIG    1        4.739  -3.573  -0.826  0.00  0.00    +0.130 C 
ENDROOT
BRANCH   1   2
ATOM      2  N   LIG    1        6.190  -3.525  -1.021  0.00  0.00    -0.255 N 
ATOM      3  C   LIG    1        6.715  -2.739  -1.982  0.00  0.00    +0.224 C 
ATOM      4  O   LIG    1        7.906  -2.772  -2.209  0.00  0.00    -0.275 OA
BRANCH   3   5
ATOM      5  C   LIG    1        5.823  -1.818  -2.773  0.00  0.00    +0.076 C 
ATOM      6  C   LIG    1        5.058  -2.627  -3.823  0.00  0.00    +0.013 C 
ATOM      7  C   LIG    1        4.152  -1.693  -4.626  0.00  0.00    +0.001 C 
ATOM      8  C   LIG    1        5.004  -0.631  -5.324  0.00  0.00    +0.000 C 
ATOM      9  C   LIG    1        5.770   0.178  -4.275  0.00  0.00    +0.001 C 
ATOM     10  C   LIG    1        6.676  -0.756  -3.471  0.00  0.00    +0.013 C 
ENDBRANCH   3   5
BRANCH   2  11
ATOM     11  C   LIG    1        7.028  -4.293  -0.214  0.00  0.00    +0.127 A 
ATOM     12  C   LIG    1        6.480  -5.252   0.631  0.00  0.00    +0.044 A 
ATOM     13  C   LIG    1        7.323  -6.007   1.427  0.00  0.00    +0.005 A 
ATOM     14  C   LIG    1        8.690  -5.776   1.351  0.00  0.00    +0.020 A 
ATOM     15  C   LIG    1        9.165  -4.807   0.489  0.00  0.00    +0.113 A 
ATOM     16  N   LIG    1        8.337  -4.106  -0.262  0.00  0.00    -0.240 NA
ENDBRANCH   2  11
ENDBRANCH   1   2
BRANCH   1  17
ATOM     17  C   LIG    1        4.340  -2.594   0.280  0.00  0.00    +0.104 C 
BRANCH  17  21
ATOM     18  N   LIG    1        0.248  -1.778   0.732  0.00  0.00    -0.325 N 
ATOM     19  C   LIG    1        0.999  -2.123   1.948  0.00  0.00    +0.120 C 
ATOM     20  C   LIG    1        2.491  -1.899   1.680  0.00  0.00    +0.103 C 
ATOM     21  N   LIG    1        2.885  -2.642   0.475  0.00  0.00    -0.298 NA
ATOM     22  C   LIG    1        2.178  -2.146  -0.713  0.00  0.00    +0.103 C 
ATOM     23  C   LIG    1        0.669  -2.384  -0.541  0.00  0.00    +0.120 C 
BRANCH  18  29
ATOM     24  C   LIG    1       -0.646   0.467   0.611  0.00  0.00    +0.141 A 
ATOM     25  C   LIG    1       -1.729   1.329   0.658  0.00  0.00    +0.047 A 
ATOM     26  C   LIG    1       -3.000   0.832   0.882  0.00  0.00    +0.004 A 
ATOM     27  C   LIG    1       -3.194  -0.525   1.059  0.00  0.00    +0.002 A 
ATOM     28  C   LIG    1       -2.119  -1.393   1.013  0.00  0.00    +0.027 A 
ATOM     29  C   LIG    1       -0.842  -0.902   0.784  0.00  0.00    +0.072 A 
BRANCH  24  31
ATOM     30  C   LIG    1        0.730   2.368   0.224  0.00  0.00    +0.277 C 
ATOM     31  O   LIG    1        0.605   0.954   0.392  0.00  0.00    -0.493 OA
ENDBRANCH  24  31
ENDBRANCH  18  29
ENDBRANCH  17  21
ENDBRANCH   1  17
TORSDOF 7
