REMARK  Name = ZINC18045755
REMARK                            x       y       z     vdW  Elec       q    Type
REMARK                         _______ _______ _______ _____ _____    ______ ____
ROOT
ATOM      1  C   LIG    1        2.399  -4.117   0.173  0.00  0.00    +0.072 A 
ATOM      2  C   LIG    1        3.624  -4.915   0.177  0.00  0.00    +0.010 A 
ATOM      3  C   LIG    1        3.517  -6.324   0.269  0.00  0.00    +0.010 A 
ATOM      4  C   LIG    1        2.254  -6.920   0.353  0.00  0.00    +0.011 A 
ATOM      5  C   LIG    1        1.124  -6.157   0.346  0.00  0.00    +0.003 A 
ATOM      6  C   LIG    1        4.742  -7.122   0.274  0.00  0.00    +0.072 A 
ATOM      7  C   LIG    1        5.964  -6.466   0.187  0.00  0.00    +0.028 A 
ATOM      8  C   LIG    1        6.017  -5.082   0.099  0.00  0.00    +0.003 A 
ATOM      9  C   LIG    1        4.887  -4.319   0.092  0.00  0.00    +0.011 A 
ATOM     10  C   LIG    1        1.177  -4.773   0.264  0.00  0.00    +0.028 A 
ENDROOT
BRANCH   1  12
ATOM     11  C   LIG    1        1.702  -2.126  -0.775  0.00  0.00    +0.123 C 
ATOM     12  N   LIG    1        2.455  -2.757   0.086  0.00  0.00    -0.254 NA
BRANCH  11  17
ATOM     13  C   LIG    1        0.866   1.400  -1.736  0.00  0.00    +0.004 A 
ATOM     14  C   LIG    1        1.646   2.119  -0.846  0.00  0.00    +0.049 A 
ATOM     15  C   LIG    1        2.448   1.462   0.073  0.00  0.00    +0.159 A 
ATOM     16  C   LIG    1        2.473   0.072   0.104  0.00  0.00    +0.167 A 
ATOM     17  C   LIG    1        1.684  -0.657  -0.797  0.00  0.00    +0.038 A 
ATOM     18  C   LIG    1        0.879   0.023  -1.719  0.00  0.00    +0.013 A 
BRANCH  15  19
ATOM     19  O   LIG    1        3.210   2.175   0.944  0.00  0.00    -0.503 OA
ATOM     20  H   LIG    1        2.766   2.383   1.777  0.00  0.00    +0.292 HD
ENDBRANCH  15  19
BRANCH  16  21
ATOM     21  O   LIG    1        3.259  -0.577   1.003  0.00  0.00    -0.503 OA
ATOM     22  H   LIG    1        2.821  -0.763   1.845  0.00  0.00    +0.292 HD
ENDBRANCH  16  21
ENDBRANCH  11  17
ENDBRANCH   1  12
BRANCH   6  23
ATOM     23  N   LIG    1        4.686  -8.482   0.361  0.00  0.00    -0.254 NA
ATOM     24  C   LIG    1        5.435  -9.112   1.226  0.00  0.00    +0.123 C 
BRANCH  24  25
ATOM     25  C   LIG    1        5.312 -10.568   1.381  0.00  0.00    +0.038 A 
ATOM     26  C   LIG    1        4.396 -11.286   0.600  0.00  0.00    +0.167 A 
ATOM     27  C   LIG    1        4.289 -12.663   0.756  0.00  0.00    +0.159 A 
ATOM     28  C   LIG    1        5.084 -13.319   1.681  0.00  0.00    +0.049 A 
ATOM     29  C   LIG    1        5.990 -12.611   2.454  0.00  0.00    +0.004 A 
ATOM     30  C   LIG    1        6.113 -11.247   2.307  0.00  0.00    +0.013 A 
BRANCH  26  31
ATOM     31  O   LIG    1        3.617 -10.639  -0.306  0.00  0.00    -0.503 OA
ATOM     32  H   LIG    1        4.011 -10.570  -1.186  0.00  0.00    +0.292 HD
ENDBRANCH  26  31
BRANCH  27  33
ATOM     33  O   LIG    1        3.402 -13.366   0.002  0.00  0.00    -0.503 OA
ATOM     34  H   LIG    1        3.766 -13.688  -0.835  0.00  0.00    +0.292 HD
ENDBRANCH  27  33
ENDBRANCH  24  25
ENDBRANCH   6  23
TORSDOF 8
