REMARK  Name = ZINC29332899
REMARK                            x       y       z     vdW  Elec       q    Type
REMARK                         _______ _______ _______ _____ _____    ______ ____
ROOT
ATOM      1  C   LIG    1       -1.433  -0.534  -0.024  0.00  0.00    -0.011 C 
ATOM      2  C   LIG    1        0.002  -0.004   0.002  0.00  0.00    -0.049 C 
ATOM      3  C   LIG    1        0.750  -0.492  -1.242  0.00  0.00    +0.144 C 
ATOM      4  O   LIG    1        2.066   0.067  -1.251  0.00  0.00    -0.379 OA
ATOM      5  C   LIG    1        2.084   1.497  -1.244  0.00  0.00    +0.112 C 
ATOM      6  C   LIG    1        1.350   2.006  -0.000  0.00  0.00    -0.050 C 
ATOM      7  N   LIG    1       -0.018   1.466   0.010  0.00  0.00    +0.384 N 
ATOM      8  H   LIG    1       -0.533   1.821   0.915  0.00  0.00    -0.085 HD
ATOM      9  H   LIG    1       -0.550   1.830  -0.881  0.00  0.00    -0.085 HD
ENDROOT
BRANCH   5  10
ATOM     10  C   LIG    1        3.532   1.990  -1.220  0.00  0.00    +0.150 C 
BRANCH  10  11
ATOM     11  C   LIG    1        4.220   1.589  -2.500  0.00  0.00    +0.307 C 
ATOM     12  O   LIG    1        3.614   0.973  -3.344  0.00  0.00    -0.251 OA
BRANCH  11  13
ATOM     13  O   LIG    1        5.506   1.917  -2.702  0.00  0.00    -0.481 OA
ATOM     14  H   LIG    1        5.976   2.395  -2.047  0.00  0.00    +0.295 HD
ENDBRANCH  11  13
ENDBRANCH  10  11
ENDBRANCH   5  10
TORSDOF 3
