REMARK  Name = ZINC17949002
REMARK                            x       y       z     vdW  Elec       q    Type
REMARK                         _______ _______ _______ _____ _____    ______ ____
ROOT
ATOM      1  C   LIG    1        3.693  -0.682  -0.037  0.00  0.00    +0.140 C 
ATOM      2  N   LIG    1        3.714  -1.980  -0.045  0.00  0.00    -0.180 NA
ENDROOT
BRANCH   1   6
ATOM      3  C   LIG    1       -0.017   1.379   0.010  0.00  0.00    +0.000 A 
ATOM      4  C   LIG    1        1.168   2.094   0.002  0.00  0.00    +0.001 A 
ATOM      5  C   LIG    1        2.377   1.431  -0.013  0.00  0.00    +0.009 A 
ATOM      6  C   LIG    1        2.404   0.034  -0.021  0.00  0.00    -0.005 A 
ATOM      7  C   LIG    1        1.204  -0.681  -0.013  0.00  0.00    +0.009 A 
ATOM      8  C   LIG    1        0.002  -0.004   0.002  0.00  0.00    +0.001 A 
ENDBRANCH   1   6
BRANCH   2   9
ATOM      9  N   LIG    1        4.939  -2.660  -0.060  0.00  0.00    -0.259 N 
ATOM     10  H   LIG    1        5.771  -2.162  -0.066  0.00  0.00    +0.191 HD
ATOM     11  C   LIG    1        4.961  -4.028  -0.068  0.00  0.00    +0.142 C 
BRANCH  11  12
ATOM     12  N   LIG    1        6.156  -4.692  -0.084  0.00  0.00    -0.338 N 
ATOM     13  H   LIG    1        6.172  -5.662  -0.089  0.00  0.00    +0.144 HD
ATOM     14  H   LIG    1        6.988  -4.193  -0.089  0.00  0.00    +0.144 HD
ENDBRANCH  11  12
BRANCH  11  15
ATOM     15  S   LIG    1        3.537  -4.881  -0.059  0.00  0.00    -0.109 S 
ATOM     16  H   LIG    1        2.489  -4.014  -0.043  0.00  0.00    +0.110 HD
ENDBRANCH  11  15
ENDBRANCH   2   9
TORSDOF 4
