REMARK  Name = ZINC29206920
REMARK                            x       y       z     vdW  Elec       q    Type
REMARK                         _______ _______ _______ _____ _____    ______ ____
ROOT
ATOM      1  C   UNK A  5       -0.784   0.474  -0.504  0.00  0.00    +0.025 C 
ATOM      2  C   UNK A  5       -0.223  -0.908  -0.168  0.00  0.00    +0.048 C 
ATOM      3  C   UNK A  5        0.576  -1.438  -1.361  0.00  0.00    +0.025 C 
ATOM      4  C   UNK A  2       -1.375  -1.866   0.140  0.00  0.00    +0.175 C 
ATOM      5  C   UNK A  2       -0.919  -3.287  -0.071  0.00  0.00    +0.235 C 
ATOM      6  N   GLY A  3       -1.837  -4.292   0.010  0.00  0.00    -0.305 N 
ATOM      7  H   GLY A  3       -2.774  -4.122   0.198  0.00  0.00    +0.149 HD
ATOM      8  CA  GLY A  3       -1.314  -5.659  -0.205  0.00  0.00    +0.200 C 
ATOM      9  C   GLY A  3       -0.287  -5.955   0.857  0.00  0.00    +0.231 C 
ATOM     10  N   PHE A  4        0.945  -6.413   0.464  0.00  0.00    -0.302 N 
ATOM     11  H   PHE A  4        1.183  -6.559  -0.465  0.00  0.00    +0.150 HD
ATOM     12  CA  PHE A  4        1.882  -6.665   1.589  0.00  0.00    +0.163 C 
ATOM     13  C   PHE A  4        3.014  -5.674   1.496  0.00  0.00    +0.234 C 
ATOM     14  N   UNK A  5        2.833  -4.419   2.000  0.00  0.00    -0.300 N 
ATOM     15  H   UNK A  5        2.001  -4.144   2.415  0.00  0.00    +0.150 HD
ATOM     16  C   UNK A  5        3.988  -3.503   1.872  0.00  0.00    +0.198 C 
ATOM     17  C   UNK A  5        3.504  -2.069   2.098  0.00  0.00    +0.050 C 
ATOM     18  C   UNK A  5        4.702  -1.170   2.412  0.00  0.00    +0.025 C 
ATOM     19  C   UNK A  5        2.524  -2.041   3.272  0.00  0.00    +0.025 C 
ATOM     20  S   UNK A  5        2.674  -1.468   0.602  0.00  0.00    -0.084 S 
ATOM     21  O   PHE A  4        4.066  -5.986   0.980  0.00  0.00    -0.274 OA
ATOM     22  O   GLY A  3       -0.543  -5.792   2.032  0.00  0.00    -0.274 OA
ATOM     23  O   UNK A  2        0.245  -3.532  -0.309  0.00  0.00    -0.274 OA
ATOM     24  S   UNK A  5        0.864  -0.784   1.280  0.00  0.00    -0.084 S 
ENDROOT
BRANCH   4  25
ATOM     25  N   UNK A  2       -2.502  -1.577  -0.751  0.00  0.00    -0.304 N 
ATOM     26  H   UNK A  2       -2.344  -1.154  -1.610  0.00  0.00    +0.149 HD
ATOM     27  C   TYR A  1       -3.756  -1.899  -0.378  0.00  0.00    +0.199 C 
ATOM     28  O   TYR A  1       -3.953  -2.428   0.695  0.00  0.00    -0.278 OA
BRANCH  27  29
ATOM     29  CA  TYR A  1       -4.914  -1.602  -1.295  0.00  0.00    +0.017 C 
BRANCH  29  30
ATOM     30  N   TYR A  1       -6.062  -2.439  -0.921  0.00  0.00    +0.386 N 
ATOM     31  H1  TYR A  1       -6.328  -2.239   0.032  0.00  0.00    -0.089 HD
ATOM     32  H2  TYR A  1       -5.810  -3.413  -1.003  0.00  0.00    -0.089 HD
ATOM     33  H3  TYR A  1       -6.838  -2.240  -1.535  0.00  0.00    -0.089 HD
ENDBRANCH  29  30
BRANCH  29  34
ATOM     34  CB  TYR A  1       -5.298  -0.126  -1.171  0.00  0.00    +0.028 C 
BRANCH  34  35
ATOM     35  CG  TYR A  1       -6.373   0.200  -2.175  0.00  0.00    -0.048 A 
ATOM     36  CD2 TYR A  1       -6.026   0.629  -3.443  0.00  0.00    +0.007 A 
ATOM     37  CE2 TYR A  1       -7.010   0.929  -4.365  0.00  0.00    +0.045 A 
ATOM     38  CZ  TYR A  1       -8.347   0.799  -4.019  0.00  0.00    +0.117 A 
ATOM     39  CE1 TYR A  1       -8.692   0.367  -2.746  0.00  0.00    +0.045 A 
ATOM     40  CD1 TYR A  1       -7.705   0.064  -1.829  0.00  0.00    +0.007 A 
BRANCH  38  41
ATOM     41  OH  TYR A  1       -9.316   1.094  -4.924  0.00  0.00    -0.507 OA
ATOM     42  HH  TYR A  1       -9.588   0.342  -5.468  0.00  0.00    +0.292 HD
ENDBRANCH  38  41
ENDBRANCH  34  35
ENDBRANCH  29  34
ENDBRANCH  27  29
ENDBRANCH   4  25
BRANCH  16  43
ATOM     43  C   UNK A  5        4.582  -3.628   0.493  0.00  0.00    +0.327 C 
ATOM     44  O   UNK A  5        3.995  -4.260  -0.369  0.00  0.00    -0.249 OA
BRANCH  43  45
ATOM     45  O   UNK A  5        5.650  -3.097   0.238  0.00  0.00    -0.479 OA
ATOM     46  H   UNK A  5        6.101  -2.611   0.900  0.00  0.00    +0.295 HD
ENDBRANCH  43  45
ENDBRANCH  16  43
BRANCH  12  47
ATOM     47  CB  PHE A  4        2.434  -8.089   1.491  0.00  0.00    +0.067 C 
BRANCH  47  48
ATOM     48  CG  PHE A  4        1.312  -9.077   1.681  0.00  0.00    -0.045 A 
ATOM     49  CD2 PHE A  4        0.996  -9.528   2.949  0.00  0.00    +0.004 A 
ATOM     50  CE2 PHE A  4       -0.033 -10.434   3.124  0.00  0.00    +0.000 A 
ATOM     51  CZ  PHE A  4       -0.747 -10.888   2.030  0.00  0.00    +0.000 A 
ATOM     52  CE1 PHE A  4       -0.432 -10.436   0.763  0.00  0.00    +0.000 A 
ATOM     53  CD1 PHE A  4        0.595  -9.527   0.589  0.00  0.00    +0.004 A 
ENDBRANCH  47  48
ENDBRANCH  12  47
TORSDOF 10
