REMARK  Name = ZINC34929023
REMARK                            x       y       z     vdW  Elec       q    Type
REMARK                         _______ _______ _______ _____ _____    ______ ____
ROOT
ATOM      1  C   LIG    1        1.516  -2.381   2.500  0.00  0.00    +0.168 C 
ATOM      2  C   LIG    1        3.032  -2.322   2.266  0.00  0.00    +0.067 C 
ATOM      3  C   LIG    1        3.701  -3.141   3.342  0.00  0.00    -0.016 A 
ATOM      4  C   LIG    1        5.088  -3.158   3.751  0.00  0.00    +0.003 A 
ATOM      5  C   LIG    1        6.217  -2.460   3.312  0.00  0.00    +0.010 A 
ATOM      6  C   LIG    1        7.403  -2.735   3.946  0.00  0.00    +0.001 A 
ATOM      7  C   LIG    1        7.490  -3.659   4.975  0.00  0.00    +0.002 A 
ATOM      8  C   LIG    1        6.389  -4.364   5.429  0.00  0.00    +0.026 A 
ATOM      9  C   LIG    1        5.171  -4.105   4.804  0.00  0.00    +0.047 A 
ATOM     10  N   LIG    1        3.917  -4.610   4.999  0.00  0.00    -0.357 N 
ATOM     11  H   LIG    1        3.682  -5.279   5.661  0.00  0.00    +0.166 HD
ATOM     12  C   LIG    1        3.043  -4.029   4.121  0.00  0.00    +0.034 A 
ATOM     13  C   LIG    1        1.562  -4.298   3.993  0.00  0.00    +0.135 C 
ATOM     14  N   LIG    1        1.104  -3.778   2.694  0.00  0.00    -0.298 NA
ATOM     15  H   LIG    1        0.105  -3.877   2.597  0.00  0.00    +0.123 HD
ENDROOT
BRANCH   1  16
ATOM     16  C   LIG    1        0.801  -1.808   1.304  0.00  0.00    +0.325 C 
ATOM     17  O   LIG    1        0.324  -2.546   0.475  0.00  0.00    -0.249 OA
BRANCH  16  18
ATOM     18  O   LIG    1        0.693  -0.477   1.160  0.00  0.00    -0.464 OA
BRANCH  18  20
ATOM     19  C   LIG    1       -0.019   1.526   0.010  0.00  0.00    +0.048 C 
ATOM     20  C   LIG    1        0.002  -0.004   0.002  0.00  0.00    +0.229 C 
ENDBRANCH  18  20
ENDBRANCH  16  18
ENDBRANCH   1  16
TORSDOF 3
