REMARK  Name = ZINC00006647
REMARK                            x       y       z     vdW  Elec       q    Type
REMARK                         _______ _______ _______ _____ _____    ______ ____
ROOT
ATOM      1  C   LIG    1       -1.366   3.506   0.113  0.00  0.00    +0.260 A 
ATOM      2  C   LIG    1       -1.311   2.121  -0.002  0.00  0.00    +0.146 A 
ATOM      3  N   LIG    1       -2.460   1.488  -0.111  0.00  0.00    -0.187 NA
ATOM      4  S   LIG    1       -3.561   2.613  -0.075  0.00  0.00    +0.119 S 
ATOM      5  N   LIG    1       -2.586   4.002   0.086  0.00  0.00    -0.154 NA
ENDROOT
BRANCH   2   6
ATOM      6  C   LIG    1       -0.020   1.391   0.004  0.00  0.00    +0.043 A 
ATOM      7  C   LIG    1        0.962   1.698  -0.938  0.00  0.00    +0.052 A 
ATOM      8 CL   LIG    1        0.678   2.940  -2.117  0.00  0.00    -0.083 Cl
ATOM      9  C   LIG    1        2.160   1.010  -0.931  0.00  0.00    +0.021 A 
ATOM     10  C   LIG    1        2.387   0.020   0.007  0.00  0.00    +0.003 A 
ATOM     11  C   LIG    1        1.418  -0.288   0.944  0.00  0.00    +0.021 A 
ATOM     12  C   LIG    1        0.215   0.391   0.947  0.00  0.00    +0.052 A 
ATOM     13 CL   LIG    1       -1.000   0.003   2.124  0.00  0.00    -0.083 Cl
ENDBRANCH   2   6
BRANCH   1  14
ATOM     14  O   LIG    1       -0.256   4.280   0.238  0.00  0.00    -0.390 OA
BRANCH  14  16
ATOM     15  N   LIG    1        0.604   6.436   0.477  0.00  0.00    -0.270 N 
ATOM     16  C   LIG    1       -0.449   5.596   0.453  0.00  0.00    +0.409 C 
ATOM     17  O   LIG    1       -1.573   6.024   0.625  0.00  0.00    -0.226 OA
ATOM     18  C   LIG    1        1.967   5.907   0.379  0.00  0.00    +0.135 C 
BRANCH  15  20
ATOM     19  C   LIG    1        0.370   8.268   2.080  0.00  0.00    +0.024 C 
ATOM     20  C   LIG    1        0.387   7.880   0.600  0.00  0.00    +0.107 C 
ENDBRANCH  15  20
ENDBRANCH  14  16
ENDBRANCH   1  14
TORSDOF 4
