REMARK  Name = ZINC22011868
REMARK                            x       y       z     vdW  Elec       q    Type
REMARK                         _______ _______ _______ _____ _____    ______ ____
ROOT
ATOM      1  C   LIG    1        5.418  -0.538  -1.490  0.00  0.00    +0.272 C 
ENDROOT
BRANCH   1   2
ATOM      2  P   LIG    1        7.198  -0.146  -1.504  0.00  0.00    +0.371 P 
ATOM      3  O   LIG    1        7.423   1.250  -0.884  0.00  0.00    -0.255 OA
BRANCH   2   4
ATOM      4  O   LIG    1        7.736  -0.152  -3.022  0.00  0.00    -0.322 OA
ATOM      5  H   LIG    1        8.678   0.049  -3.106  0.00  0.00    +0.220 HD
ENDBRANCH   2   4
BRANCH   2   6
ATOM      6  O   LIG    1        7.965  -1.205  -0.682  0.00  0.00    -0.322 OA
ATOM      7  H   LIG    1        7.641  -1.202   0.232  0.00  0.00    +0.220 HD
ENDBRANCH   2   6
ENDBRANCH   1   2
BRANCH   1   8
ATOM      8  P   LIG    1        4.512   0.712  -2.460  0.00  0.00    +0.371 P 
ATOM      9  O   LIG    1        5.029   0.706  -3.916  0.00  0.00    -0.255 OA
BRANCH   8  10
ATOM     10  O   LIG    1        4.738   2.109  -1.839  0.00  0.00    -0.322 OA
ATOM     11  H   LIG    1        5.685   2.317  -1.847  0.00  0.00    +0.220 HD
ENDBRANCH   8  10
BRANCH   8  12
ATOM     12  O   LIG    1        2.940   0.366  -2.447  0.00  0.00    -0.322 OA
ATOM     13  H   LIG    1        2.396   0.991  -2.945  0.00  0.00    +0.220 HD
ENDBRANCH   8  12
ENDBRANCH   1   8
BRANCH   1  14
ATOM     14  O   LIG    1        5.209  -1.830  -2.064  0.00  0.00    -0.367 OA
ATOM     15  H   LIG    1        5.663  -2.545  -1.598  0.00  0.00    +0.212 HD
ENDBRANCH   1  14
BRANCH   1  16
ATOM     16  C   LIG    1        4.906  -0.532  -0.048  0.00  0.00    +0.115 C 
BRANCH  16  25
ATOM     17  C   LIG    1       -0.016   1.356   0.009  0.00  0.00    +0.005 A 
ATOM     18  C   LIG    1        1.194   2.068   0.002  0.00  0.00    +0.018 A 
ATOM     19  C   LIG    1        2.372   1.409  -0.013  0.00  0.00    +0.093 A 
ATOM     20  N   LIG    1        2.405   0.045  -0.021  0.00  0.00    -0.305 N 
ATOM     21  C   LIG    1        1.240  -0.678  -0.013  0.00  0.00    +0.115 A 
ATOM     22  N   LIG    1        1.556  -1.965  -0.023  0.00  0.00    -0.346 N 
ATOM     23  H   LIG    1        0.922  -2.699  -0.021  0.00  0.00    +0.167 HD
ATOM     24  C   LIG    1        2.885  -2.090  -0.037  0.00  0.00    +0.106 A 
ATOM     25  C   LIG    1        3.434  -0.856  -0.035  0.00  0.00    +0.045 A 
ATOM     26  C   LIG    1        0.002  -0.004   0.002  0.00  0.00    +0.045 A 
ENDBRANCH  16  25
ENDBRANCH   1  16
TORSDOF 9
