REMARK  Name = ZINC18142105
REMARK                            x       y       z     vdW  Elec       q    Type
REMARK                         _______ _______ _______ _____ _____    ______ ____
ROOT
ATOM      1  N   LIG    1        5.554  -3.073   1.244  0.00  0.00    -0.288 NA
ATOM      2  C   LIG    1        5.128  -2.324   2.434  0.00  0.00    +0.104 C 
ATOM      3  C   LIG    1        5.703  -2.992   3.687  0.00  0.00    +0.120 C 
ATOM      4  N   LIG    1        5.321  -4.412   3.677  0.00  0.00    -0.327 N 
ATOM      5  C   LIG    1        5.592  -5.197   2.462  0.00  0.00    +0.120 C 
ATOM      6  C   LIG    1        5.021  -4.442   1.258  0.00  0.00    +0.104 C 
ENDROOT
BRANCH   1  10
ATOM      7  N   LIG    1        3.644  -0.611  -0.005  0.00  0.00    -0.209 N 
ATOM      8  C   LIG    1        4.829   0.004  -0.109  0.00  0.00    +0.228 C 
ATOM      9  C   LIG    1        5.930  -1.034  -0.110  0.00  0.00    +0.125 C 
ATOM     10  C   LIG    1        5.168  -2.369   0.014  0.00  0.00    +0.153 C 
ATOM     11  O   LIG    1        4.993   1.202  -0.190  0.00  0.00    -0.275 OA
ATOM     12  C   LIG    1        3.717  -1.946   0.077  0.00  0.00    +0.244 C 
ATOM     13  O   LIG    1        2.770  -2.696   0.182  0.00  0.00    -0.273 OA
BRANCH   7  17
ATOM     14  C   LIG    1        0.027   1.460   0.077  0.00  0.00    +0.000 A 
ATOM     15  C   LIG    1        0.936   1.619   1.106  0.00  0.00    +0.002 A 
ATOM     16  C   LIG    1        2.136   0.934   1.082  0.00  0.00    +0.024 A 
ATOM     17  C   LIG    1        2.427   0.085   0.023  0.00  0.00    +0.044 A 
ATOM     18  C   LIG    1        1.512  -0.072  -1.009  0.00  0.00    +0.024 A 
ATOM     19  C   LIG    1        0.315   0.616  -0.980  0.00  0.00    +0.002 A 
ENDBRANCH   7  17
ENDBRANCH   1  10
BRANCH   4  20
ATOM     20  C   LIG    1        4.717  -5.000   4.790  0.00  0.00    +0.030 A 
ATOM     21  C   LIG    1        4.477  -6.369   4.811  0.00  0.00    +0.023 A 
ATOM     22  C   LIG    1        3.880  -6.947   5.914  0.00  0.00    +0.002 A 
ATOM     23  C   LIG    1        3.521  -6.166   6.997  0.00  0.00    +0.012 A 
ATOM     24  C   LIG    1        3.757  -4.804   6.979  0.00  0.00    +0.057 A 
ATOM     25  C   LIG    1        4.359  -4.220   5.882  0.00  0.00    +0.035 A 
BRANCH  24  26
ATOM     26  C   LIG    1        3.363  -3.956   8.161  0.00  0.00    +0.417 C 
ATOM     27  F   LIG    1        2.442  -2.985   7.752  0.00  0.00    -0.166 F 
ATOM     28  F   LIG    1        4.498  -3.330   8.686  0.00  0.00    -0.166 F 
ATOM     29  F   LIG    1        2.781  -4.766   9.142  0.00  0.00    -0.166 F 
ENDBRANCH  24  26
ENDBRANCH   4  20
TORSDOF 4
