REMARK  Name = ZINC35931798
REMARK                            x       y       z     vdW  Elec       q    Type
REMARK                         _______ _______ _______ _____ _____    ______ ____
ROOT
ATOM      1  C   LIG    1        0.617  -0.603  -1.133  0.00  0.00    +0.143 C 
ENDROOT
BRANCH   1   2
ATOM      2  C   LIG    1        2.061  -0.176  -1.077  0.00  0.00    +0.233 C 
ATOM      3  N   LIG    1        3.039  -1.102  -1.131  0.00  0.00    -0.300 N 
ATOM      4  C   LIG    1        2.841  -2.558  -1.159  0.00  0.00    +0.108 C 
ATOM      5  C   LIG    1        4.239  -3.211  -1.194  0.00  0.00    +0.020 C 
ATOM      6  C   LIG    1        5.155  -2.101  -0.614  0.00  0.00    +0.020 C 
ATOM      7  C   LIG    1        4.486  -0.821  -1.179  0.00  0.00    +0.108 C 
ATOM      8  O   LIG    1        2.343   1.000  -0.983  0.00  0.00    -0.274 OA
ENDBRANCH   1   2
BRANCH   1  10
ATOM      9  C   LIG    1       -0.013   0.714   0.895  0.00  0.00    +0.012 C 
ATOM     10  C   LIG    1        0.055  -0.689   0.287  0.00  0.00    -0.014 C 
ATOM     11  C   LIG    1       -1.350  -1.294   0.244  0.00  0.00    +0.012 C 
ATOM     12  C   LIG    1        0.965  -1.572   1.143  0.00  0.00    +0.012 C 
ENDBRANCH   1  10
BRANCH   1  13
ATOM     13  N   LIG    1       -0.155   0.380  -1.906  0.00  0.00    -0.320 NA
ATOM     14  H   LIG    1        0.155   0.409  -2.866  0.00  0.00    +0.119 HD
ATOM     15  H   LIG    1       -0.103   1.294  -1.482  0.00  0.00    +0.119 HD
ENDBRANCH   1  13
TORSDOF 3
