REMARK  Name = ZINC14974583
REMARK                            x       y       z     vdW  Elec       q    Type
REMARK                         _______ _______ _______ _____ _____    ______ ____
ROOT
ATOM      1  N   LIG    1        1.418  -3.019  -2.925  0.00  0.00    -0.309 N 
ATOM      2  C   LIG    1        2.066  -2.158  -3.761  0.00  0.00    +0.202 A 
ATOM      3  N   LIG    1        3.278  -2.577  -3.980  0.00  0.00    -0.231 NA
ATOM      4  C   LIG    1        3.487  -3.732  -3.301  0.00  0.00    +0.145 A 
ATOM      5  C   LIG    1        4.567  -4.608  -3.163  0.00  0.00    +0.162 A 
ATOM      6 CL   LIG    1        6.066  -4.300  -3.982  0.00  0.00    -0.060 Cl
ATOM      7  N   LIG    1        4.429  -5.669  -2.385  0.00  0.00    -0.201 NA
ATOM      8  C   LIG    1        3.289  -5.915  -1.752  0.00  0.00    +0.216 A 
ATOM      9  N   LIG    1        2.238  -5.116  -1.856  0.00  0.00    -0.195 NA
ATOM     10  C   LIG    1        2.295  -4.026  -2.610  0.00  0.00    +0.167 A 
ENDROOT
BRANCH   8  11
ATOM     11  N   LIG    1        3.194  -7.045  -0.956  0.00  0.00    -0.327 N 
ATOM     12  H   LIG    1        3.954  -7.641  -0.868  0.00  0.00    +0.145 HD
ATOM     13  H   LIG    1        2.368  -7.240  -0.487  0.00  0.00    +0.145 HD
ENDBRANCH   8  11
BRANCH   1  14
ATOM     14  C   LIG    1        0.040  -2.890  -2.446  0.00  0.00    +0.180 C 
BRANCH  14  19
ATOM     15  C   LIG    1        0.052  -0.829   2.908  0.00  0.00    +0.049 C 
ATOM     16  C   LIG    1        0.050  -1.333   1.488  0.00  0.00    +0.010 A 
ATOM     17  C   LIG    1        0.029  -2.688   1.226  0.00  0.00    +0.118 A 
ATOM     18  N   LIG    1        0.027  -3.137  -0.014  0.00  0.00    -0.257 NA
ATOM     19  C   LIG    1        0.044  -2.321  -1.051  0.00  0.00    +0.067 A 
ATOM     20  C   LIG    1        0.060  -0.953  -0.873  0.00  0.00    +0.014 A 
ATOM     21  C   LIG    1        0.073  -0.028  -2.063  0.00  0.00    +0.049 C 
ATOM     22  C   LIG    1        0.069  -0.438   0.421  0.00  0.00    +0.129 A 
BRANCH  22  23
ATOM     23  O   LIG    1        0.089   0.902   0.637  0.00  0.00    -0.494 OA
ATOM     24  C   LIG    1        1.372   1.522   0.746  0.00  0.00    +0.277 C 
ENDBRANCH  22  23
ENDBRANCH  14  19
ENDBRANCH   1  14
TORSDOF 4
