REMARK  Name = ZINC58638704
REMARK                            x       y       z     vdW  Elec       q    Type
REMARK                         _______ _______ _______ _____ _____    ______ ____
ROOT
ATOM      1  C   LIG    1       -1.842  -3.990  -1.323  0.00  0.00    +0.131 A 
ATOM      2  C   LIG    1       -2.503  -4.606  -2.413  0.00  0.00    +0.044 A 
ATOM      3  C   LIG    1       -3.474  -3.933  -3.164  0.00  0.00    +0.062 A 
ATOM      4  C   LIG    1       -4.084  -4.570  -4.207  0.00  0.00    +0.162 A 
ATOM      5  C   LIG    1       -3.750  -5.891  -4.535  0.00  0.00    +0.164 A 
ATOM      6  C   LIG    1       -2.798  -6.576  -3.812  0.00  0.00    +0.078 A 
ATOM      7  C   LIG    1       -2.159  -5.942  -2.738  0.00  0.00    +0.080 A 
ATOM      8  N   LIG    1       -1.226  -6.566  -2.005  0.00  0.00    -0.227 NA
ATOM      9  C   LIG    1       -0.640  -5.944  -0.999  0.00  0.00    +0.166 A 
ATOM     10  N   LIG    1       -0.930  -4.688  -0.663  0.00  0.00    -0.212 NA
ENDROOT
BRANCH   9  11
ATOM     11  C   LIG    1        0.385  -6.671  -0.215  0.00  0.00    +0.063 A 
ATOM     12  C   LIG    1        1.020  -6.045   0.858  0.00  0.00    +0.053 A 
ATOM     13  C   LIG    1        1.975  -6.728   1.586  0.00  0.00    +0.124 A 
ATOM     14  F   LIG    1        2.590  -6.122   2.625  0.00  0.00    -0.205 F 
ATOM     15  C   LIG    1        2.306  -8.032   1.253  0.00  0.00    +0.042 A 
ATOM     16  C   LIG    1        1.683  -8.659   0.191  0.00  0.00    +0.049 A 
ATOM     17  C   LIG    1        0.718  -7.989  -0.544  0.00  0.00    +0.128 A 
BRANCH  17  18
ATOM     18  O   LIG    1        0.101  -8.607  -1.584  0.00  0.00    -0.506 OA
ATOM     19  H   LIG    1        0.550  -8.492  -2.432  0.00  0.00    +0.292 HD
ENDBRANCH  17  18
ENDBRANCH   9  11
BRANCH   1  20
ATOM     20  N   LIG    1       -2.136  -2.691  -0.960  0.00  0.00    -0.327 N 
ATOM     21  H   LIG    1       -2.806  -2.191  -1.452  0.00  0.00    +0.148 HD
BRANCH  20  28
ATOM     22  C   LIG    1       -1.433  -0.534   0.013  0.00  0.00    +0.021 C 
ATOM     23  C   LIG    1       -2.191  -0.003   1.248  0.00  0.00    -0.075 C 
ATOM     24  N   LIG    1       -3.053  -1.136   1.675  0.00  0.00    +0.381 N 
ATOM     25  H   LIG    1       -3.874  -1.193   1.092  0.00  0.00    -0.086 HD
ATOM     26  H   LIG    1       -3.312  -1.036   2.645  0.00  0.00    -0.086 HD
ATOM     27  C   LIG    1       -2.197  -2.335   1.486  0.00  0.00    -0.060 C 
ATOM     28  C   LIG    1       -1.437  -2.069   0.167  0.00  0.00    +0.059 C 
BRANCH  22  30
ATOM     29  C   LIG    1       -0.019   1.526   0.010  0.00  0.00    +0.041 C 
ATOM     30  C   LIG    1        0.002  -0.004   0.002  0.00  0.00    +0.063 C 
ATOM     31  C   LIG    1        0.742  -0.511   1.242  0.00  0.00    +0.041 C 
BRANCH  30  32
ATOM     32  O   LIG    1        0.671  -0.465  -1.174  0.00  0.00    -0.389 OA
ATOM     33  H   LIG    1        0.256  -0.181  -1.999  0.00  0.00    +0.210 HD
ENDBRANCH  30  32
ENDBRANCH  22  30
ENDBRANCH  20  28
ENDBRANCH   1  20
BRANCH   4  34
ATOM     34  O   LIG    1       -5.027  -3.914  -4.935  0.00  0.00    -0.491 OA
ATOM     35  C   LIG    1       -5.324  -2.570  -4.552  0.00  0.00    +0.277 C 
ENDBRANCH   4  34
BRANCH   5  36
ATOM     36  O   LIG    1       -4.372  -6.503  -5.577  0.00  0.00    -0.491 OA
ATOM     37  C   LIG    1       -3.987  -7.850  -5.861  0.00  0.00    +0.277 C 
ENDBRANCH   5  36
TORSDOF 8
