REMARK  Name = ZINC26572318
REMARK                            x       y       z     vdW  Elec       q    Type
REMARK                         _______ _______ _______ _____ _____    ______ ____
ROOT
ATOM      1  C   LIG    1        2.389   1.079  -0.015  0.00  0.00    +0.193 C 
ATOM      2  O   LIG    1        2.406  -0.141  -0.022  0.00  0.00    -0.287 OA
ENDROOT
BRANCH   1   3
ATOM      3  C   LIG    1        3.650   1.829  -0.023  0.00  0.00    +0.060 A 
ATOM      4  C   LIG    1        4.952   1.351  -0.032  0.00  0.00    +0.021 A 
ATOM      5  C   LIG    1        5.959   2.283  -0.042  0.00  0.00    +0.028 A 
ATOM      6  C   LIG    1        5.640   3.606  -0.032  0.00  0.00    +0.079 A 
ATOM      7 CL   LIG    1        6.710   4.973  -0.034  0.00  0.00    -0.076 Cl
ATOM      8  S   LIG    1        3.907   3.595  -0.015  0.00  0.00    -0.074 S 
ENDBRANCH   1   3
BRANCH   1  10
ATOM      9  C   LIG    1       -0.013   1.076   0.008  0.00  0.00    +0.050 C 
ATOM     10  C   LIG    1        1.153   1.770   0.001  0.00  0.00    +0.055 C 
BRANCH   9  13
ATOM     11  C   LIG    1       -3.426   2.246   0.031  0.00  0.00    +0.042 A 
ATOM     12  C   LIG    1       -2.502   1.191   0.015  0.00  0.00    +0.049 A 
ATOM     13  C   LIG    1       -1.248   1.767   0.018  0.00  0.00    +0.128 A 
ATOM     14  O   LIG    1       -1.410   3.107   0.025  0.00  0.00    -0.464 OA
ATOM     15  C   LIG    1       -2.718   3.398   0.033  0.00  0.00    +0.195 A 
ENDBRANCH   9  13
ENDBRANCH   1  10
TORSDOF 3
