REMARK  Name = ZINC00057206
REMARK                            x       y       z     vdW  Elec       q    Type
REMARK                         _______ _______ _______ _____ _____    ______ ____
ROOT
ATOM      1  C   LIG    1       -1.057   1.777   0.255  0.00  0.00    -0.006 C 
ATOM      2  C   LIG    1       -0.625   0.310   0.205  0.00  0.00    -0.001 C 
ENDROOT
BRANCH   2   3
ATOM      3  N   LIG    1       -1.811  -0.552   0.275  0.00  0.00    +0.389 N 
ATOM      4  H   LIG    1       -2.284  -0.546  -0.617  0.00  0.00    -0.084 HD
ATOM      5  H   LIG    1       -2.436  -0.209   0.989  0.00  0.00    -0.084 HD
BRANCH   3   6
ATOM      6  C   LIG    1       -1.401  -1.925   0.601  0.00  0.00    -0.076 C 
ATOM      7  C   LIG    1       -0.552  -2.488  -0.541  0.00  0.00    -0.011 C 
ATOM      8  C   LIG    1       -2.643  -2.797   0.791  0.00  0.00    -0.011 C 
ATOM      9  C   LIG    1       -0.580  -1.918   1.892  0.00  0.00    -0.011 C 
ENDBRANCH   3   6
ENDBRANCH   2   3
BRANCH   2  10
ATOM     10  C   LIG    1        0.113   0.048  -1.082  0.00  0.00    +0.149 C 
ATOM     11  O   LIG    1       -0.485  -0.374  -2.049  0.00  0.00    -0.294 OA
BRANCH  10  12
ATOM     12  C   LIG    1        1.560   0.302  -1.166  0.00  0.00    +0.017 A 
ATOM     13  C   LIG    1        2.255   0.783  -0.052  0.00  0.00    +0.011 A 
ATOM     14  C   LIG    1        3.611   1.020  -0.138  0.00  0.00    +0.002 A 
ATOM     15  C   LIG    1        4.285   0.783  -1.323  0.00  0.00    +0.020 A 
ATOM     16  C   LIG    1        3.604   0.307  -2.432  0.00  0.00    +0.042 A 
ATOM     17 CL   LIG    1        4.460   0.014  -3.913  0.00  0.00    -0.084 Cl
ATOM     18  C   LIG    1        2.248   0.060  -2.359  0.00  0.00    +0.031 A 
ENDBRANCH  10  12
ENDBRANCH   2  10
TORSDOF 4
