REMARK  Name = ZINC40953327
REMARK                            x       y       z     vdW  Elec       q    Type
REMARK                         _______ _______ _______ _____ _____    ______ ____
ROOT
ATOM      1  C   LIG    1       -0.018   1.503   0.010  0.00  0.00    +0.044 C 
ATOM      2  C   LIG    1        0.002  -0.004   0.002  0.00  0.00    -0.050 A 
ATOM      3  C   LIG    1        0.006  -0.686  -1.207  0.00  0.00    +0.005 A 
ATOM      4  C   LIG    1        0.024  -2.063  -1.237  0.00  0.00    +0.026 A 
ATOM      5  C   LIG    1        0.039  -2.782  -0.045  0.00  0.00    +0.049 A 
ATOM      6  C   LIG    1        0.036  -2.087   1.179  0.00  0.00    +0.002 A 
ATOM      7  C   LIG    1        0.052  -2.840   2.435  0.00  0.00    +0.061 A 
ATOM      8  C   LIG    1        0.070  -4.197   2.382  0.00  0.00    +0.182 A 
ATOM      9  C   LIG    1        0.072  -4.869   1.084  0.00  0.00    +0.291 A 
ATOM     10  O   LIG    1        0.088  -6.086   1.037  0.00  0.00    -0.264 OA
ATOM     11  N   LIG    1        0.057  -4.161  -0.060  0.00  0.00    -0.319 N 
ATOM     12  H   LIG    1        0.059  -4.628  -0.910  0.00  0.00    +0.169 HD
ATOM     13  C   LIG    1        0.023  -0.688   1.184  0.00  0.00    +0.013 A 
ENDROOT
BRANCH   8  14
ATOM     14  O   LIG    1        0.086  -4.927   3.529  0.00  0.00    -0.502 OA
ATOM     15  H   LIG    1        0.084  -4.493   4.360  0.00  0.00    +0.292 HD
ENDBRANCH   8  14
TORSDOF 1
