REMARK  Name = ZINC27079413
REMARK                            x       y       z     vdW  Elec       q    Type
REMARK                         _______ _______ _______ _____ _____    ______ ____
ROOT
ATOM      1  C   LIG    1       -0.391  -2.791  -0.499  0.00  0.00    +0.113 C 
ENDROOT
BRANCH   1   2
ATOM      2  C   LIG    1       -1.361  -1.641  -0.579  0.00  0.00    +0.220 C 
ATOM      3  N   LIG    1       -1.221  -0.583   0.244  0.00  0.00    -0.303 N 
ATOM      4  H   LIG    1       -0.342  -0.510   0.902  0.00  0.00    +0.149 HD
ATOM      5  O   LIG    1       -2.268  -1.668  -1.383  0.00  0.00    -0.275 OA
BRANCH   3   6
ATOM      6  C   LIG    1       -2.238   0.471   0.261  0.00  0.00    +0.164 C 
BRANCH   6   7
ATOM      7  C   LIG    1       -2.330   1.057   1.647  0.00  0.00    +0.234 C 
ATOM      8  N   LIG    1       -3.432   1.739   2.018  0.00  0.00    -0.317 N 
ATOM      9  H   LIG    1       -4.303   1.784   1.348  0.00  0.00    +0.148 HD
ATOM     10  C   LIG    1       -3.470   2.420   3.315  0.00  0.00    +0.128 C 
ATOM     11  O   LIG    1       -1.413   0.915   2.428  0.00  0.00    -0.274 OA
ENDBRANCH   6   7
BRANCH   6  12
ATOM     12  C   LIG    1       -1.852   1.569  -0.732  0.00  0.00    -0.011 C 
ATOM     13  C   LIG    1       -2.820   2.746  -0.592  0.00  0.00    +0.013 C 
ATOM     14  C   LIG    1       -1.924   1.016  -2.157  0.00  0.00    +0.013 C 
ATOM     15  C   LIG    1       -0.427   2.043  -0.440  0.00  0.00    +0.013 C 
ENDBRANCH   6  12
ENDBRANCH   3   6
ENDBRANCH   1   2
BRANCH   1  16
ATOM     16  C   LIG    1        1.041  -2.256  -0.565  0.00  0.00    +0.018 C 
BRANCH  16  18
ATOM     17  C   LIG    1        2.378  -0.295  -1.346  0.00  0.00    +0.007 C 
ATOM     18  C   LIG    1        1.116  -1.124  -1.592  0.00  0.00    -0.016 C 
ATOM     19  C   LIG    1        1.161  -1.716  -3.002  0.00  0.00    +0.007 C 
ENDBRANCH  16  18
ENDBRANCH   1  16
BRANCH   1  20
ATOM     20  C   LIG    1       -0.633  -3.745  -1.670  0.00  0.00    +0.214 C 
BRANCH  20  21
ATOM     21  C   LIG    1        0.242  -4.963  -1.516  0.00  0.00    +0.265 C 
ATOM     22  N   LIG    1        1.541  -4.908  -1.872  0.00  0.00    -0.195 N 
ATOM     23  H   LIG    1        1.943  -4.002  -2.349  0.00  0.00    +0.182 HD
ATOM     24  O   LIG    1       -0.222  -5.991  -1.072  0.00  0.00    -0.271 OA
BRANCH  22  25
ATOM     25  O   LIG    1        2.388  -6.018  -1.633  0.00  0.00    -0.295 OA
ATOM     26  H   LIG    1        3.448  -5.973  -1.923  0.00  0.00    +0.241 HD
ENDBRANCH  22  25
ENDBRANCH  20  21
BRANCH  20  27
ATOM     27  O   LIG    1       -2.005  -4.144  -1.684  0.00  0.00    -0.382 OA
ATOM     28  H   LIG    1       -2.370  -4.833  -2.459  0.00  0.00    +0.210 HD
ENDBRANCH  20  27
ENDBRANCH   1  20
TORSDOF 10
