REMARK  Name = ZINC13779484
REMARK                            x       y       z     vdW  Elec       q    Type
REMARK                         _______ _______ _______ _____ _____    ______ ____
ROOT
ATOM      1  N   LIG    1       -0.528   0.772   2.414  0.00  0.00    -0.301 N 
ATOM      2  C   LIG    1       -0.842  -0.538   2.389  0.00  0.00    +0.328 C 
ATOM      3  O   LIG    1       -0.626  -1.232   3.360  0.00  0.00    -0.279 OA
ENDROOT
BRANCH   1   4
ATOM      4  C   LIG    1       -0.789   1.611   1.242  0.00  0.00    +0.076 C 
ATOM      5  C   LIG    1       -0.013   1.086   0.008  0.00  0.00    +0.022 C 
ATOM      6  C   LIG    1       -0.809   1.622  -1.200  0.00  0.00    +0.002 C 
ATOM      7  C   LIG    1       -2.243   1.875  -0.703  0.00  0.00    +0.002 C 
ATOM      8  C   LIG    1       -2.268   1.485   0.789  0.00  0.00    +0.022 C 
ENDBRANCH   1   4
BRANCH   1   9
ATOM      9  C   LIG    1        0.074   1.359   3.614  0.00  0.00    +0.107 C 
BRANCH   9  11
ATOM     10  C   LIG    1       -0.402   2.480   5.796  0.00  0.00    +0.005 C 
ATOM     11  C   LIG    1       -1.031   1.867   4.542  0.00  0.00    +0.016 C 
ENDBRANCH   9  11
ENDBRANCH   1   9
TORSDOF 3
