REMARK  Name = ZINC35877948
REMARK                            x       y       z     vdW  Elec       q    Type
REMARK                         _______ _______ _______ _____ _____    ______ ____
ROOT
ATOM      1  C   LIG    1       -0.018   1.503   0.010  0.00  0.00    +0.064 C 
ATOM      2  C   LIG    1        0.002  -0.004   0.002  0.00  0.00    +0.022 A 
ATOM      3  C   LIG    1        0.008  -0.769  -1.101  0.00  0.00    +0.000 A 
ATOM      4  C   LIG    1        0.030  -2.164  -0.655  0.00  0.00    +0.005 A 
ATOM      5  C   LIG    1        0.044  -3.394  -1.316  0.00  0.00    +0.010 A 
ATOM      6  C   LIG    1        0.064  -4.552  -0.593  0.00  0.00    +0.001 A 
ATOM      7  C   LIG    1        0.069  -4.517   0.795  0.00  0.00    +0.002 A 
ATOM      8  C   LIG    1        0.055  -3.315   1.468  0.00  0.00    +0.026 A 
ATOM      9  C   LIG    1        0.035  -2.122   0.751  0.00  0.00    +0.050 A 
ATOM     10  N   LIG    1        0.023  -0.795   1.118  0.00  0.00    -0.343 N 
ENDROOT
BRANCH   3  11
ATOM     11  C   LIG    1       -0.005  -0.284  -2.528  0.00  0.00    +0.160 C 
BRANCH  11  12
ATOM     12  N   LIG    1        1.371  -0.107  -2.997  0.00  0.00    -0.334 N 
ATOM     13  C   LIG    1        2.124   1.032  -2.896  0.00  0.00    +0.105 A 
ATOM     14  C   LIG    1        3.321   0.758  -3.449  0.00  0.00    +0.101 A 
ATOM     15  N   LIG    1        3.300  -0.513  -3.875  0.00  0.00    -0.352 N 
ATOM     16  H   LIG    1        4.035  -0.971  -4.313  0.00  0.00    +0.166 HD
ATOM     17  C   LIG    1        2.137  -1.039  -3.603  0.00  0.00    +0.174 A 
ENDBRANCH  11  12
ENDBRANCH   3  11
BRANCH  10  18
ATOM     18  C   LIG    1        0.030  -0.304   2.498  0.00  0.00    +0.133 C 
BRANCH  18  19
ATOM     19  C   LIG    1       -1.410  -0.153   2.992  0.00  0.00    +0.142 C 
BRANCH  19  20
ATOM     20  C   LIG    1       -1.404   0.352   4.412  0.00  0.00    +0.306 C 
ATOM     21  O   LIG    1       -0.345   0.571   4.976  0.00  0.00    -0.251 OA
BRANCH  20  22
ATOM     22  O   LIG    1       -2.457   0.542   4.996  0.00  0.00    -0.481 OA
ATOM     23  H   LIG    1       -3.270   0.374   4.563  0.00  0.00    +0.295 HD
ENDBRANCH  20  22
ENDBRANCH  19  20
ENDBRANCH  18  19
ENDBRANCH  10  18
TORSDOF 6
