REMARK  Name = ZINC40899370
REMARK                            x       y       z     vdW  Elec       q    Type
REMARK                         _______ _______ _______ _____ _____    ______ ____
ROOT
ATOM      1  C   LIG    1       -0.024   0.092  -2.472  0.00  0.00    +0.164 C 
ATOM      2  C   LIG    1        1.393   0.596  -2.821  0.00  0.00    +0.033 C 
ATOM      3  C   LIG    1        1.910  -0.481  -3.811  0.00  0.00    +0.021 C 
ATOM      4  C   LIG    1        0.614  -0.845  -4.579  0.00  0.00    +0.110 C 
ATOM      5  N   LIG    1       -0.457  -0.794  -3.563  0.00  0.00    -0.274 N 
ATOM      6  C   LIG    1       -1.633  -1.450  -3.622  0.00  0.00    +0.307 C 
ATOM      7  N   LIG    1       -1.913  -2.236  -4.680  0.00  0.00    -0.269 N 
ATOM      8  H   LIG    1       -1.299  -2.277  -5.430  0.00  0.00    +0.156 HD
ATOM      9  O   LIG    1       -2.441  -1.332  -2.721  0.00  0.00    -0.252 OA
ENDROOT
BRANCH   7  10
ATOM     10  C   LIG    1       -3.090  -2.993  -4.698  0.00  0.00    +0.035 A 
ATOM     11  C   LIG    1       -3.099  -4.251  -5.284  0.00  0.00    +0.024 A 
ATOM     12  C   LIG    1       -4.263  -4.996  -5.299  0.00  0.00    +0.014 A 
ATOM     13  C   LIG    1       -5.417  -4.489  -4.731  0.00  0.00    +0.055 A 
ATOM     14  C   LIG    1       -5.411  -3.236  -4.147  0.00  0.00    +0.014 A 
ATOM     15  C   LIG    1       -4.250  -2.489  -4.124  0.00  0.00    +0.024 A 
BRANCH  13  16
ATOM     16  C   LIG    1       -6.684  -5.304  -4.749  0.00  0.00    +0.417 C 
ATOM     17  F   LIG    1       -6.695  -6.125  -5.882  0.00  0.00    -0.166 F 
ATOM     18  F   LIG    1       -7.790  -4.447  -4.784  0.00  0.00    -0.166 F 
ATOM     19  F   LIG    1       -6.745  -6.097  -3.598  0.00  0.00    -0.166 F 
ENDBRANCH  13  16
ENDBRANCH   7  10
BRANCH   1  22
ATOM     20  C   LIG    1       -0.015   1.458   0.011  0.00  0.00    +0.132 C 
ATOM     21  N   LIG    1        0.012  -0.007  -0.001  0.00  0.00    -0.299 N 
ATOM     22  C   LIG    1        0.008  -0.671  -1.173  0.00  0.00    +0.236 C 
ATOM     23  O   LIG    1        0.031  -1.884  -1.183  0.00  0.00    -0.274 OA
BRANCH  21  24
ATOM     24  C   LIG    1        0.044  -0.749   1.262  0.00  0.00    +0.142 C 
BRANCH  24  25
ATOM     25  C   LIG    1       -1.366  -1.030   1.714  0.00  0.00    -0.030 A 
ATOM     26  C   LIG    1       -2.025  -0.125   2.525  0.00  0.00    +0.006 A 
ATOM     27  C   LIG    1       -3.318  -0.382   2.940  0.00  0.00    +0.020 A 
ATOM     28  C   LIG    1       -3.952  -1.546   2.545  0.00  0.00    +0.041 A 
ATOM     29 CL   LIG    1       -5.576  -1.870   3.067  0.00  0.00    -0.084 Cl
ATOM     30  C   LIG    1       -3.292  -2.452   1.735  0.00  0.00    +0.020 A 
ATOM     31  C   LIG    1       -2.001  -2.191   1.315  0.00  0.00    +0.006 A 
ENDBRANCH  24  25
ENDBRANCH  21  24
ENDBRANCH   1  22
TORSDOF 5
