REMARK  Name = ZINC15785760
REMARK                            x       y       z     vdW  Elec       q    Type
REMARK                         _______ _______ _______ _____ _____    ______ ____
ROOT
ATOM      1  C   LIG    1       -2.252   0.283  -0.505  0.00  0.00    +0.014 A 
ATOM      2  C   LIG    1       -3.621   0.494  -0.364  0.00  0.00    +0.049 A 
ATOM      3  C   LIG    1       -4.595  -0.433  -1.042  0.00  0.00    +0.066 C 
ATOM      4  N   LIG    1       -4.070   1.499   0.359  0.00  0.00    -0.215 NA
ATOM      5  C   LIG    1       -3.231   2.341   0.974  0.00  0.00    +0.255 A 
ATOM      6  N   LIG    1       -3.433   3.405   1.742  0.00  0.00    -0.197 NA
ATOM      7  C   LIG    1       -2.267   3.914   2.119  0.00  0.00    +0.247 A 
ATOM      8  N   LIG    1       -1.291   3.201   1.612  0.00  0.00    -0.151 NA
ATOM      9  N   LIG    1       -1.879   2.170   0.869  0.00  0.00    -0.182 N 
ATOM     10  C   LIG    1       -1.373   1.143   0.124  0.00  0.00    +0.133 A 
ENDROOT
BRANCH   1  12
ATOM     11  C   LIG    1       -1.572  -2.101  -0.443  0.00  0.00    +0.009 C 
ATOM     12  C   LIG    1       -1.737  -0.867  -1.332  0.00  0.00    +0.037 C 
ENDBRANCH   1  12
BRANCH  10  13
ATOM     13  N   LIG    1       -0.011   0.966   0.007  0.00  0.00    -0.299 N 
ATOM     14  H   LIG    1        0.435   0.279   0.528  0.00  0.00    +0.154 HD
BRANCH  13  15
ATOM     15  C   LIG    1        0.726   1.771  -0.865  0.00  0.00    +0.032 A 
ATOM     16  C   LIG    1        0.075   2.659  -1.712  0.00  0.00    +0.023 A 
ATOM     17  C   LIG    1        0.807   3.457  -2.569  0.00  0.00    +0.006 A 
ATOM     18  C   LIG    1        2.186   3.365  -2.593  0.00  0.00    -0.045 A 
ATOM     19  C   LIG    1        2.838   2.478  -1.755  0.00  0.00    +0.006 A 
ATOM     20  C   LIG    1        2.112   1.681  -0.892  0.00  0.00    +0.023 A 
BRANCH  18  21
ATOM     21  C   LIG    1        2.982   4.233  -3.534  0.00  0.00    +0.013 C 
ATOM     22  C   LIG    1        2.713   5.706  -3.218  0.00  0.00    +0.012 C 
ATOM     23  C   LIG    1        2.565   3.936  -4.976  0.00  0.00    +0.012 C 
ENDBRANCH  18  21
ENDBRANCH  13  15
ENDBRANCH  10  13
TORSDOF 4
