REMARK  Name = ZINC22005885
REMARK                            x       y       z     vdW  Elec       q    Type
REMARK                         _______ _______ _______ _____ _____    ______ ____
ROOT
ATOM      1  C   LIG    1        0.619   0.350   4.016  0.00  0.00    +0.048 C 
ATOM      2  C   LIG    1       -0.495   0.975   3.216  0.00  0.00    -0.001 A 
ATOM      3  C   LIG    1       -0.625   0.686   1.882  0.00  0.00    +0.014 A 
ATOM      4  C   LIG    1       -1.658   1.261   1.129  0.00  0.00    +0.107 A 
ATOM      5  C   LIG    1       -1.544   0.771  -0.250  0.00  0.00    +0.343 C 
ATOM      6  O   LIG    1       -0.499  -0.066  -0.363  0.00  0.00    -0.456 OA
ATOM      7  O   LIG    1       -2.289   1.079  -1.160  0.00  0.00    -0.245 OA
ATOM      8  C   LIG    1       -2.560   2.137   1.753  0.00  0.00    +0.138 A 
ATOM      9  C   LIG    1       -2.419   2.422   3.100  0.00  0.00    +0.040 A 
ATOM     10  C   LIG    1        0.152  -0.190   0.931  0.00  0.00    +0.269 C 
ATOM     11  C   LIG    1       -1.392   1.845   3.832  0.00  0.00    +0.130 A 
ENDROOT
BRANCH   8  12
ATOM     12  O   LIG    1       -3.564   2.703   1.039  0.00  0.00    -0.506 OA
ATOM     13  H   LIG    1       -4.270   3.389   1.530  0.00  0.00    +0.292 HD
ENDBRANCH   8  12
BRANCH  11  14
ATOM     14  O   LIG    1       -1.259   2.128   5.153  0.00  0.00    -0.494 OA
ATOM     15  C   LIG    1       -1.848   1.210   6.076  0.00  0.00    +0.277 C 
ENDBRANCH  11  14
BRANCH   9  16
ATOM     16  C   LIG    1       -3.385   3.362   3.774  0.00  0.00    +0.069 C 
BRANCH  16  17
ATOM     17  C   LIG    1       -4.621   2.603   4.185  0.00  0.00    -0.023 C 
ATOM     18  C   LIG    1       -5.801   3.009   3.788  0.00  0.00    -0.076 C 
ATOM     19  C   LIG    1       -5.938   4.308   3.036  0.00  0.00    +0.039 C 
BRANCH  18  20
ATOM     20  C   LIG    1       -7.022   2.176   4.082  0.00  0.00    +0.041 C 
BRANCH  20  21
ATOM     21  C   LIG    1       -7.686   2.680   5.365  0.00  0.00    +0.125 C 
BRANCH  21  22
ATOM     22  C   LIG    1       -8.907   1.847   5.660  0.00  0.00    +0.307 C 
ATOM     23  O   LIG    1       -9.215   0.944   4.918  0.00  0.00    -0.251 OA
BRANCH  22  24
ATOM     24  O   LIG    1       -9.652   2.109   6.745  0.00  0.00    -0.468 OA
ATOM     25  C   LIG    1      -10.814   1.267   6.965  0.00  0.00    +0.280 C 
ENDBRANCH  22  24
ENDBRANCH  21  22
ENDBRANCH  20  21
ENDBRANCH  18  20
ENDBRANCH  16  17
ENDBRANCH   9  16
TORSDOF 8
