REMARK  Name = ZINC40413177
REMARK                            x       y       z     vdW  Elec       q    Type
REMARK                         _______ _______ _______ _____ _____    ______ ____
ROOT
ATOM      1  C   LIG    1       -0.018   1.503   0.010  0.00  0.00    +0.065 C 
ATOM      2  C   LIG    1        0.002  -0.004   0.002  0.00  0.00    +0.040 A 
ATOM      3  C   LIG    1        0.008  -0.791  -1.098  0.00  0.00    +0.025 A 
ATOM      4  C   LIG    1        0.029  -2.127  -0.658  0.00  0.00    +0.025 A 
ATOM      5  C   LIG    1        0.034  -2.107   0.694  0.00  0.00    +0.040 A 
ATOM      6  C   LIG    1        0.054  -3.315   1.595  0.00  0.00    +0.065 C 
ATOM      7  N   LIG    1        0.023  -0.808   1.101  0.00  0.00    -0.239 N 
ENDROOT
BRANCH   7   8
ATOM      8  N   LIG    1        0.030  -0.370   2.432  0.00  0.00    -0.145 NA
ATOM      9  C   LIG    1       -1.097  -0.182   3.062  0.00  0.00    +0.169 C 
BRANCH   9  10
ATOM     10  N   LIG    1       -1.091   0.249   4.374  0.00  0.00    -0.337 N 
ATOM     11  H   LIG    1       -1.929   0.389   4.843  0.00  0.00    +0.144 HD
ATOM     12  H   LIG    1       -0.249   0.413   4.827  0.00  0.00    +0.144 HD
ENDBRANCH   9  10
BRANCH   9  13
ATOM     13  S   LIG    1       -2.627  -0.479   2.239  0.00  0.00    -0.107 S 
ATOM     14  H   LIG    1       -2.384  -0.893   0.966  0.00  0.00    +0.110 HD
ENDBRANCH   9  13
ENDBRANCH   7   8
TORSDOF 3
