REMARK  Name = ZINC45258031
REMARK                            x       y       z     vdW  Elec       q    Type
REMARK                         _______ _______ _______ _____ _____    ______ ____
ROOT
ATOM      1  S   LIG    1       -0.056  -2.968  -0.179  0.00  0.00    +0.076 S 
ATOM      2  O   LIG    1        0.144  -4.330   0.174  0.00  0.00    -0.150 OA
ATOM      3  O   LIG    1        0.398  -2.426  -1.412  0.00  0.00    -0.150 OA
ENDROOT
BRANCH   1  10
ATOM      4  C   LIG    1        0.626  -0.618   1.042  0.00  0.00    +0.147 A 
ATOM      5  C   LIG    1        1.202   0.139   2.051  0.00  0.00    +0.049 A 
ATOM      6  C   LIG    1        1.836  -0.488   3.107  0.00  0.00    +0.019 A 
ATOM      7  C   LIG    1        1.896  -1.869   3.158  0.00  0.00    +0.020 A 
ATOM      8 BR   LIG    1        2.764  -2.724   4.604  0.00  0.00    -0.050 Br
ATOM      9  C   LIG    1        1.322  -2.626   2.152  0.00  0.00    +0.047 A 
ATOM     10  C   LIG    1        0.682  -2.003   1.097  0.00  0.00    +0.151 A 
BRANCH   4  12
ATOM     11  C   LIG    1       -0.017   1.425   0.010  0.00  0.00    +0.277 C 
ATOM     12  O   LIG    1        0.002  -0.004   0.002  0.00  0.00    -0.493 OA
ENDBRANCH   4  12
ENDBRANCH   1  10
BRANCH   1  13
ATOM     13  N   LIG    1       -1.688  -2.697  -0.116  0.00  0.00    -0.215 N 
ATOM     14  H   LIG    1       -2.060  -2.085   0.560  0.00  0.00    +0.174 HD
BRANCH  13  15
ATOM     15  C   LIG    1       -2.538  -3.337  -1.021  0.00  0.00    +0.067 A 
ATOM     16  C   LIG    1       -3.901  -3.110  -0.975  0.00  0.00    +0.036 A 
ATOM     17  C   LIG    1       -4.714  -3.778  -1.908  0.00  0.00    +0.002 A 
ATOM     18  C   LIG    1       -6.107  -3.597  -1.923  0.00  0.00    +0.010 A 
ATOM     19  C   LIG    1       -6.861  -4.261  -2.841  0.00  0.00    +0.001 A 
ATOM     20  C   LIG    1       -6.270  -5.119  -3.767  0.00  0.00    +0.002 A 
ATOM     21  C   LIG    1       -4.924  -5.318  -3.780  0.00  0.00    +0.028 A 
ATOM     22  C   LIG    1       -4.110  -4.650  -2.848  0.00  0.00    +0.071 A 
ATOM     23  N   LIG    1       -2.785  -4.828  -2.842  0.00  0.00    -0.253 NA
ATOM     24  C   LIG    1       -2.014  -4.209  -1.983  0.00  0.00    +0.135 A 
ENDBRANCH  13  15
ENDBRANCH   1  13
TORSDOF 4
