REMARK  Name = ZINC64479794
REMARK                            x       y       z     vdW  Elec       q    Type
REMARK                         _______ _______ _______ _____ _____    ______ ____
ROOT
ATOM      1  C   LIG    1        1.238  -2.581   2.465  0.00  0.00    -0.046 A 
ATOM      2  C   LIG    1        2.558  -2.978   2.360  0.00  0.00    +0.007 A 
ATOM      3  C   LIG    1        3.222  -3.471   3.466  0.00  0.00    +0.046 A 
ATOM      4  C   LIG    1        2.564  -3.567   4.684  0.00  0.00    +0.120 A 
ATOM      5  C   LIG    1        1.240  -3.167   4.787  0.00  0.00    +0.046 A 
ATOM      6  C   LIG    1        0.581  -2.670   3.679  0.00  0.00    +0.007 A 
ENDROOT
BRANCH   4   7
ATOM      7  O   LIG    1        3.215  -4.052   5.774  0.00  0.00    -0.495 OA
ATOM      8  C   LIG    1        2.475  -4.122   6.994  0.00  0.00    +0.277 C 
ENDBRANCH   4   7
BRANCH   1   9
ATOM      9  C   LIG    1        0.516  -2.044   1.256  0.00  0.00    +0.052 C 
BRANCH   9  10
ATOM     10  C   LIG    1        0.706  -0.527   1.180  0.00  0.00    +0.106 C 
BRANCH  10  12
ATOM     11  C   LIG    1       -0.018   1.465   0.010  0.00  0.00    +0.123 C 
ATOM     12  N   LIG    1        0.002  -0.004   0.002  0.00  0.00    -0.248 NA
BRANCH  12  13
ATOM     13  N   LIG    1        0.594  -0.510  -1.226  0.00  0.00    -0.268 NA
ATOM     14  H   LIG    1        0.110  -0.151  -2.035  0.00  0.00    +0.137 HD
ATOM     15  H   LIG    1        0.607  -1.519  -1.232  0.00  0.00    +0.137 HD
ENDBRANCH  12  13
ENDBRANCH  10  12
ENDBRANCH   9  10
ENDBRANCH   1   9
TORSDOF 5
