REMARK  Name = ZINC00004778
REMARK                            x       y       z     vdW  Elec       q    Type
REMARK                         _______ _______ _______ _____ _____    ______ ____
ROOT
ATOM      1  C   LIG    1       -0.018   1.503   0.010  0.00  0.00    +0.046 C 
ATOM      2  C   LIG    1        0.002  -0.004   0.002  0.00  0.00    -0.022 A 
ATOM      3  C   LIG    1        0.006  -0.706  -1.196  0.00  0.00    +0.025 A 
ATOM      4  C   LIG    1        0.028  -2.085  -1.169  0.00  0.00    +0.113 A 
ATOM      5  N   LIG    1        0.063  -2.740  -0.024  0.00  0.00    -0.236 NA
ATOM      6  C   LIG    1        0.069  -2.111   1.143  0.00  0.00    +0.159 A 
ATOM      7  N   LIG    1        0.155  -2.864   2.315  0.00  0.00    -0.305 N 
ATOM      8  C   LIG    1        1.259  -2.695   3.147  0.00  0.00    +0.148 A 
ATOM      9  N   LIG    1        2.073  -3.715   3.378  0.00  0.00    -0.237 NA
ATOM     10  C   LIG    1        3.170  -3.579   4.097  0.00  0.00    +0.113 A 
ATOM     11  C   LIG    1        3.519  -2.360   4.649  0.00  0.00    +0.021 A 
ATOM     12  C   LIG    1        2.692  -1.266   4.460  0.00  0.00    +0.018 A 
ATOM     13  C   LIG    1        1.524  -1.437   3.706  0.00  0.00    +0.082 A 
ATOM     14  C   LIG    1        0.601  -0.313   3.519  0.00  0.00    +0.260 A 
ATOM     15  O   LIG    1        0.419   0.421   4.470  0.00  0.00    -0.267 OA
ATOM     16  N   LIG    1       -0.052  -0.031   2.402  0.00  0.00    -0.319 N 
ATOM     17  H   LIG    1       -0.644   0.737   2.427  0.00  0.00    +0.169 HD
ATOM     18  C   LIG    1        0.023  -0.720   1.195  0.00  0.00    +0.088 A 
ENDROOT
BRANCH   7  19
ATOM     19  C   LIG    1       -0.899  -3.822   2.657  0.00  0.00    +0.091 C 
ATOM     20  C   LIG    1       -0.847  -4.463   4.045  0.00  0.00    +0.027 C 
ATOM     21  C   LIG    1       -0.496  -5.291   2.807  0.00  0.00    +0.027 C 
ENDBRANCH   7  19
TORSDOF 1
