REMARK  Name = ZINC14952270
REMARK                            x       y       z     vdW  Elec       q    Type
REMARK                         _______ _______ _______ _____ _____    ______ ____
ROOT
ATOM      1  C   LIG    1        1.573   3.910   1.214  0.00  0.00    +0.001 C 
ATOM      2  C   LIG    1        0.305   3.286   0.628  0.00  0.00    +0.029 C 
ENDROOT
BRANCH   2   3
ATOM      3  N   LIG    1        0.072   3.840  -0.718  0.00  0.00    +0.389 N 
ATOM      4  H   LIG    1       -0.180   4.832  -0.635  0.00  0.00    -0.088 HD
ATOM      5  H   LIG    1       -0.690   3.340  -1.173  0.00  0.00    -0.088 HD
ATOM      6  H   LIG    1        0.916   3.756  -1.281  0.00  0.00    -0.088 HD
ENDBRANCH   2   3
BRANCH   2   7
ATOM      7  C   LIG    1        0.470   1.766   0.559  0.00  0.00    +0.002 C 
ATOM      8  C   LIG    1        0.774   1.150  -0.808  0.00  0.00    +0.018 C 
ATOM      9  C   LIG    1       -0.609   0.972  -0.179  0.00  0.00    +0.100 C 
BRANCH   9  10
ATOM     10  C   LIG    1       -1.753   1.745  -0.783  0.00  0.00    +0.308 C 
ATOM     11  O   LIG    1       -2.133   2.767  -0.262  0.00  0.00    -0.251 OA
BRANCH  10  12
ATOM     12  O   LIG    1       -2.350   1.298  -1.899  0.00  0.00    -0.480 OA
ATOM     13  H   LIG    1       -2.055   0.505  -2.303  0.00  0.00    +0.295 HD
ENDBRANCH  10  12
ENDBRANCH   9  10
ENDBRANCH   2   7
BRANCH   2  14
ATOM     14  C   LIG    1       -0.873   3.624   1.505  0.00  0.00    +0.293 C 
ATOM     15  O   LIG    1       -1.232   2.849   2.359  0.00  0.00    -0.253 OA
BRANCH  14  16
ATOM     16  O   LIG    1       -1.522   4.787   1.337  0.00  0.00    -0.482 OA
ATOM     17  H   LIG    1       -1.244   5.388   0.675  0.00  0.00    +0.295 HD
ENDBRANCH  14  16
ENDBRANCH   2  14
TORSDOF 6
