REMARK  Name = ZINC33848576
REMARK                            x       y       z     vdW  Elec       q    Type
REMARK                         _______ _______ _______ _____ _____    ______ ____
ROOT
ATOM      1  C   LIG    1        6.258  -0.634   0.049  0.00  0.00    +0.047 A 
ATOM      2  C   LIG    1        6.426  -1.990   0.049  0.00  0.00    +0.098 A 
ATOM      3  N   LIG    1        7.743  -2.287   0.151  0.00  0.00    -0.345 N 
ATOM      4  C   LIG    1        8.495  -1.132   0.222  0.00  0.00    +0.050 A 
ATOM      5  C   LIG    1        9.860  -0.890   0.334  0.00  0.00    +0.026 A 
ATOM      6  C   LIG    1       10.328   0.406   0.370  0.00  0.00    +0.002 A 
ATOM      7  C   LIG    1        9.448   1.477   0.307  0.00  0.00    +0.001 A 
ATOM      8  C   LIG    1        8.092   1.257   0.201  0.00  0.00    +0.011 A 
ATOM      9  C   LIG    1        7.606  -0.046   0.156  0.00  0.00    +0.011 A 
ENDROOT
BRANCH   1  10
ATOM     10  C   LIG    1        4.987   0.094  -0.046  0.00  0.00    +0.196 C 
ATOM     11  O   LIG    1        4.970   1.306   0.061  0.00  0.00    -0.287 OA
BRANCH  10  20
ATOM     12  C   LIG    1        2.718  -2.200  -4.074  0.00  0.00    +0.001 A 
ATOM     13  C   LIG    1        3.915  -1.508  -3.901  0.00  0.00    +0.001 A 
ATOM     14  C   LIG    1        4.260  -0.999  -2.685  0.00  0.00    +0.009 A 
ATOM     15  C   LIG    1        3.401  -1.173  -1.593  0.00  0.00    -0.007 A 
ATOM     16  C   LIG    1        2.183  -1.875  -1.765  0.00  0.00    -0.017 A 
ATOM     17  C   LIG    1        1.324  -2.047  -0.667  0.00  0.00    +0.008 A 
ATOM     18  C   LIG    1        1.650  -1.545   0.555  0.00  0.00    +0.001 A 
ATOM     19  C   LIG    1        2.833  -0.850   0.770  0.00  0.00    +0.012 A 
ATOM     20  C   LIG    1        3.729  -0.644  -0.271  0.00  0.00    +0.030 A 
ATOM     21  C   LIG    1        1.860  -2.387  -3.034  0.00  0.00    +0.008 A 
ENDBRANCH  10  20
ENDBRANCH   1  10
BRANCH   3  22
ATOM     22  C   LIG    1        8.293  -3.645   0.182  0.00  0.00    +0.137 C 
BRANCH  22  23
ATOM     23  C   LIG    1        8.486  -4.084   1.635  0.00  0.00    +0.106 C 
BRANCH  23  24
ATOM     24  N   LIG    1        9.037  -5.445   1.667  0.00  0.00    -0.296 NA
ATOM     25  C   LIG    1        8.069  -6.418   1.140  0.00  0.00    +0.112 C 
ATOM     26  C   LIG    1        8.704  -7.811   1.135  0.00  0.00    +0.175 C 
ATOM     27  O   LIG    1        9.134  -8.138   2.459  0.00  0.00    -0.377 OA
ATOM     28  C   LIG    1       10.079  -7.211   3.003  0.00  0.00    +0.175 C 
ATOM     29  C   LIG    1        9.457  -5.812   3.027  0.00  0.00    +0.112 C 
ENDBRANCH  23  24
ENDBRANCH  22  23
ENDBRANCH   3  22
TORSDOF 5
