REMARK  Name = ZINC13762432
REMARK                            x       y       z     vdW  Elec       q    Type
REMARK                         _______ _______ _______ _____ _____    ______ ____
ROOT
ATOM      1  N   LIG    1        2.067   1.678  -1.265  0.00  0.00    -0.298 N 
ATOM      2  H   LIG    1        1.531   1.522  -2.059  0.00  0.00    +0.150 HD
ATOM      3  C   LIG    1        3.407   1.552  -1.322  0.00  0.00    +0.245 C 
ATOM      4  O   LIG    1        4.079   1.747  -0.328  0.00  0.00    -0.270 OA
ENDROOT
BRANCH   3   5
ATOM      5  C   LIG    1        4.062   1.177  -2.594  0.00  0.00    +0.048 A 
ATOM      6  C   LIG    1        3.313   0.832  -3.708  0.00  0.00    +0.042 A 
ATOM      7  C   LIG    1        3.968   0.481  -4.899  0.00  0.00    +0.072 A 
ATOM      8  N   LIG    1        5.283   0.470  -4.987  0.00  0.00    -0.247 NA
ATOM      9  C   LIG    1        6.059   0.792  -3.951  0.00  0.00    +0.072 A 
ATOM     10  C   LIG    1        7.462   0.775  -4.066  0.00  0.00    +0.028 A 
ATOM     11  C   LIG    1        8.232   1.124  -3.000  0.00  0.00    +0.002 A 
ATOM     12  C   LIG    1        7.654   1.484  -1.784  0.00  0.00    +0.001 A 
ATOM     13  C   LIG    1        6.299   1.506  -1.634  0.00  0.00    +0.011 A 
ATOM     14  C   LIG    1        5.476   1.164  -2.714  0.00  0.00    +0.013 A 
BRANCH   7  15
ATOM     15  C   LIG    1        3.160   0.113  -6.087  0.00  0.00    +0.000 A 
ATOM     16  C   LIG    1        1.768   0.113  -6.014  0.00  0.00    +0.010 A 
ATOM     17  C   LIG    1        1.022  -0.224  -7.125  0.00  0.00    +0.001 A 
ATOM     18  C   LIG    1        1.653  -0.573  -8.306  0.00  0.00    +0.000 A 
ATOM     19  C   LIG    1        3.034  -0.580  -8.382  0.00  0.00    +0.001 A 
ATOM     20  C   LIG    1        3.790  -0.239  -7.280  0.00  0.00    +0.010 A 
ENDBRANCH   7  15
ENDBRANCH   3   5
BRANCH   1  21
ATOM     21  C   LIG    1        1.418   2.050  -0.005  0.00  0.00    +0.186 C 
BRANCH  21  22
ATOM     22  C   LIG    1        1.421   3.550   0.137  0.00  0.00    +0.328 C 
ATOM     23  O   LIG    1        1.913   4.238  -0.725  0.00  0.00    -0.249 OA
BRANCH  22  25
ATOM     24  C   LIG    1        0.913   5.572   1.293  0.00  0.00    +0.280 C 
ATOM     25  O   LIG    1        0.875   4.122   1.222  0.00  0.00    -0.467 OA
ENDBRANCH  22  25
ENDBRANCH  21  22
BRANCH  21  26
ATOM     26  C   LIG    1       -0.024   1.540  -0.004  0.00  0.00    +0.069 C 
BRANCH  26  27
ATOM     27  C   LIG    1       -0.024   0.033  -0.022  0.00  0.00    -0.045 A 
ATOM     28  C   LIG    1       -0.036  -0.643  -1.228  0.00  0.00    +0.004 A 
ATOM     29  C   LIG    1       -0.031  -2.026  -1.245  0.00  0.00    +0.000 A 
ATOM     30  C   LIG    1       -0.024  -2.732  -0.056  0.00  0.00    +0.000 A 
ATOM     31  C   LIG    1       -0.017  -2.055   1.149  0.00  0.00    +0.000 A 
ATOM     32  C   LIG    1       -0.017  -0.673   1.166  0.00  0.00    +0.004 A 
ENDBRANCH  26  27
ENDBRANCH  21  26
ENDBRANCH   1  21
TORSDOF 7
