REMARK  Name = ZINC26966311
REMARK                            x       y       z     vdW  Elec       q    Type
REMARK                         _______ _______ _______ _____ _____    ______ ____
ROOT
ATOM      1  C   LIG    1        1.248   1.827   0.000  0.00  0.00    +0.135 A 
ATOM      2  N   LIG    1        1.349   3.137   0.000  0.00  0.00    -0.228 NA
ATOM      3  C   LIG    1        2.649   3.493  -0.004  0.00  0.00    +0.090 A 
ATOM      4  C   LIG    1        3.305   4.730  -0.004  0.00  0.00    +0.030 A 
ATOM      5  C   LIG    1        4.670   4.776  -0.018  0.00  0.00    +0.002 A 
ATOM      6  C   LIG    1        5.418   3.607  -0.031  0.00  0.00    +0.002 A 
ATOM      7  C   LIG    1        4.795   2.377  -0.031  0.00  0.00    +0.028 A 
ATOM      8  C   LIG    1        3.408   2.309  -0.018  0.00  0.00    +0.069 A 
ATOM      9  N   LIG    1        2.501   1.268  -0.015  0.00  0.00    -0.320 N 
ENDROOT
BRANCH   1  11
ATOM     10  C   LIG    1       -1.188   1.733   0.017  0.00  0.00    +0.011 C 
ATOM     11  C   LIG    1       -0.013   1.076   0.008  0.00  0.00    +0.047 C 
BRANCH  10  15
ATOM     12  C   LIG    1       -4.828  -0.434   0.023  0.00  0.00    +0.059 A 
ATOM     13  C   LIG    1       -4.847   0.964   0.030  0.00  0.00    +0.015 A 
ATOM     14  C   LIG    1       -3.674   1.663   0.029  0.00  0.00    +0.009 A 
ATOM     15  C   LIG    1       -2.452   0.980   0.019  0.00  0.00    -0.025 A 
ATOM     16  C   LIG    1       -2.434  -0.419   0.005  0.00  0.00    +0.009 A 
ATOM     17  C   LIG    1       -3.608  -1.117   0.013  0.00  0.00    +0.015 A 
BRANCH  12  18
ATOM     18  C   LIG    1       -6.096  -1.190   0.024  0.00  0.00    +0.339 C 
ATOM     19  O   LIG    1       -7.156  -0.596   0.032  0.00  0.00    -0.245 OA
BRANCH  18  21
ATOM     20  C   LIG    1       -7.362  -3.213   0.019  0.00  0.00    +0.280 C 
ATOM     21  O   LIG    1       -6.077  -2.537   0.017  0.00  0.00    -0.464 OA
ENDBRANCH  18  21
ENDBRANCH  12  18
ENDBRANCH  10  15
ENDBRANCH   1  11
BRANCH   9  22
ATOM     22  C   LIG    1        2.817  -0.163  -0.025  0.00  0.00    +0.159 C 
BRANCH  22  23
ATOM     23  C   LIG    1        2.912  -0.646  -1.450  0.00  0.00    -0.028 A 
ATOM     24  C   LIG    1        1.787  -1.131  -2.091  0.00  0.00    +0.007 A 
ATOM     25  C   LIG    1        1.873  -1.569  -3.399  0.00  0.00    +0.020 A 
ATOM     26  C   LIG    1        3.086  -1.533  -4.063  0.00  0.00    +0.041 A 
ATOM     27 CL   LIG    1        3.195  -2.089  -5.704  0.00  0.00    -0.084 Cl
ATOM     28  C   LIG    1        4.212  -1.053  -3.418  0.00  0.00    +0.020 A 
ATOM     29  C   LIG    1        4.124  -0.610  -2.112  0.00  0.00    +0.007 A 
ENDBRANCH  22  23
ENDBRANCH   9  22
TORSDOF 6
