REMARK  Name = ZINC20549702
REMARK                            x       y       z     vdW  Elec       q    Type
REMARK                         _______ _______ _______ _____ _____    ______ ____
ROOT
ATOM      1  C   UNK A  0        3.697  -0.684  -0.038  0.00  0.00    +0.248 C 
ATOM      2  N   HIS A  1        4.274  -1.005  -1.213  0.00  0.00    -0.298 N 
ATOM      3  H   HIS A  1        3.841  -0.765  -2.047  0.00  0.00    +0.150 HD
ATOM      4  O   UNK A  0        4.239  -0.984   1.008  0.00  0.00    -0.270 OA
ENDROOT
BRANCH   1   9
ATOM      5  C   UNK A  0       -0.017   1.379   0.010  0.00  0.00    +0.003 A 
ATOM      6  C   UNK A  0        1.167   2.094   0.002  0.00  0.00    +0.021 A 
ATOM      7  C   UNK A  0        2.379   1.431  -0.013  0.00  0.00    +0.054 A 
ATOM      8 CL   UNK A  0        3.863   2.330  -0.024  0.00  0.00    -0.083 Cl
ATOM      9  C   UNK A  0        2.406   0.034  -0.021  0.00  0.00    +0.073 A 
ATOM     10  C   UNK A  0        1.205  -0.682  -0.013  0.00  0.00    +0.054 A 
ATOM     11 CL   UNK A  0        1.226  -2.418  -0.023  0.00  0.00    -0.083 Cl
ATOM     12  C   UNK A  0        0.002  -0.004   0.002  0.00  0.00    +0.021 A 
ENDBRANCH   1   9
BRANCH   2  13
ATOM     13  CA  HIS A  1        5.554  -1.716  -1.230  0.00  0.00    +0.188 C 
BRANCH  13  14
ATOM     14  C   HIS A  1        6.682  -0.723  -1.113  0.00  0.00    +0.326 C 
ATOM     15  O   HIS A  1        7.727  -1.049  -0.576  0.00  0.00    -0.249 OA
BRANCH  14  16
ATOM     16  OXT HIS A  1        6.549   0.405  -1.554  0.00  0.00    -0.479 OA
ATOM     17  HXT HIS A  1        5.746   0.655  -1.967  0.00  0.00    +0.295 HD
ENDBRANCH  14  16
ENDBRANCH  13  14
BRANCH  13  18
ATOM     18  CB  HIS A  1        5.691  -2.490  -2.543  0.00  0.00    +0.090 C 
BRANCH  18  19
ATOM     19  CG  HIS A  1        4.637  -3.565  -2.604  0.00  0.00    +0.061 A 
ATOM     20  ND1 HIS A  1        4.434  -4.523  -1.688  0.00  0.00    -0.241 NA
ATOM     21  CE1 HIS A  1        3.438  -5.276  -2.066  0.00  0.00    +0.196 A 
ATOM     22  NE2 HIS A  1        2.976  -4.821  -3.251  0.00  0.00    -0.351 N 
ATOM     23  HE2 HIS A  1        2.242  -5.193  -3.764  0.00  0.00    +0.166 HD
ATOM     24  CD2 HIS A  1        3.736  -3.735  -3.591  0.00  0.00    +0.107 A 
ENDBRANCH  18  19
ENDBRANCH  13  18
ENDBRANCH   2  13
TORSDOF 6
