REMARK  Name = ZINC29563822
REMARK                            x       y       z     vdW  Elec       q    Type
REMARK                         _______ _______ _______ _____ _____    ______ ____
ROOT
ATOM      1  N   LIG    1        1.455   3.249  -0.496  0.00  0.00    -0.285 N 
ATOM      2  C   LIG    1        0.556   3.882  -1.303  0.00  0.00    +0.203 A 
ATOM      3  N   LIG    1        0.954   5.097  -1.545  0.00  0.00    -0.231 NA
ATOM      4  C   LIG    1        2.135   5.318  -0.917  0.00  0.00    +0.147 A 
ATOM      5  C   LIG    1        3.014   6.411  -0.824  0.00  0.00    +0.149 A 
ATOM      6  N   LIG    1        4.119   6.278  -0.099  0.00  0.00    -0.198 NA
ATOM      7  C   LIG    1        4.396   5.142   0.527  0.00  0.00    +0.219 A 
ATOM      8  N   LIG    1        3.597   4.089   0.467  0.00  0.00    -0.195 NA
ATOM      9  C   LIG    1        2.470   4.135  -0.236  0.00  0.00    +0.169 A 
ENDROOT
BRANCH   1  13
ATOM     10  C   LIG    1        0.002  -0.004   0.002  0.00  0.00    +0.237 C 
ATOM     11  C   LIG    1        1.318  -0.441  -0.670  0.00  0.00    +0.185 C 
ATOM     12  C   LIG    1        2.044   0.890  -0.983  0.00  0.00    +0.196 C 
ATOM     13  C   LIG    1        1.358   1.873  -0.001  0.00  0.00    +0.254 C 
ATOM     14  O   LIG    1       -0.017   1.433   0.010  0.00  0.00    -0.339 OA
BRANCH  10  17
ATOM     15  N   LIG    1       -0.118  -1.852   1.642  0.00  0.00    -0.313 N 
ATOM     16  H   LIG    1       -0.130  -2.555   0.796  0.00  0.00    +0.149 HD
ATOM     17  C   LIG    1       -0.053  -0.525   1.415  0.00  0.00    +0.245 C 
ATOM     18  O   LIG    1       -0.039   0.250   2.348  0.00  0.00    -0.273 OA
BRANCH  15  20
ATOM     19  C   LIG    1       -0.239  -3.887   2.993  0.00  0.00    +0.024 C 
ATOM     20  C   LIG    1       -0.171  -2.358   3.015  0.00  0.00    +0.101 C 
ENDBRANCH  15  20
ENDBRANCH  10  17
BRANCH  11  21
ATOM     21  O   LIG    1        1.050  -1.160  -1.875  0.00  0.00    -0.386 OA
ATOM     22  H   LIG    1        1.883  -1.545  -2.482  0.00  0.00    +0.210 HD
ENDBRANCH  11  21
BRANCH  12  23
ATOM     23  O   LIG    1        1.824   1.285  -2.338  0.00  0.00    -0.385 OA
ATOM     24  H   LIG    1        2.273   2.213  -2.721  0.00  0.00    +0.210 HD
ENDBRANCH  12  23
ENDBRANCH   1  13
BRANCH   5  25
ATOM     25  N   LIG    1        2.733   7.600  -1.474  0.00  0.00    -0.341 N 
ATOM     26  H   LIG    1        1.815   7.697  -2.072  0.00  0.00    +0.144 HD
ATOM     27  H   LIG    1        3.429   8.448  -1.394  0.00  0.00    +0.144 HD
ENDBRANCH   5  25
BRANCH   7  28
ATOM     28  N   LIG    1        5.562   5.055   1.270  0.00  0.00    -0.313 N 
ATOM     29  H   LIG    1        5.810   4.122   1.798  0.00  0.00    +0.149 HD
BRANCH  28  30
ATOM     30  C   LIG    1        6.464   6.206   1.355  0.00  0.00    +0.109 C 
BRANCH  30  31
ATOM     31  C   LIG    1        7.667   5.848   2.230  0.00  0.00    +0.054 C 
BRANCH  31  32
ATOM     32  C   LIG    1        8.596   7.031   2.316  0.00  0.00    -0.046 A 
ATOM     33  C   LIG    1        9.613   7.181   1.392  0.00  0.00    +0.004 A 
ATOM     34  C   LIG    1       10.461   8.270   1.468  0.00  0.00    +0.004 A 
ATOM     35  C   LIG    1       10.300   9.203   2.475  0.00  0.00    -0.047 A 
ATOM     36  C   LIG    1        9.286   9.050   3.403  0.00  0.00    +0.004 A 
ATOM     37  C   LIG    1        8.434   7.964   3.323  0.00  0.00    +0.004 A 
BRANCH  35  38
ATOM     38  C   LIG    1       11.229  10.386   2.562  0.00  0.00    +0.046 C 
BRANCH  38  39
ATOM     39  C   LIG    1       12.431  10.027   3.438  0.00  0.00    +0.125 C 
BRANCH  39  40
ATOM     40  C   LIG    1       13.361  11.210   3.525  0.00  0.00    +0.305 C 
ATOM     41  O   LIG    1       13.089  12.236   2.946  0.00  0.00    -0.251 OA
BRANCH  40  42
ATOM     42  O   LIG    1       14.490  11.125   4.245  0.00  0.00    -0.481 OA
ATOM     43  H   LIG    1       14.701  10.330   4.694  0.00  0.00    +0.295 HD
ENDBRANCH  40  42
ENDBRANCH  39  40
ENDBRANCH  38  39
ENDBRANCH  35  38
ENDBRANCH  31  32
ENDBRANCH  30  31
ENDBRANCH  28  30
ENDBRANCH   7  28
TORSDOF 14
