REMARK  Name = ZINC66156319
REMARK                            x       y       z     vdW  Elec       q    Type
REMARK                         _______ _______ _______ _____ _____    ______ ____
ROOT
ATOM      1  N   LIG    1       -5.618  -8.319  -0.080  0.00  0.00    +0.386 N 
ATOM      2  H   LIG    1       -5.222  -8.736  -0.908  0.00  0.00    -0.081 HD
ATOM      3  C   LIG    1       -4.892  -8.800   1.102  0.00  0.00    -0.044 C 
ATOM      4  C   LIG    1       -4.945 -10.329   1.150  0.00  0.00    +0.129 C 
ATOM      5  C   LIG    1       -6.406 -10.781   1.227  0.00  0.00    +0.168 C 
ATOM      6  C   LIG    1       -7.170 -10.211   0.029  0.00  0.00    +0.134 C 
ATOM      7  C   LIG    1       -7.035  -8.687   0.023  0.00  0.00    -0.011 C 
ENDROOT
BRANCH   4   8
ATOM      8  O   LIG    1       -4.340 -10.865  -0.029  0.00  0.00    -0.391 OA
ATOM      9  H   LIG    1       -4.339 -11.831  -0.066  0.00  0.00    +0.210 HD
ENDBRANCH   4   8
BRANCH   5  10
ATOM     10  O   LIG    1       -6.990 -10.303   2.441  0.00  0.00    -0.387 OA
ATOM     11  H   LIG    1       -6.551 -10.621   3.241  0.00  0.00    +0.210 HD
ENDBRANCH   5  10
BRANCH   6  12
ATOM     12  O   LIG    1       -6.628 -10.745  -1.181  0.00  0.00    -0.391 OA
ATOM     13  H   LIG    1       -6.678 -11.709  -1.243  0.00  0.00    +0.210 HD
ENDBRANCH   6  12
BRANCH   1  14
ATOM     14  C   LIG    1       -5.498  -6.857  -0.164  0.00  0.00    -0.078 C 
BRANCH  14  15
ATOM     15  C   LIG    1       -4.033  -6.478  -0.390  0.00  0.00    -0.019 C 
BRANCH  15  16
ATOM     16  C   LIG    1       -3.909  -4.955  -0.478  0.00  0.00    -0.002 C 
BRANCH  16  17
ATOM     17  C   LIG    1       -2.444  -4.576  -0.704  0.00  0.00    -0.000 C 
BRANCH  17  18
ATOM     18  C   LIG    1       -2.319  -3.053  -0.792  0.00  0.00    -0.000 C 
BRANCH  18  19
ATOM     19  C   LIG    1       -0.855  -2.674  -1.018  0.00  0.00    -0.000 C 
BRANCH  19  20
ATOM     20  C   LIG    1       -0.730  -1.151  -1.106  0.00  0.00    -0.000 C 
BRANCH  20  22
ATOM     21  C   LIG    1        0.860   0.751  -1.420  0.00  0.00    +0.004 C 
ATOM     22  C   LIG    1        0.735  -0.772  -1.332  0.00  0.00    -0.003 C 
ENDBRANCH  20  22
ENDBRANCH  19  20
ENDBRANCH  18  19
ENDBRANCH  17  18
ENDBRANCH  16  17
ENDBRANCH  15  16
ENDBRANCH  14  15
ENDBRANCH   1  14
BRANCH   7  23
ATOM     23  C   LIG    1       -7.798  -8.113  -1.173  0.00  0.00    +0.143 C 
BRANCH  23  24
ATOM     24  O   LIG    1       -7.299  -8.694  -2.380  0.00  0.00    -0.397 OA
ATOM     25  H   LIG    1       -7.738  -8.376  -3.180  0.00  0.00    +0.209 HD
ENDBRANCH  23  24
ENDBRANCH   7  23
TORSDOF 13
