REMARK  Name = ZINC19168077
REMARK                            x       y       z     vdW  Elec       q    Type
REMARK                         _______ _______ _______ _____ _____    ______ ____
ROOT
ATOM      1  C   LIG    1       -2.136  -0.574  -1.298  0.00  0.00    +0.013 C 
ATOM      2  C   LIG    1       -2.207   0.938  -1.076  0.00  0.00    +0.028 C 
ENDROOT
BRANCH   2   3
ATOM      3  C   LIG    1       -3.047   1.566  -2.158  0.00  0.00    -0.043 A 
ATOM      4  C   LIG    1       -2.671   1.445  -3.482  0.00  0.00    +0.004 A 
ATOM      5  C   LIG    1       -3.444   2.017  -4.475  0.00  0.00    +0.000 A 
ATOM      6  C   LIG    1       -4.589   2.718  -4.143  0.00  0.00    +0.000 A 
ATOM      7  C   LIG    1       -4.962   2.843  -2.818  0.00  0.00    +0.000 A 
ATOM      8  C   LIG    1       -4.191   2.267  -1.825  0.00  0.00    +0.004 A 
ENDBRANCH   2   3
BRANCH   2   9
ATOM      9  C   LIG    1       -0.795   1.527  -1.120  0.00  0.00    +0.071 C 
BRANCH   9  10
ATOM     10  N   LIG    1       -0.012   1.005   0.008  0.00  0.00    -0.369 NA
ATOM     11  H   LIG    1       -0.497   1.287   0.954  0.00  0.00    +0.101 HD
BRANCH  10  12
ATOM     12  N   LIG    1        1.339   1.544  -0.002  0.00  0.00    +0.387 N 
ATOM     13  H   LIG    1        1.839   1.262  -0.941  0.00  0.00    -0.065 HD
ATOM     14  H   LIG    1        1.296   2.641   0.075  0.00  0.00    -0.065 HD
ATOM     15  H   LIG    1        1.902   1.138   0.850  0.00  0.00    -0.065 HD
ENDBRANCH  10  12
ENDBRANCH   9  10
ENDBRANCH   2   9
TORSDOF 4
