REMARK  Name = ZINC13861029
REMARK                            x       y       z     vdW  Elec       q    Type
REMARK                         _______ _______ _______ _____ _____    ______ ____
ROOT
ATOM      1  C   LIG    1       -1.698   0.902   1.869  0.00  0.00    +0.037 A 
ATOM      2  C   LIG    1       -2.076   1.647   2.931  0.00  0.00    +0.053 A 
ATOM      3 BR   LIG    1       -3.425   1.206   4.181  0.00  0.00    -0.047 Br
ATOM      4  C   LIG    1       -1.285   2.809   2.939  0.00  0.00    +0.058 A 
ATOM      5 BR   LIG    1       -1.376   4.217   4.199  0.00  0.00    -0.047 Br
ATOM      6  C   LIG    1       -0.438   2.732   1.874  0.00  0.00    +0.065 A 
ATOM      7  N   LIG    1       -0.698   1.558   1.213  0.00  0.00    -0.341 N 
ENDROOT
BRANCH   6   8
ATOM      8  C   LIG    1        0.578   3.737   1.496  0.00  0.00    -0.000 A 
ATOM      9  C   LIG    1        1.865   3.331   1.140  0.00  0.00    +0.013 A 
ATOM     10  C   LIG    1        2.809   4.273   0.784  0.00  0.00    +0.039 A 
ATOM     11  C   LIG    1        2.483   5.620   0.789  0.00  0.00    +0.123 A 
ATOM     12  F   LIG    1        3.412   6.538   0.444  0.00  0.00    -0.205 F 
ATOM     13  C   LIG    1        1.208   6.028   1.147  0.00  0.00    +0.039 A 
ATOM     14  C   LIG    1        0.256   5.095   1.500  0.00  0.00    +0.013 A 
ENDBRANCH   6   8
BRANCH   1  16
ATOM     15  C   LIG    1       -2.084  -1.431   2.615  0.00  0.00    +0.014 C 
ATOM     16  C   LIG    1       -2.284  -0.430   1.476  0.00  0.00    +0.031 C 
ATOM     17  C   LIG    1       -3.779  -0.267   1.196  0.00  0.00    +0.014 C 
ENDBRANCH   1  16
BRANCH   7  18
ATOM     18  C   LIG    1       -0.013   1.086   0.008  0.00  0.00    +0.126 C 
BRANCH  18  19
ATOM     19  C   LIG    1       -0.753   1.593  -1.232  0.00  0.00    +0.066 C 
BRANCH  19  20
ATOM     20  C   LIG    1       -0.037   1.099  -2.490  0.00  0.00    +0.181 C 
ATOM     21  C   LIG    1       -0.706   1.701  -3.729  0.00  0.00    +0.076 C 
ATOM     22  C   LIG    1       -0.020   1.163  -4.989  0.00  0.00    +0.129 C 
ATOM     23  C   LIG    1       -0.154  -0.364  -5.015  0.00  0.00    +0.152 C 
ATOM     24  C   LIG    1        0.347  -0.910  -3.696  0.00  0.00    +0.310 C 
ATOM     25  O   LIG    1        1.141  -1.820  -3.662  0.00  0.00    -0.251 OA
ATOM     26  O   LIG    1       -0.119  -0.352  -2.560  0.00  0.00    -0.461 OA
BRANCH  22  27
ATOM     27  O   LIG    1        1.363   1.522  -4.970  0.00  0.00    -0.391 OA
ATOM     28  H   LIG    1        1.861   1.206  -5.736  0.00  0.00    +0.210 HD
ENDBRANCH  22  27
ENDBRANCH  19  20
ENDBRANCH  18  19
ENDBRANCH   7  18
TORSDOF 6
