REMARK  Name = ZINC27416696
REMARK                            x       y       z     vdW  Elec       q    Type
REMARK                         _______ _______ _______ _____ _____    ______ ____
ROOT
ATOM      1  C   LIG    1       -0.023   1.569  -2.427  0.00  0.00    +0.124 A 
ATOM      2  C   LIG    1       -0.628   2.002  -3.595  0.00  0.00    +0.046 A 
ATOM      3  C   LIG    1       -1.936   2.443  -3.565  0.00  0.00    +0.004 A 
ATOM      4  C   LIG    1       -2.631   2.453  -2.373  0.00  0.00    +0.004 A 
ATOM      5  C   LIG    1       -2.026   2.024  -1.198  0.00  0.00    -0.042 A 
ATOM      6  C   LIG    1       -2.834   2.083   0.071  0.00  0.00    +0.020 C 
ATOM      7  C   LIG    1       -2.205   1.236   1.166  0.00  0.00    -0.064 C 
ATOM      8  N   LIG    1       -2.357  -0.195   0.883  0.00  0.00    +0.381 N 
ATOM      9  H   LIG    1       -3.424  -0.417   0.733  0.00  0.00    -0.086 HD
ATOM     10  H   LIG    1       -1.799  -0.437  -0.034  0.00  0.00    -0.086 HD
ATOM     11  C   LIG    1       -1.840  -1.002   1.997  0.00  0.00    -0.082 C 
ATOM     12  C   LIG    1       -0.352  -0.714   2.203  0.00  0.00    -0.019 C 
ATOM     13  C   LIG    1       -0.146   0.780   2.470  0.00  0.00    +0.000 C 
ATOM     14  C   LIG    1       -0.713   1.571   1.279  0.00  0.00    -0.020 C 
ATOM     15  C   LIG    1       -0.013   1.086   0.008  0.00  0.00    +0.041 C 
ATOM     16  C   LIG    1       -0.725   1.577  -1.223  0.00  0.00    -0.002 A 
ENDROOT
BRANCH   1  18
ATOM     17  C   LIG    1        1.928   1.151  -3.720  0.00  0.00    +0.277 C 
ATOM     18  O   LIG    1        1.265   1.134  -2.454  0.00  0.00    -0.495 OA
ENDBRANCH   1  18
TORSDOF 1
