REMARK  Name = ZINC27427028
REMARK                            x       y       z     vdW  Elec       q    Type
REMARK                         _______ _______ _______ _____ _____    ______ ____
ROOT
ATOM      1  C   LIG    1        6.804   7.617  -2.747  0.00  0.00    +0.138 C 
ATOM      2  N   LIG    1        5.793   7.314  -1.732  0.00  0.00    -0.271 N 
ATOM      3  C   LIG    1        5.074   8.377  -1.208  0.00  0.00    +0.045 A 
ATOM      4  C   LIG    1        4.670   9.377  -2.095  0.00  0.00    +0.024 A 
ATOM      5  C   LIG    1        3.958  10.468  -1.647  0.00  0.00    +0.002 A 
ATOM      6  C   LIG    1        3.634  10.583  -0.305  0.00  0.00    +0.001 A 
ATOM      7  C   LIG    1        4.021   9.607   0.583  0.00  0.00    +0.012 A 
ATOM      8  C   LIG    1        4.747   8.489   0.142  0.00  0.00    +0.022 A 
ATOM      9  C   LIG    1        5.127   7.483   1.146  0.00  0.00    +0.077 C 
ATOM     10  N   LIG    1        5.094   6.211   0.962  0.00  0.00    -0.251 NA
ATOM     11  C   LIG    1        4.668   5.626  -0.309  0.00  0.00    +0.280 C 
ATOM     12  C   LIG    1        5.633   6.038  -1.386  0.00  0.00    +0.262 C 
ATOM     13  O   LIG    1        6.286   5.187  -1.952  0.00  0.00    -0.271 OA
ENDROOT
BRANCH   9  14
ATOM     14  C   LIG    1        5.582   7.973   2.468  0.00  0.00    +0.001 A 
ATOM     15  C   LIG    1        6.112   9.257   2.595  0.00  0.00    +0.010 A 
ATOM     16  C   LIG    1        6.530   9.708   3.830  0.00  0.00    +0.001 A 
ATOM     17  C   LIG    1        6.434   8.887   4.939  0.00  0.00    +0.000 A 
ATOM     18  C   LIG    1        5.914   7.611   4.819  0.00  0.00    +0.001 A 
ATOM     19  C   LIG    1        5.488   7.149   3.590  0.00  0.00    +0.010 A 
ENDBRANCH   9  14
BRANCH  11  20
ATOM     20  N   LIG    1        4.653   4.165  -0.196  0.00  0.00    -0.270 N 
ATOM     21  H   LIG    1        5.599   3.604  -0.195  0.00  0.00    +0.153 HD
ATOM     22  C   LIG    1        3.481   3.509  -0.092  0.00  0.00    +0.306 C 
ATOM     23  N   LIG    1        3.467   2.165   0.011  0.00  0.00    -0.269 N 
ATOM     24  H   LIG    1        4.414   1.611   0.098  0.00  0.00    +0.156 HD
ATOM     25  O   LIG    1        2.435   4.129  -0.093  0.00  0.00    -0.252 OA
BRANCH  23  26
ATOM     26  C   LIG    1        2.250   1.475   0.009  0.00  0.00    +0.035 A 
ATOM     27  C   LIG    1        1.180   1.953  -0.736  0.00  0.00    +0.023 A 
ATOM     28  C   LIG    1       -0.019   1.269  -0.734  0.00  0.00    +0.006 A 
ATOM     29  C   LIG    1       -0.159   0.107   0.007  0.00  0.00    -0.044 A 
ATOM     30  C   LIG    1        0.905  -0.373   0.748  0.00  0.00    -0.042 A 
ATOM     31  C   LIG    1        0.500  -1.646   1.461  0.00  0.00    +0.036 C 
ATOM     32  C   LIG    1       -0.773  -2.127   0.735  0.00  0.00    +0.009 C 
ATOM     33  C   LIG    1       -1.351  -0.812   0.171  0.00  0.00    +0.036 C 
ATOM     34  C   LIG    1        2.109   0.310   0.750  0.00  0.00    +0.027 A 
ENDBRANCH  23  26
ENDBRANCH  11  20
TORSDOF 3
