REMARK  Name = ZINC19365773
REMARK                            x       y       z     vdW  Elec       q    Type
REMARK                         _______ _______ _______ _____ _____    ______ ____
ROOT
ATOM      1  C   LIG    1        2.497  -4.674  -0.933  0.00  0.00    -0.096 C 
ATOM      2  N   LIG    1        1.232  -4.159  -1.475  0.00  0.00    +0.377 N 
ATOM      3  H   LIG    1        0.418  -4.509  -0.824  0.00  0.00    -0.082 HD
ENDROOT
BRANCH   2   4
ATOM      4  C   LIG    1        0.987  -4.681  -2.826  0.00  0.00    -0.098 C 
BRANCH   4   5
ATOM      5  C   LIG    1        0.763  -6.192  -2.756  0.00  0.00    -0.098 C 
BRANCH   5   6
ATOM      6  N   LIG    1        0.518  -6.714  -4.107  0.00  0.00    +0.379 N 
ATOM      7  H   LIG    1       -0.464  -6.320  -4.406  0.00  0.00    -0.082 HD
ATOM      8  C   LIG    1        1.591  -6.292  -5.043  0.00  0.00    -0.079 C 
ATOM      9  C   LIG    1        1.474  -7.315  -6.201  0.00  0.00    -0.020 C 
ATOM     10  C   LIG    1        1.129  -8.631  -5.466  0.00  0.00    -0.020 C 
ATOM     11  C   LIG    1        0.534  -8.193  -4.115  0.00  0.00    -0.079 C 
ENDBRANCH   5   6
ENDBRANCH   4   5
ENDBRANCH   2   4
BRANCH   2  12
ATOM     12  C   LIG    1        1.216  -2.690  -1.467  0.00  0.00    -0.075 C 
BRANCH  12  13
ATOM     13  C   LIG    1        1.224  -2.188  -0.021  0.00  0.00    +0.016 C 
BRANCH  13  14
ATOM     14  C   LIG    1        1.208  -0.681  -0.013  0.00  0.00    -0.049 A 
ATOM     15  C   LIG    1        0.002  -0.004   0.002  0.00  0.00    +0.005 A 
ATOM     16  C   LIG    1       -0.017   1.377   0.010  0.00  0.00    +0.023 A 
ATOM     17  C   LIG    1        1.178   2.086   0.002  0.00  0.00    +0.025 A 
ATOM     18  C   LIG    1        2.387   1.403  -0.012  0.00  0.00    +0.023 A 
ATOM     19  C   LIG    1        2.399   0.022  -0.020  0.00  0.00    +0.005 A 
BRANCH  17  20
ATOM     20  N   LIG    1        1.162   3.483   0.010  0.00  0.00    -0.358 N 
ATOM     21  H   LIG    1        0.204   4.022   0.022  0.00  0.00    +0.142 HD
ATOM     22  H   LIG    1        2.109   4.043   0.004  0.00  0.00    +0.142 HD
ENDBRANCH  17  20
ENDBRANCH  13  14
ENDBRANCH  12  13
ENDBRANCH   2  12
TORSDOF 7
