REMARK  Name = ZINC45284946
REMARK                            x       y       z     vdW  Elec       q    Type
REMARK                         _______ _______ _______ _____ _____    ______ ____
ROOT
ATOM      1  N   LIG    1       -1.367  -3.812   2.807  0.00  0.00    -0.186 NA
ATOM      2  H   LIG    1       -1.403  -4.421   1.989  0.00  0.00    +0.148 HD
ENDROOT
BRANCH   1   3
ATOM      3  C   LIG    1       -1.632  -4.614   3.919  0.00  0.00    +0.091 C 
ATOM      4  C   LIG    1       -2.815  -5.324   3.999  0.00  0.00    +0.026 C 
ATOM      5  C   LIG    1       -3.034  -6.118   5.139  0.00  0.00    +0.008 C 
ATOM      6  C   LIG    1       -4.213  -6.868   5.290  0.00  0.00    +0.005 C 
ATOM      7  C   LIG    1       -4.389  -7.624   6.408  0.00  0.00    +0.000 C 
ATOM      8  C   LIG    1       -3.417  -7.665   7.405  0.00  0.00    +0.002 C 
ATOM      9  C   LIG    1       -2.264  -6.951   7.291  0.00  0.00    +0.019 C 
ATOM     10  C   LIG    1       -2.043  -6.158   6.151  0.00  0.00    +0.057 C 
ATOM     11  N   LIG    1       -0.918  -5.448   6.016  0.00  0.00    -0.311 NA
ATOM     12  H   LIG    1       -0.249  -5.485   6.716  0.00  0.00    +0.122 HD
ATOM     13  C   LIG    1       -0.697  -4.709   4.957  0.00  0.00    +0.101 C 
ENDBRANCH   1   3
BRANCH   1  14
ATOM     14  S   LIG    1        0.055  -2.969   2.713  0.00  0.00    +0.062 S 
ATOM     15  O   LIG    1        0.020  -1.998   3.750  0.00  0.00    -0.153 OA
ATOM     16  O   LIG    1        1.093  -3.934   2.608  0.00  0.00    -0.153 OA
BRANCH  14  22
ATOM     17  C   LIG    1       -0.018   1.503   0.010  0.00  0.00    +0.044 C 
ATOM     18  C   LIG    1        0.002  -0.004   0.002  0.00  0.00    -0.048 A 
ATOM     19  C   LIG    1        0.006  -0.688  -1.200  0.00  0.00    +0.007 A 
ATOM     20  C   LIG    1        0.024  -2.069  -1.210  0.00  0.00    +0.048 A 
ATOM     21  C   LIG    1        0.039  -2.770  -0.013  0.00  0.00    +0.146 A 
ATOM     22  C   LIG    1        0.036  -2.082   1.191  0.00  0.00    +0.147 A 
ATOM     23  C   LIG    1        0.023  -0.701   1.196  0.00  0.00    +0.035 A 
BRANCH  21  24
ATOM     24  O   LIG    1        0.057  -4.129  -0.021  0.00  0.00    -0.493 OA
ATOM     25  C   LIG    1        0.058  -4.771  -1.298  0.00  0.00    +0.277 C 
ENDBRANCH  21  24
ENDBRANCH  14  22
ENDBRANCH   1  14
TORSDOF 4
