REMARK  Name = ZINC00005803
REMARK                            x       y       z     vdW  Elec       q    Type
REMARK                         _______ _______ _______ _____ _____    ______ ____
ROOT
ATOM      1  C   LIG    1        0.060  -0.616   5.158  0.00  0.00    +0.116 A 
ATOM      2  C   LIG    1       -0.995  -0.718   6.012  0.00  0.00    +0.029 A 
ATOM      3  C   LIG    1       -1.011  -0.021   7.218  0.00  0.00    +0.003 A 
ATOM      4  C   LIG    1        0.028   0.783   7.576  0.00  0.00    +0.010 A 
ATOM      5  C   LIG    1        1.133   0.913   6.721  0.00  0.00    +0.005 A 
ATOM      6  C   LIG    1        2.229   1.737   7.059  0.00  0.00    +0.037 A 
ATOM      7  C   LIG    1        3.301   1.824   6.197  0.00  0.00    +0.024 A 
ATOM      8  C   LIG    1        3.306   1.123   4.994  0.00  0.00    +0.002 A 
ATOM      9  C   LIG    1        2.261   0.326   4.641  0.00  0.00    +0.010 A 
ATOM     10  C   LIG    1        1.153   0.200   5.497  0.00  0.00    +0.010 A 
ENDROOT
BRANCH   1  11
ATOM     11  S   LIG    1        0.058  -1.507   3.638  0.00  0.00    +0.075 S 
ATOM     12  O   LIG    1        1.312  -2.170   3.554  0.00  0.00    -0.150 OA
ATOM     13  O   LIG    1       -1.178  -2.205   3.578  0.00  0.00    -0.150 OA
BRANCH  11  14
ATOM     14  N   LIG    1        0.030  -0.391   2.415  0.00  0.00    -0.183 N 
ATOM     15  H   LIG    1        0.019   0.571   2.627  0.00  0.00    +0.177 HD
BRANCH  14  22
ATOM     16  C   LIG    1       -0.018   1.503   0.010  0.00  0.00    +0.051 C 
ATOM     17  C   LIG    1        0.002  -0.004   0.002  0.00  0.00    +0.035 A 
ATOM     18  C   LIG    1        0.008  -0.821  -1.136  0.00  0.00    +0.085 A 
ATOM     19  C   LIG    1       -0.006  -0.344  -2.566  0.00  0.00    +0.069 C 
ATOM     20  N   LIG    1        0.028  -2.066  -0.745  0.00  0.00    -0.081 NA
ATOM     21  O   LIG    1        0.035  -2.083   0.671  0.00  0.00    -0.338 OA
ATOM     22  C   LIG    1        0.024  -0.808   1.097  0.00  0.00    +0.240 A 
ENDBRANCH  14  22
ENDBRANCH  11  14
ENDBRANCH   1  11
BRANCH   6  23
ATOM     23  N   LIG    1        2.233   2.444   8.259  0.00  0.00    -0.336 N 
ATOM     24  C   LIG    1        2.796   1.834   9.466  0.00  0.00    +0.129 C 
ATOM     25  C   LIG    1        1.674   3.797   8.314  0.00  0.00    +0.129 C 
ENDBRANCH   6  23
TORSDOF 4
