REMARK  Name = ZINC52955714
REMARK                            x       y       z     vdW  Elec       q    Type
REMARK                         _______ _______ _______ _____ _____    ______ ____
ROOT
ATOM      1  CA  ALA A  1        3.107  -4.739  -3.078  0.00  0.00    +0.138 C 
ATOM      2  CB  ALA A  1        1.815  -4.291  -2.392  0.00  0.00    +0.034 C 
ENDROOT
BRANCH   1   3
ATOM      3  C   ALA A  1        3.333  -6.205  -2.814  0.00  0.00    +0.233 C 
ATOM      4  N   UNK A  2        4.029  -6.595  -1.728  0.00  0.00    -0.285 N 
ATOM      5  C   UNK A  2        4.544  -5.703  -0.670  0.00  0.00    +0.137 C 
ATOM      6  C   UNK A  2        5.199  -6.599   0.372  0.00  0.00    +0.080 C 
ATOM      7  S   UNK A  2        7.018  -6.603   0.229  0.00  0.00    -0.141 S 
ATOM      8  C   UNK A  2        7.520  -5.428   1.551  0.00  0.00    +0.081 C 
ATOM      9  C   UNK A  2        6.594  -5.748   2.753  0.00  0.00    +0.081 C 
ATOM     10  C   UNK A  2        4.610  -7.992   0.142  0.00  0.00    +0.064 C 
ATOM     11  S   UNK A  2        4.914  -6.010   2.070  0.00  0.00    -0.141 S 
ATOM     12  C   UNK A  2        4.397  -7.985  -1.394  0.00  0.00    +0.187 C 
ATOM     13  O   ALA A  1        2.890  -7.035  -3.580  0.00  0.00    -0.274 OA
BRANCH  12  14
ATOM     14  C   UNK A  2        3.283  -8.926  -1.773  0.00  0.00    +0.326 C 
ATOM     15  O   UNK A  2        2.128  -8.537  -1.769  0.00  0.00    -0.249 OA
BRANCH  14  16
ATOM     16  O   UNK A  2        3.537 -10.078  -2.084  0.00  0.00    -0.479 OA
ATOM     17  H   UNK A  2        4.425 -10.377  -2.087  0.00  0.00    +0.295 HD
ENDBRANCH  14  16
ENDBRANCH  12  14
ENDBRANCH   1   3
BRANCH   1  18
ATOM     18  N   ALA A  1        2.997  -4.513  -4.525  0.00  0.00    -0.294 NA
ATOM     19  H   ALA A  1        2.070  -4.734  -4.856  0.00  0.00    +0.123 HD
BRANCH  18  20
ATOM     20  C   UNK A  0        3.365  -3.134  -4.873  0.00  0.00    +0.164 C 
BRANCH  20  21
ATOM     21  C   UNK A  0        2.166  -2.237  -4.707  0.00  0.00    +0.324 C 
ATOM     22  O   UNK A  0        1.112  -2.699  -4.338  0.00  0.00    -0.249 OA
BRANCH  21  23
ATOM     23  O   UNK A  0        2.267  -0.925  -4.970  0.00  0.00    -0.464 OA
BRANCH  23  25
ATOM     24  C   UNK A  0        1.399   1.324  -5.136  0.00  0.00    +0.048 C 
ATOM     25  C   UNK A  0        1.091  -0.134  -4.791  0.00  0.00    +0.229 C 
ENDBRANCH  23  25
ENDBRANCH  21  23
ENDBRANCH  20  21
BRANCH  20  26
ATOM     26  C   UNK A  0        3.843  -3.084  -6.325  0.00  0.00    +0.035 C 
BRANCH  26  27
ATOM     27  C   UNK A  0        5.132  -3.895  -6.466  0.00  0.00    +0.037 C 
BRANCH  27  28
ATOM     28  C   UNK A  0        5.603  -3.845  -7.897  0.00  0.00    -0.047 A 
ATOM     29  C   UNK A  0        5.171  -4.799  -8.800  0.00  0.00    +0.003 A 
ATOM     30  C   UNK A  0        5.603  -4.754 -10.113  0.00  0.00    +0.000 A 
ATOM     31  C   UNK A  0        6.465  -3.755 -10.522  0.00  0.00    +0.000 A 
ATOM     32  C   UNK A  0        6.896  -2.800  -9.620  0.00  0.00    +0.000 A 
ATOM     33  C   UNK A  0        6.461  -2.843  -8.308  0.00  0.00    +0.003 A 
ENDBRANCH  27  28
ENDBRANCH  26  27
ENDBRANCH  20  26
ENDBRANCH  18  20
ENDBRANCH   1  18
TORSDOF 11
