REMARK  Name = ZINC22112721
REMARK                            x       y       z     vdW  Elec       q    Type
REMARK                         _______ _______ _______ _____ _____    ______ ____
ROOT
ATOM      1  C   LIG    1       -1.433  -0.534   0.013  0.00  0.00    +0.040 C 
ENDROOT
BRANCH   1   2
ATOM      2  C   LIG    1       -1.416  -2.035  -0.119  0.00  0.00    +0.057 A 
ATOM      3  C   LIG    1       -2.000  -2.910   0.721  0.00  0.00    +0.107 A 
ATOM      4  N   LIG    1       -1.741  -4.162   0.232  0.00  0.00    -0.351 N 
ATOM      5  C   LIG    1       -1.007  -4.008  -0.891  0.00  0.00    +0.196 A 
ATOM      6  H   LIG    1       -2.031  -5.003   0.620  0.00  0.00    +0.166 HD
ATOM      7  N   LIG    1       -0.821  -2.733  -1.097  0.00  0.00    -0.241 NA
ENDBRANCH   1   2
BRANCH   1   9
ATOM      8  C   LIG    1       -0.019   1.526   0.010  0.00  0.00    -0.014 C 
ATOM      9  C   LIG    1        0.002  -0.004   0.002  0.00  0.00    -0.072 C 
BRANCH   9  10
ATOM     10  N   LIG    1        0.713  -0.491   1.192  0.00  0.00    +0.380 N 
ATOM     11  H   LIG    1        1.659  -0.141   1.185  0.00  0.00    -0.090 HD
ATOM     12  H   LIG    1        0.726  -1.500   1.187  0.00  0.00    -0.090 HD
ATOM     13  H   LIG    1        0.240  -0.165   2.022  0.00  0.00    -0.090 HD
ENDBRANCH   9  10
ENDBRANCH   1   9
TORSDOF 3
