REMARK  Name = ZINC20108587
REMARK                            x       y       z     vdW  Elec       q    Type
REMARK                         _______ _______ _______ _____ _____    ______ ____
ROOT
ATOM      1  C   LIG    1        5.446  -4.644  -7.069  0.00  0.00    +0.074 C 
ATOM      2  C   LIG    1        4.761  -4.892  -8.264  0.00  0.00    +0.024 C 
ATOM      3  C   LIG    1        5.404  -5.410  -9.344  0.00  0.00    +0.021 C 
ATOM      4  C   LIG    1        6.776  -5.707  -9.270  0.00  0.00    +0.059 C 
ATOM      5  C   LIG    1        7.476  -5.458  -8.064  0.00  0.00    +0.011 C 
ATOM      6  C   LIG    1        8.852  -5.756  -7.994  0.00  0.00    -0.007 C 
ATOM      7  C   LIG    1        9.633  -5.507  -6.730  0.00  0.00    +0.008 C 
ATOM      8  C   LIG    1        9.457  -6.275  -9.099  0.00  0.00    +0.038 C 
ATOM      9  C   LIG    1        8.710  -6.498 -10.264  0.00  0.00    +0.125 C 
ATOM     10  N   LIG    1        7.425  -6.218 -10.323  0.00  0.00    -0.298 NA
ATOM     11  H   LIG    1        6.939  -6.385 -11.146  0.00  0.00    +0.124 HD
ATOM     12  C   LIG    1        6.793  -4.917  -6.964  0.00  0.00    +0.027 C 
ENDROOT
BRANCH   9  13
ATOM     13  N   LIG    1        9.341  -7.027 -11.382  0.00  0.00    -0.285 NA
ATOM     14  C   LIG    1       10.740  -7.475 -11.318  0.00  0.00    +0.101 C 
ATOM     15  C   LIG    1       10.821  -8.899 -11.880  0.00  0.00    +0.100 C 
ATOM     16  N   LIG    1       10.220  -8.928 -13.220  0.00  0.00    -0.300 NA
ATOM     17  C   LIG    1        8.791  -8.590 -13.170  0.00  0.00    +0.100 C 
ATOM     18  C   LIG    1        8.625  -7.160 -12.660  0.00  0.00    +0.101 C 
BRANCH  16  19
ATOM     19  C   LIG    1       10.431 -10.232 -13.863  0.00  0.00    +0.081 C 
ATOM     20  C   LIG    1       10.018 -10.148 -15.334  0.00  0.00    +0.020 C 
ENDBRANCH  16  19
ENDBRANCH   9  13
BRANCH   1  22
ATOM     21  C   LIG    1        3.481  -4.465  -5.741  0.00  0.00    +0.244 C 
ATOM     22  N   LIG    1        4.760  -4.109  -5.974  0.00  0.00    -0.308 N 
ATOM     23  H   LIG    1        5.204  -3.483  -5.381  0.00  0.00    +0.149 HD
ATOM     24  O   LIG    1        2.899  -5.189  -6.526  0.00  0.00    -0.270 OA
BRANCH  21  28
ATOM     25  C   LIG    1        1.483  -3.061  -2.266  0.00  0.00    -0.047 A 
ATOM     26  C   LIG    1        0.818  -3.883  -3.158  0.00  0.00    +0.004 A 
ATOM     27  C   LIG    1        1.461  -4.343  -4.288  0.00  0.00    +0.013 A 
ATOM     28  C   LIG    1        2.785  -3.976  -4.532  0.00  0.00    +0.037 A 
ATOM     29  C   LIG    1        3.451  -3.146  -3.628  0.00  0.00    +0.013 A 
ATOM     30  C   LIG    1        2.795  -2.689  -2.504  0.00  0.00    +0.004 A 
BRANCH  25  31
ATOM     31  C   LIG    1        0.774  -2.562  -1.033  0.00  0.00    +0.035 C 
BRANCH  31  32
ATOM     32  C   LIG    1        0.075  -1.238  -1.347  0.00  0.00    +0.004 C 
BRANCH  32  34
ATOM     33  C   LIG    1       -1.345   0.592  -0.410  0.00  0.00    +0.004 C 
ATOM     34  C   LIG    1       -0.645  -0.732  -0.096  0.00  0.00    -0.003 C 
ENDBRANCH  32  34
ENDBRANCH  31  32
ENDBRANCH  25  31
ENDBRANCH  21  28
ENDBRANCH   1  22
TORSDOF 7
