REMARK  Name = ZINC13813795
REMARK                            x       y       z     vdW  Elec       q    Type
REMARK                         _______ _______ _______ _____ _____    ______ ____
ROOT
ATOM      1  C   LIG    1       -0.017   1.378   0.010  0.00  0.00    +0.034 A 
ATOM      2  C   LIG    1        1.171   2.086   0.002  0.00  0.00    +0.031 A 
ATOM      3  C   LIG    1        2.377   1.411  -0.013  0.00  0.00    +0.108 A 
ATOM      4  C   LIG    1        2.396   0.029  -0.020  0.00  0.00    +0.031 A 
ATOM      5  C   LIG    1        1.208  -0.679  -0.012  0.00  0.00    +0.034 A 
ATOM      6  C   LIG    1        0.002  -0.004   0.002  0.00  0.00    +0.122 A 
ENDROOT
BRANCH   3   7
ATOM      7  S   LIG    1        3.891   2.312  -0.024  0.00  0.00    +0.080 S 
ATOM      8  O   LIG    1        3.597   3.593  -0.566  0.00  0.00    -0.151 OA
ATOM      9  O   LIG    1        4.872   1.453  -0.588  0.00  0.00    -0.151 OA
BRANCH   7  10
ATOM     10  N   LIG    1        4.327   2.556   1.555  0.00  0.00    -0.071 NA
ATOM     11  H   LIG    1        4.356   3.455   1.917  0.00  0.00    +0.181 HD
BRANCH  10  12
ATOM     12  O   LIG    1        4.659   1.451   2.376  0.00  0.00    -0.295 OA
ATOM     13  H   LIG    1        4.900   1.692   3.281  0.00  0.00    +0.238 HD
ENDBRANCH  10  12
ENDBRANCH   7  10
ENDBRANCH   3   7
BRANCH   6  14
ATOM     14  N   LIG    1       -1.270  -0.761   0.011  0.00  0.00    +0.006 N 
ATOM     15  O   LIG    1       -2.325  -0.171   0.024  0.00  0.00    -0.130 OA
BRANCH  14  16
ATOM     16  O   LIG    1       -1.253  -1.970   0.004  0.00  0.00    -0.396 OA
ATOM     17  H   LIG    1       -0.435  -2.428  -0.007  0.00  0.00    +0.329 HD
ENDBRANCH  14  16
ENDBRANCH   6  14
TORSDOF 5
