REMARK  Name = ZINC29047753
REMARK                            x       y       z     vdW  Elec       q    Type
REMARK                         _______ _______ _______ _____ _____    ______ ____
ROOT
ATOM      1  N   LIG    1       -2.321  -0.695   0.021  0.00  0.00    -0.308 N 
ATOM      2  C   LIG    1       -3.344  -1.746  -0.079  0.00  0.00    +0.113 C 
ATOM      3  C   LIG    1       -4.158  -1.782   1.221  0.00  0.00    +0.074 C 
ATOM      4  C   LIG    1       -4.516  -0.369   1.610  0.00  0.00    +0.039 A 
ATOM      5  C   LIG    1       -3.898   0.733   1.135  0.00  0.00    +0.054 A 
ATOM      6  N   LIG    1       -4.491   1.811   1.715  0.00  0.00    -0.348 N 
ATOM      7  C   LIG    1       -5.461   1.335   2.530  0.00  0.00    +0.171 A 
ATOM      8  H   LIG    1       -4.262   2.742   1.573  0.00  0.00    +0.166 HD
ATOM      9  N   LIG    1       -5.468   0.030   2.459  0.00  0.00    -0.349 N 
ATOM     10  H   LIG    1       -6.069  -0.556   2.946  0.00  0.00    +0.166 HD
ATOM     11  C   LIG    1       -2.766   0.706   0.143  0.00  0.00    +0.161 C 
ENDROOT
BRANCH   1  19
ATOM     12  C   LIG    1       -0.593  -0.861  -2.610  0.00  0.00    +0.032 A 
ATOM     13  C   LIG    1        0.536  -1.063  -3.308  0.00  0.00    +0.085 A 
ATOM     14  N   LIG    1        1.560  -1.384  -2.454  0.00  0.00    -0.346 N 
ATOM     15  C   LIG    1        1.106  -1.395  -1.164  0.00  0.00    +0.143 A 
ATOM     16  N   LIG    1        1.670  -1.638   0.018  0.00  0.00    -0.218 NA
ATOM     17  C   LIG    1        0.964  -1.573   1.126  0.00  0.00    +0.225 A 
ATOM     18  N   LIG    1       -0.322  -1.270   1.136  0.00  0.00    -0.220 NA
ATOM     19  C   LIG    1       -0.974  -1.012   0.006  0.00  0.00    +0.134 A 
ATOM     20  H   LIG    1        2.471  -1.574  -2.725  0.00  0.00    +0.167 HD
ATOM     21  C   LIG    1       -0.262  -1.069  -1.202  0.00  0.00    +0.059 A 
ENDBRANCH   1  19
TORSDOF 1
