REMARK  Name = ZINC00005543
REMARK                            x       y       z     vdW  Elec       q    Type
REMARK                         _______ _______ _______ _____ _____    ______ ____
ROOT
ATOM      1  C   LIG    1       -1.729  -1.040  -1.407  0.00  0.00    +0.000 A 
ATOM      2  C   LIG    1       -2.598  -0.288  -2.113  0.00  0.00    +0.089 A 
ATOM      3  N   LIG    1       -2.756  -0.822  -3.355  0.00  0.00    -0.355 N 
ATOM      4  C   LIG    1       -1.968  -1.949  -3.456  0.00  0.00    +0.131 A 
ATOM      5  C   LIG    1       -1.730  -2.887  -4.478  0.00  0.00    +0.277 A 
ATOM      6  O   LIG    1       -2.285  -2.787  -5.559  0.00  0.00    -0.266 OA
ATOM      7  N   LIG    1       -0.860  -3.893  -4.239  0.00  0.00    -0.294 N 
ATOM      8  H   LIG    1       -0.679  -4.548  -4.931  0.00  0.00    +0.172 HD
ATOM      9  C   LIG    1       -0.241  -3.999  -3.028  0.00  0.00    +0.194 A 
ATOM     10  N   LIG    1       -0.455  -3.136  -2.063  0.00  0.00    -0.214 NA
ATOM     11  H   LIG    1       -3.328  -0.468  -4.054  0.00  0.00    +0.166 HD
ATOM     12  C   LIG    1       -1.304  -2.102  -2.234  0.00  0.00    +0.101 A 
ENDROOT
BRANCH   9  13
ATOM     13  N   LIG    1        0.631  -5.038  -2.812  0.00  0.00    -0.329 N 
ATOM     14  H   LIG    1        0.800  -5.684  -3.516  0.00  0.00    +0.145 HD
ATOM     15  H   LIG    1        1.079  -5.125  -1.956  0.00  0.00    +0.145 HD
ENDBRANCH   9  13
BRANCH   1  16
ATOM     16  C   LIG    1       -1.286  -0.786   0.011  0.00  0.00    +0.074 C 
BRANCH  16  21
ATOM     17  C   LIG    1       -0.017   1.378   0.010  0.00  0.00    +0.011 A 
ATOM     18  C   LIG    1        1.160   2.051   0.002  0.00  0.00    +0.045 A 
ATOM     19  S   LIG    1        2.348   0.719  -0.017  0.00  0.00    -0.105 S 
ATOM     20  C   LIG    1        1.196  -0.645  -0.013  0.00  0.00    +0.049 A 
ATOM     21  C   LIG    1        0.002  -0.004   0.002  0.00  0.00    -0.036 A 
ENDBRANCH  16  21
ENDBRANCH   1  16
TORSDOF 3
