REMARK  Name = ZINC36215827
REMARK                            x       y       z     vdW  Elec       q    Type
REMARK                         _______ _______ _______ _____ _____    ______ ____
ROOT
ATOM      1  N   PHE A  1        4.451   0.315   2.057  0.00  0.00    -0.268 NA
ATOM      2  C   UNK A  0        3.732   0.696   3.058  0.00  0.00    +0.109 C 
ATOM      3  C   UNK A  0        2.663  -0.196   3.666  0.00  0.00    +0.203 C 
ATOM      4 CL   UNK A  0        1.030   0.484   3.321  0.00  0.00    -0.106 Cl
ATOM      5  C   UNK A  0        2.900  -0.237   5.159  0.00  0.00    +0.187 C 
ATOM      6  C   UNK A  0        3.263   1.001   5.870  0.00  0.00    +0.030 A 
ATOM      7  C   UNK A  0        3.112   1.083   7.254  0.00  0.00    +0.012 A 
ATOM      8  C   UNK A  0        3.465   2.243   7.918  0.00  0.00    +0.001 A 
ATOM      9  C   UNK A  0        3.970   3.328   7.222  0.00  0.00    +0.001 A 
ATOM     10  C   UNK A  0        4.123   3.269   5.849  0.00  0.00    +0.012 A 
ATOM     11  C   UNK A  0        3.767   2.112   5.163  0.00  0.00    +0.034 A 
ATOM     12  O   UNK A  0        2.793  -1.281   5.767  0.00  0.00    -0.290 OA
ATOM     13  C   UNK A  0        3.908   2.039   3.693  0.00  0.00    +0.209 C 
ATOM     14  O   UNK A  0        4.152   3.027   3.031  0.00  0.00    -0.285 OA
ENDROOT
BRANCH   1  15
ATOM     15  CA  PHE A  1        4.146  -0.944   1.373  0.00  0.00    +0.218 C 
BRANCH  15  16
ATOM     16  C   PHE A  1        5.264  -1.927   1.607  0.00  0.00    +0.330 C 
ATOM     17  O   PHE A  1        6.304  -1.555   2.123  0.00  0.00    -0.249 OA
BRANCH  16  18
ATOM     18  OXT PHE A  1        5.128  -3.093   1.279  0.00  0.00    -0.479 OA
ATOM     19  HXT PHE A  1        4.329  -3.379   0.882  0.00  0.00    +0.295 HD
ENDBRANCH  16  18
ENDBRANCH  15  16
BRANCH  15  20
ATOM     20  CB  PHE A  1        3.999  -0.685  -0.128  0.00  0.00    +0.073 C 
BRANCH  20  24
ATOM     21  CZ  PHE A  1        0.613   1.826  -0.819  0.00  0.00    +0.000 A 
ATOM     22  CE1 PHE A  1        1.859   2.388  -0.608  0.00  0.00    +0.000 A 
ATOM     23  CD1 PHE A  1        2.954   1.575  -0.384  0.00  0.00    +0.004 A 
ATOM     24  CG  PHE A  1        2.804   0.201  -0.371  0.00  0.00    -0.045 A 
ATOM     25  CD2 PHE A  1        1.559  -0.361  -0.581  0.00  0.00    +0.004 A 
ATOM     26  CE2 PHE A  1        0.463   0.452  -0.806  0.00  0.00    +0.000 A 
ENDBRANCH  20  24
ENDBRANCH  15  20
ENDBRANCH   1  15
TORSDOF 5
