REMARK  Name = ZINC13831232
REMARK                            x       y       z     vdW  Elec       q    Type
REMARK                         _______ _______ _______ _____ _____    ______ ____
ROOT
ATOM      1  N   LIG    1       -1.487  -5.166  -8.754  0.00  0.00    -0.267 N 
ATOM      2  C   LIG    1       -1.905  -6.424  -8.513  0.00  0.00    +0.223 C 
ATOM      3  O   LIG    1       -2.964  -6.808  -8.963  0.00  0.00    -0.275 OA
ENDROOT
BRANCH   2   4
ATOM      4  C   LIG    1       -1.058  -7.355  -7.684  0.00  0.00    +0.076 C 
ATOM      5  C   LIG    1        0.218  -7.704  -8.454  0.00  0.00    +0.013 C 
ATOM      6  C   LIG    1        1.078  -8.649  -7.612  0.00  0.00    +0.001 C 
ATOM      7  C   LIG    1        0.293  -9.929  -7.319  0.00  0.00    +0.000 C 
ATOM      8  C   LIG    1       -0.983  -9.579  -6.549  0.00  0.00    +0.001 C 
ATOM      9  C   LIG    1       -1.843  -8.635  -7.391  0.00  0.00    +0.013 C 
ENDBRANCH   2   4
BRANCH   1  10
ATOM     10  C   LIG    1       -2.225  -4.333  -9.603  0.00  0.00    +0.037 A 
ATOM     11  C   LIG    1       -3.469  -4.743 -10.069  0.00  0.00    +0.023 A 
ATOM     12  C   LIG    1       -4.203  -3.926 -10.908  0.00  0.00    +0.002 A 
ATOM     13  C   LIG    1       -3.707  -2.696 -11.289  0.00  0.00    +0.008 A 
ATOM     14  C   LIG    1       -2.457  -2.273 -10.826  0.00  0.00    -0.023 A 
ATOM     15  C   LIG    1       -1.718  -3.099  -9.974  0.00  0.00    +0.031 A 
BRANCH  14  16
ATOM     16  C   LIG    1       -1.923  -0.963 -11.231  0.00  0.00    +0.015 C 
ATOM     17  C   LIG    1       -2.641  -0.166 -12.050  0.00  0.00    +0.092 C 
BRANCH  17  18
ATOM     18  C   LIG    1       -2.111   1.136 -12.452  0.00  0.00    +0.332 C 
ATOM     19  O   LIG    1       -1.024   1.501 -12.048  0.00  0.00    -0.246 OA
BRANCH  18  20
ATOM     20  O   LIG    1       -2.829   1.933 -13.271  0.00  0.00    -0.465 OA
ATOM     21  C   LIG    1       -2.250   3.191 -13.623  0.00  0.00    +0.280 C 
ENDBRANCH  18  20
ENDBRANCH  17  18
ENDBRANCH  14  16
ENDBRANCH   1  10
BRANCH   1  22
ATOM     22  C   LIG    1       -0.259  -4.670  -8.126  0.00  0.00    +0.148 C 
BRANCH  22  26
ATOM     23  C   LIG    1       -1.251  -2.466  -4.599  0.00  0.00    -0.018 A 
ATOM     24  C   LIG    1       -1.028  -3.839  -4.526  0.00  0.00    +0.009 A 
ATOM     25  C   LIG    1       -0.708  -4.546  -5.668  0.00  0.00    +0.006 A 
ATOM     26  C   LIG    1       -0.609  -3.893  -6.883  0.00  0.00    -0.030 A 
ATOM     27  C   LIG    1       -0.829  -2.530  -6.962  0.00  0.00    +0.006 A 
ATOM     28  C   LIG    1       -1.155  -1.814  -5.828  0.00  0.00    +0.009 A 
BRANCH  23  32
ATOM     29  C   LIG    1       -2.237  -0.272  -1.090  0.00  0.00    +0.029 A 
ATOM     30  C   LIG    1       -2.010  -1.642  -1.012  0.00  0.00    +0.024 A 
ATOM     31  C   LIG    1       -1.691  -2.354  -2.148  0.00  0.00    +0.010 A 
ATOM     32  C   LIG    1       -1.595  -1.701  -3.376  0.00  0.00    -0.018 A 
ATOM     33  C   LIG    1       -1.824  -0.328  -3.452  0.00  0.00    +0.010 A 
ATOM     34  C   LIG    1       -2.148   0.380  -2.314  0.00  0.00    +0.024 A 
BRANCH  29  36
ATOM     35  C   LIG    1       -2.806   1.889  -0.021  0.00  0.00    +0.129 C 
ATOM     36  N   LIG    1       -2.561   0.447   0.061  0.00  0.00    -0.336 N 
ATOM     37  C   LIG    1       -2.655  -0.240   1.352  0.00  0.00    +0.129 C 
ENDBRANCH  29  36
ENDBRANCH  23  32
ENDBRANCH  22  26
ENDBRANCH   1  22
TORSDOF 9
