REMARK  Name = ZINC00008252
REMARK                            x       y       z     vdW  Elec       q    Type
REMARK                         _______ _______ _______ _____ _____    ______ ____
ROOT
ATOM      1  C   LIG    1        1.210  -0.697  -0.013  0.00  0.00    +0.121 A 
ATOM      2  C   LIG    1        0.002  -0.004   0.002  0.00  0.00    +0.047 A 
ATOM      3  C   LIG    1       -0.017   1.373   0.010  0.00  0.00    +0.030 A 
ATOM      4  C   LIG    1        1.179   2.084   0.002  0.00  0.00    +0.047 A 
ATOM      5  C   LIG    1        2.400   1.388  -0.013  0.00  0.00    +0.006 A 
ATOM      6  C   LIG    1        3.450   2.409  -0.018  0.00  0.00    -0.021 A 
ATOM      7  C   LIG    1        2.836   3.603  -0.006  0.00  0.00    +0.087 A 
ATOM      8  N   LIG    1        1.479   3.430   0.006  0.00  0.00    -0.360 N 
ATOM      9  H   LIG    1        0.826   4.147   0.017  0.00  0.00    +0.165 HD
ATOM     10  C   LIG    1        2.407  -0.009  -0.021  0.00  0.00    +0.056 A 
ENDROOT
BRANCH   1  12
ATOM     11  C   LIG    1       -0.062  -2.706  -0.013  0.00  0.00    +0.277 C 
ATOM     12  O   LIG    1        1.211  -2.057  -0.021  0.00  0.00    -0.495 OA
ENDBRANCH   1  12
BRANCH   6  13
ATOM     13  C   LIG    1        4.937   2.166  -0.034  0.00  0.00    +0.056 C 
BRANCH  13  14
ATOM     14  C   LIG    1        5.406   1.968  -1.476  0.00  0.00    +0.109 C 
BRANCH  14  15
ATOM     15  N   LIG    1        6.852   1.732  -1.491  0.00  0.00    -0.308 N 
ATOM     16  H   LIG    1        7.350   1.721  -0.659  0.00  0.00    +0.149 HD
ATOM     17  C   LIG    1        7.489   1.529  -2.661  0.00  0.00    +0.317 C 
ATOM     18  O   LIG    1        6.866   1.542  -3.702  0.00  0.00    -0.266 OA
BRANCH  17  19
ATOM     19  C   LIG    1        8.976   1.286  -2.677  0.00  0.00    +0.469 C 
ATOM     20  F   LIG    1        9.270   0.140  -1.929  0.00  0.00    -0.162 F 
ATOM     21  F   LIG    1        9.635   2.387  -2.120  0.00  0.00    -0.162 F 
ATOM     22  F   LIG    1        9.405   1.104  -3.996  0.00  0.00    -0.162 F 
ENDBRANCH  17  19
ENDBRANCH  14  15
ENDBRANCH  13  14
ENDBRANCH   6  13
TORSDOF 5
