REMARK  Name = ZINC13746441
REMARK                            x       y       z     vdW  Elec       q    Type
REMARK                         _______ _______ _______ _____ _____    ______ ____
ROOT
ATOM      1  C   LIG    1       -0.019   1.528   0.010  0.00  0.00    +0.062 C 
ATOM      2  C   LIG    1        0.002  -0.004   0.002  0.00  0.00    +0.120 C 
ATOM      3  N   LIG    1        0.958  -0.490   0.994  0.00  0.00    -0.343 N 
ATOM      4  H   LIG    1        0.854  -1.540   1.306  0.00  0.00    +0.164 HD
ATOM      5  C   LIG    1        1.888   0.244   1.500  0.00  0.00    +0.253 C 
ATOM      6  O   LIG    1        2.077   1.538   1.181  0.00  0.00    -0.467 OA
ATOM      7  C   LIG    1        1.434   2.025  -0.001  0.00  0.00    +0.234 C 
ENDROOT
BRANCH   5   8
ATOM      8  N   LIG    1        2.736  -0.327   2.417  0.00  0.00    -0.315 N 
ATOM      9  H   LIG    1        2.610  -1.383   2.700  0.00  0.00    +0.147 HD
ATOM     10  H   LIG    1        3.541   0.271   2.869  0.00  0.00    +0.147 HD
ENDBRANCH   5   8
TORSDOF 1
