REMARK  Name = ZINC26153621
REMARK                            x       y       z     vdW  Elec       q    Type
REMARK                         _______ _______ _______ _____ _____    ______ ____
ROOT
ATOM      1  C   LIG    1        1.498  -2.372   2.469  0.00  0.00    +0.087 A 
ATOM      2  C   LIG    1        0.943  -2.705   3.675  0.00  0.00    +0.028 A 
ATOM      3  C   LIG    1       -0.514  -2.554   4.029  0.00  0.00    +0.064 C 
ATOM      4  N   LIG    1        1.901  -3.191   4.505  0.00  0.00    -0.357 N 
ATOM      5  C   LIG    1        3.116  -3.195   3.877  0.00  0.00    +0.048 A 
ATOM      6  C   LIG    1        4.383  -3.593   4.299  0.00  0.00    +0.030 A 
ATOM      7  C   LIG    1        5.420  -3.478   3.391  0.00  0.00    +0.048 A 
ATOM      8  C   LIG    1        5.232  -2.974   2.107  0.00  0.00    +0.128 A 
ATOM      9  O   LIG    1        6.303  -2.886   1.270  0.00  0.00    -0.469 OA
ATOM     10  C   LIG    1        6.171  -2.030   0.132  0.00  0.00    +0.277 C 
ATOM     11  C   LIG    1        7.347  -2.228  -0.786  0.00  0.00    +0.011 A 
ATOM     12  C   LIG    1        8.614  -2.311  -0.224  0.00  0.00    +0.012 A 
ATOM     13  C   LIG    1        9.724  -2.488  -1.023  0.00  0.00    +0.046 A 
ATOM     14  C   LIG    1        9.575  -2.585  -2.399  0.00  0.00    +0.120 A 
ATOM     15  C   LIG    1        8.311  -2.505  -2.959  0.00  0.00    +0.049 A 
ATOM     16  C   LIG    1        7.198  -2.329  -2.153  0.00  0.00    -0.035 A 
ATOM     17  C   LIG    1        5.841  -2.256  -2.806  0.00  0.00    +0.051 C 
ATOM     18  C   LIG    1        4.832  -1.638  -1.839  0.00  0.00    +0.093 C 
ATOM     19  N   LIG    1        4.917  -2.356  -0.560  0.00  0.00    -0.259 NA
ATOM     20  C   LIG    1        3.767  -2.015   0.293  0.00  0.00    +0.127 C 
ATOM     21  C   LIG    1        3.980  -2.568   1.674  0.00  0.00    +0.018 A 
ATOM     22  H   LIG    1        1.746  -3.493   5.414  0.00  0.00    +0.166 HD
ATOM     23  C   LIG    1        2.922  -2.688   2.570  0.00  0.00    +0.022 A 
ENDROOT
BRANCH   1  24
ATOM     24  C   LIG    1        0.801  -1.814   1.304  0.00  0.00    +0.341 C 
ATOM     25  O   LIG    1        0.321  -2.557   0.470  0.00  0.00    -0.245 OA
BRANCH  24  26
ATOM     26  O   LIG    1        0.693  -0.477   1.160  0.00  0.00    -0.461 OA
BRANCH  26  28
ATOM     27  C   LIG    1       -0.019   1.526   0.010  0.00  0.00    +0.048 C 
ATOM     28  C   LIG    1        0.002  -0.004   0.002  0.00  0.00    +0.229 C 
ENDBRANCH  26  28
ENDBRANCH  24  26
ENDBRANCH   1  24
BRANCH  14  29
ATOM     29  O   LIG    1       10.664  -2.758  -3.193  0.00  0.00    -0.495 OA
ATOM     30  C   LIG    1       11.935  -2.831  -2.544  0.00  0.00    +0.277 C 
ENDBRANCH  14  29
TORSDOF 4
