REMARK  Name = ZINC45336938
REMARK                            x       y       z     vdW  Elec       q    Type
REMARK                         _______ _______ _______ _____ _____    ______ ____
ROOT
ATOM      1  C   UNK A  0       -0.016   1.352   0.009  0.00  0.00    +0.012 A 
ATOM      2  C   UNK A  0        1.175   2.036   0.002  0.00  0.00    +0.021 A 
ATOM      3  C   UNK A  0        2.320   1.253  -0.013  0.00  0.00    +0.074 A 
ATOM      4  S   UNK A  0        1.636  -0.394  -0.016  0.00  0.00    -0.089 S 
ATOM      5  C   UNK A  0        0.002  -0.004   0.002  0.00  0.00    -0.009 A 
ENDROOT
BRANCH   3   6
ATOM      6  C   UNK A  0        3.725   1.670  -0.025  0.00  0.00    +0.251 C 
ATOM      7  N   GLU A  1        4.703   0.743  -0.039  0.00  0.00    -0.298 N 
ATOM      8  H   GLU A  1        4.477  -0.201  -0.042  0.00  0.00    +0.150 HD
ATOM      9  O   UNK A  0        4.008   2.853  -0.021  0.00  0.00    -0.270 OA
BRANCH   7  10
ATOM     10  CA  GLU A  1        6.107   1.160  -0.050  0.00  0.00    +0.182 C 
BRANCH  10  11
ATOM     11  C   GLU A  1        6.540   1.429  -1.468  0.00  0.00    +0.325 C 
ATOM     12  O   GLU A  1        7.403   2.260  -1.695  0.00  0.00    -0.249 OA
BRANCH  11  13
ATOM     13  OXT GLU A  1        6.027   0.816  -2.389  0.00  0.00    -0.479 OA
ATOM     14  HXT GLU A  1        5.364   0.177  -2.215  0.00  0.00    +0.295 HD
ENDBRANCH  11  13
ENDBRANCH  10  11
BRANCH  10  15
ATOM     15  CB  GLU A  1        6.974   0.048   0.545  0.00  0.00    +0.045 C 
BRANCH  15  16
ATOM     16  CG  GLU A  1        6.619  -0.140   2.022  0.00  0.00    +0.123 C 
BRANCH  16  17
ATOM     17  CD  GLU A  1        7.473  -1.234   2.608  0.00  0.00    +0.305 C 
ATOM     18  OE1 GLU A  1        8.289  -1.811   1.910  0.00  0.00    -0.251 OA
BRANCH  17  19
ATOM     19  OE2 GLU A  1        7.347  -1.543   3.781  0.00  0.00    -0.481 OA
ATOM     20  HE2 GLU A  1        6.720  -1.100   4.317  0.00  0.00    +0.295 HD
ENDBRANCH  17  19
ENDBRANCH  16  17
ENDBRANCH  15  16
ENDBRANCH  10  15
ENDBRANCH   7  10
ENDBRANCH   3   6
BRANCH   5  21
ATOM     21  C   UNK A  0       -1.174  -0.946   0.009  0.00  0.00    +0.042 C 
BRANCH  21  22
ATOM     22  C   UNK A  0       -1.587  -1.257  -1.431  0.00  0.00    +0.005 C 
BRANCH  22  23
ATOM     23  C   UNK A  0       -2.781  -2.213  -1.424  0.00  0.00    +0.006 C 
BRANCH  23  24
ATOM     24  C   UNK A  0       -3.194  -2.524  -2.864  0.00  0.00    +0.053 C 
BRANCH  24  25
ATOM     25  C   UNK A  0       -4.370  -3.466  -2.857  0.00  0.00    +0.018 A 
ATOM     26  C   UNK A  0       -4.290  -4.804  -2.764  0.00  0.00    +0.038 A 
ATOM     27  C   UNK A  0       -5.661  -5.310  -2.795  0.00  0.00    +0.083 A 
ATOM     28  C   UNK A  0       -6.493  -4.188  -2.909  0.00  0.00    +0.147 A 
ATOM     29  N   UNK A  0       -7.822  -4.361  -2.959  0.00  0.00    -0.198 NA
ATOM     30  C   UNK A  0       -8.354  -5.561  -2.904  0.00  0.00    +0.195 A 
ATOM     31  N   UNK A  0       -7.594  -6.687  -2.793  0.00  0.00    -0.295 N 
ATOM     32  H   UNK A  0       -8.021  -7.557  -2.755  0.00  0.00    +0.172 HD
ATOM     33  C   UNK A  0       -6.246  -6.595  -2.736  0.00  0.00    +0.262 A 
ATOM     34  O   UNK A  0       -5.553  -7.593  -2.637  0.00  0.00    -0.267 OA
ATOM     35  N   UNK A  0       -5.687  -3.088  -2.939  0.00  0.00    -0.343 N 
ATOM     36  H   UNK A  0       -5.998  -2.172  -3.011  0.00  0.00    +0.167 HD
BRANCH  30  37
ATOM     37  N   UNK A  0       -9.720  -5.685  -2.959  0.00  0.00    -0.329 N 
ATOM     38  H   UNK A  0      -10.129  -6.563  -2.919  0.00  0.00    +0.145 HD
ATOM     39  H   UNK A  0      -10.276  -4.894  -3.037  0.00  0.00    +0.145 HD
ENDBRANCH  30  37
ENDBRANCH  24  25
ENDBRANCH  23  24
ENDBRANCH  22  23
ENDBRANCH  21  22
ENDBRANCH   5  21
TORSDOF 14
