REMARK  Name = ZINC26954229
REMARK                            x       y       z     vdW  Elec       q    Type
REMARK                         _______ _______ _______ _____ _____    ______ ____
ROOT
ATOM      1  C   LIG    1       -0.710   1.773  -3.623  0.00  0.00    +0.017 C 
ENDROOT
BRANCH   1   2
ATOM      2  C   LIG    1       -0.109   1.057  -2.412  0.00  0.00    +0.084 C 
BRANCH   2   6
ATOM      3  N   LIG    1       -0.783   3.048   1.252  0.00  0.00    -0.327 N 
ATOM      4  C   LIG    1       -0.730   1.580   1.267  0.00  0.00    +0.120 C 
ATOM      5  C   LIG    1       -0.013   1.086   0.008  0.00  0.00    +0.103 C 
ATOM      6  N   LIG    1       -0.724   1.573  -1.182  0.00  0.00    -0.299 NA
ATOM      7  C   LIG    1       -0.777   3.042  -1.196  0.00  0.00    +0.103 C 
ATOM      8  C   LIG    1       -1.495   3.536   0.062  0.00  0.00    +0.120 C 
BRANCH   3  14
ATOM      9  C   LIG    1       -0.855   3.309   6.159  0.00  0.00    +0.044 C 
ATOM     10  C   LIG    1       -1.424   3.683   4.815  0.00  0.00    -0.049 A 
ATOM     11  C   LIG    1       -2.527   4.513   4.738  0.00  0.00    +0.003 A 
ATOM     12  C   LIG    1       -3.053   4.858   3.506  0.00  0.00    +0.002 A 
ATOM     13  C   LIG    1       -2.474   4.378   2.348  0.00  0.00    +0.023 A 
ATOM     14  C   LIG    1       -1.369   3.539   2.422  0.00  0.00    +0.030 A 
ATOM     15  C   LIG    1       -0.843   3.195   3.661  0.00  0.00    +0.026 A 
ENDBRANCH   3  14
ENDBRANCH   2   6
ENDBRANCH   1   2
BRANCH   1  16
ATOM     16  C   LIG    1       -0.068   1.236  -4.903  0.00  0.00    +0.020 C 
BRANCH  16  17
ATOM     17  C   LIG    1       -0.669   1.952  -6.114  0.00  0.00    +0.104 C 
BRANCH  17  18
ATOM     18  N   LIG    1       -0.055   1.437  -7.341  0.00  0.00    -0.309 N 
ATOM     19  H   LIG    1        0.713   0.652  -7.283  0.00  0.00    +0.149 HD
ATOM     20  C   LIG    1       -0.432   1.925  -8.539  0.00  0.00    +0.279 C 
ATOM     21  O   LIG    1       -1.282   2.794  -8.603  0.00  0.00    -0.267 OA
BRANCH  20  22
ATOM     22  C   LIG    1        0.184   1.409  -9.770  0.00  0.00    +0.190 A 
ATOM     23  C   LIG    1       -0.116   1.824 -11.027  0.00  0.00    +0.063 A 
ATOM     24  C   LIG    1        0.734   1.042 -11.925  0.00  0.00    +0.021 A 
ATOM     25  C   LIG    1        0.902   0.994 -13.311  0.00  0.00    +0.011 A 
ATOM     26  C   LIG    1        1.806   0.126 -13.854  0.00  0.00    +0.001 A 
ATOM     27  C   LIG    1        2.558  -0.708 -13.038  0.00  0.00    +0.004 A 
ATOM     28  C   LIG    1        2.407  -0.677 -11.669  0.00  0.00    +0.047 A 
ATOM     29  C   LIG    1        1.493   0.198 -11.093  0.00  0.00    +0.136 A 
ATOM     30  O   LIG    1        1.137   0.454  -9.820  0.00  0.00    -0.450 OA
ENDBRANCH  20  22
ENDBRANCH  17  18
ENDBRANCH  16  17
ENDBRANCH   1  16
TORSDOF 7
