REMARK  Name = ZINC19367353
REMARK                            x       y       z     vdW  Elec       q    Type
REMARK                         _______ _______ _______ _____ _____    ______ ____
ROOT
ATOM      1  N   LIG    1        2.427  -6.447   2.853  0.00  0.00    -0.297 NA
ATOM      2  C   LIG    1        3.489  -5.468   3.122  0.00  0.00    +0.100 C 
ATOM      3  C   LIG    1        4.034  -5.686   4.536  0.00  0.00    +0.100 C 
ATOM      4  N   LIG    1        4.544  -7.059   4.655  0.00  0.00    -0.298 NA
ATOM      5  C   LIG    1        3.482  -8.038   4.387  0.00  0.00    +0.100 C 
ATOM      6  C   LIG    1        2.937  -7.820   2.973  0.00  0.00    +0.100 C 
ENDROOT
BRANCH   1   7
ATOM      7  C   LIG    1        1.826  -6.223   1.532  0.00  0.00    +0.119 C 
BRANCH   7   8
ATOM      8  C   LIG    1        1.089  -4.881   1.528  0.00  0.00    +0.166 C 
BRANCH   8   9
ATOM      9  O   LIG    1        0.063  -4.899   2.522  0.00  0.00    -0.387 OA
ATOM     10  H   LIG    1       -0.601  -5.589   2.389  0.00  0.00    +0.210 HD
ENDBRANCH   8   9
BRANCH   8  11
ATOM     11  C   LIG    1        0.463  -4.647   0.152  0.00  0.00    +0.261 C 
BRANCH  11  12
ATOM     12  O   LIG    1       -0.124  -3.345   0.111  0.00  0.00    -0.489 OA
BRANCH  12  18
ATOM     13  C   LIG    1       -1.318  -1.726  -1.159  0.00  0.00    -0.002 A 
ATOM     14  C   LIG    1       -1.925  -1.351  -2.342  0.00  0.00    +0.007 A 
ATOM     15  C   LIG    1       -1.950  -2.223  -3.414  0.00  0.00    +0.001 A 
ATOM     16  C   LIG    1       -1.367  -3.473  -3.306  0.00  0.00    +0.004 A 
ATOM     17  C   LIG    1       -0.758  -3.852  -2.125  0.00  0.00    +0.046 A 
ATOM     18  C   LIG    1       -0.727  -2.976  -1.049  0.00  0.00    +0.124 A 
BRANCH  13  19
ATOM     19  C   LIG    1       -1.293  -0.775   0.010  0.00  0.00    +0.065 C 
BRANCH  19  21
ATOM     20  C   LIG    1       -0.016   1.306   0.009  0.00  0.00    +0.004 C 
ATOM     21  C   LIG    1        0.002  -0.004   0.002  0.00  0.00    -0.030 C 
ENDBRANCH  19  21
ENDBRANCH  13  19
ENDBRANCH  12  18
ENDBRANCH  11  12
ENDBRANCH   8  11
ENDBRANCH   7   8
ENDBRANCH   1   7
BRANCH   4  22
ATOM     22  C   LIG    1        5.145  -7.284   5.977  0.00  0.00    +0.106 C 
BRANCH  22  23
ATOM     23  C   LIG    1        5.882  -8.625   5.981  0.00  0.00    +0.144 C 
BRANCH  23  24
ATOM     24  N   LIG    1        6.481  -8.849   7.298  0.00  0.00    -0.274 N 
ATOM     25  C   LIG    1        7.731  -8.403   7.527  0.00  0.00    +0.262 A 
ATOM     26  C   LIG    1        8.366  -8.608   8.837  0.00  0.00    +0.048 A 
ATOM     27  C   LIG    1        9.650  -8.166   9.115  0.00  0.00    +0.014 A 
ATOM     28  C   LIG    1       10.208  -8.384  10.369  0.00  0.00    +0.001 A 
ATOM     29  C   LIG    1        9.520  -9.032  11.355  0.00  0.00    +0.008 A 
ATOM     30  C   LIG    1        8.216  -9.497  11.114  0.00  0.00    -0.016 A 
ATOM     31  C   LIG    1        7.467 -10.169  12.096  0.00  0.00    +0.008 A 
ATOM     32  C   LIG    1        6.203 -10.602  11.814  0.00  0.00    +0.001 A 
ATOM     33  C   LIG    1        5.623 -10.396  10.567  0.00  0.00    +0.014 A 
ATOM     34  C   LIG    1        6.329  -9.737   9.571  0.00  0.00    +0.048 A 
ATOM     35  C   LIG    1        7.639  -9.281   9.845  0.00  0.00    +0.007 A 
ATOM     36  O   LIG    1        8.338  -7.827   6.644  0.00  0.00    -0.267 OA
ATOM     37  C   LIG    1        5.760  -9.489   8.238  0.00  0.00    +0.262 A 
ATOM     38  O   LIG    1        4.633  -9.868   7.982  0.00  0.00    -0.267 OA
ENDBRANCH  23  24
ENDBRANCH  22  23
ENDBRANCH   4  22
TORSDOF 11
