REMARK  Name = ZINC19166991
REMARK                            x       y       z     vdW  Elec       q    Type
REMARK                         _______ _______ _______ _____ _____    ______ ____
ROOT
ATOM      1  C   LIG    1        3.711  -0.707  -0.038  0.00  0.00    +0.018 C 
ENDROOT
BRANCH   1   5
ATOM      2  C   LIG    1       -0.017   1.378   0.010  0.00  0.00    +0.000 A 
ATOM      3  C   LIG    1        1.171   2.086   0.002  0.00  0.00    +0.000 A 
ATOM      4  C   LIG    1        2.377   1.411  -0.013  0.00  0.00    +0.003 A 
ATOM      5  C   LIG    1        2.396   0.029  -0.020  0.00  0.00    -0.049 A 
ATOM      6  C   LIG    1        1.208  -0.679  -0.012  0.00  0.00    +0.003 A 
ATOM      7  C   LIG    1        0.002  -0.004   0.002  0.00  0.00    +0.000 A 
ENDBRANCH   1   5
BRANCH   1   8
ATOM      8  C   LIG    1        4.171  -0.963   1.399  0.00  0.00    -0.055 C 
BRANCH   8   9
ATOM      9  N   LIG    1        5.453  -1.680   1.382  0.00  0.00    +0.386 N 
ATOM     10  H   LIG    1        6.144  -1.123   0.902  0.00  0.00    -0.061 HD
ATOM     11  H   LIG    1        5.340  -2.561   0.903  0.00  0.00    -0.061 HD
BRANCH   9  12
ATOM     12  N   LIG    1        5.891  -1.924   2.747  0.00  0.00    -0.381 NA
ATOM     13  H   LIG    1        6.771  -2.416   2.762  0.00  0.00    +0.098 HD
ATOM     14  H   LIG    1        5.187  -2.425   3.268  0.00  0.00    +0.098 HD
ENDBRANCH   9  12
ENDBRANCH   8   9
ENDBRANCH   1   8
TORSDOF 4
