REMARK  Name = ZINC45367007
REMARK                            x       y       z     vdW  Elec       q    Type
REMARK                         _______ _______ _______ _____ _____    ______ ____
ROOT
ATOM      1  C   LIG    1       -1.745  -1.028  -1.429  0.00  0.00    -0.064 C 
ATOM      2  C   LIG    1       -0.734  -1.940  -2.128  0.00  0.00    +0.006 C 
ATOM      3  C   LIG    1       -0.623  -3.259  -1.357  0.00  0.00    +0.104 C 
ATOM      4  N   LIG    1       -1.965  -3.840  -1.219  0.00  0.00    -0.329 N 
ATOM      5  C   LIG    1       -3.036  -3.017  -0.641  0.00  0.00    +0.104 C 
ATOM      6  C   LIG    1       -3.120  -1.700  -1.420  0.00  0.00    +0.006 C 
ENDROOT
BRANCH   4   7
ATOM      7  C   LIG    1       -2.217  -5.145  -1.627  0.00  0.00    +0.042 A 
ATOM      8  C   LIG    1       -2.069  -6.213  -0.748  0.00  0.00    +0.043 A 
ATOM      9  C   LIG    1       -2.329  -7.497  -1.192  0.00  0.00    +0.115 A 
ATOM     10  N   LIG    1       -2.714  -7.735  -2.429  0.00  0.00    -0.237 NA
ATOM     11  C   LIG    1       -2.873  -6.758  -3.315  0.00  0.00    +0.140 A 
ATOM     12  N   LIG    1       -3.256  -6.740  -4.634  0.00  0.00    -0.346 N 
ATOM     13  H   LIG    1       -3.488  -7.523  -5.157  0.00  0.00    +0.167 HD
ATOM     14  C   LIG    1       -3.278  -5.450  -5.098  0.00  0.00    +0.085 A 
ATOM     15  C   LIG    1       -2.904  -4.609  -4.121  0.00  0.00    +0.031 A 
ATOM     16  C   LIG    1       -2.634  -5.426  -2.937  0.00  0.00    +0.040 A 
ENDBRANCH   4   7
BRANCH   1  17
ATOM     17  N   LIG    1       -1.830   0.251  -2.147  0.00  0.00    +0.382 N 
ATOM     18  H   LIG    1       -2.496   0.852  -1.686  0.00  0.00    -0.089 HD
ATOM     19  H   LIG    1       -2.128   0.084  -3.096  0.00  0.00    -0.089 HD
ATOM     20  H   LIG    1       -0.924   0.694  -2.152  0.00  0.00    -0.089 HD
ENDBRANCH   1  17
BRANCH   1  21
ATOM     21  C   LIG    1       -1.293  -0.775   0.011  0.00  0.00    +0.022 C 
BRANCH  21  28
ATOM     22  C   LIG    1       -0.017   1.378   0.010  0.00  0.00    +0.005 A 
ATOM     23  C   LIG    1        1.171   2.086   0.002  0.00  0.00    +0.020 A 
ATOM     24  C   LIG    1        2.378   1.410  -0.013  0.00  0.00    +0.041 A 
ATOM     25 CL   LIG    1        3.870   2.298  -0.023  0.00  0.00    -0.084 Cl
ATOM     26  C   LIG    1        2.396   0.027  -0.021  0.00  0.00    +0.020 A 
ATOM     27  C   LIG    1        1.208  -0.679  -0.013  0.00  0.00    +0.005 A 
ATOM     28  C   LIG    1        0.002  -0.004   0.002  0.00  0.00    -0.049 A 
ENDBRANCH  21  28
ENDBRANCH   1  21
TORSDOF 4
