REMARK  Name = ZINC49793374
REMARK                            x       y       z     vdW  Elec       q    Type
REMARK                         _______ _______ _______ _____ _____    ______ ____
ROOT
ATOM      1  N   LIG    1        3.556  -0.455  -0.088  0.00  0.00    -0.268 N 
ATOM      2  H   LIG    1        3.658  -1.415   0.006  0.00  0.00    +0.156 HD
ATOM      3  C   LIG    1        4.642   0.327  -0.249  0.00  0.00    +0.308 C 
ATOM      4  N   LIG    1        5.859  -0.233  -0.396  0.00  0.00    -0.269 N 
ATOM      5  H   LIG    1        5.963  -1.194  -0.317  0.00  0.00    +0.156 HD
ATOM      6  O   LIG    1        4.524   1.537  -0.262  0.00  0.00    -0.252 OA
ENDROOT
BRANCH   4   7
ATOM      7  C   LIG    1        6.972   0.572  -0.662  0.00  0.00    +0.038 A 
ATOM      8  C   LIG    1        7.067   1.836  -0.096  0.00  0.00    +0.043 A 
ATOM      9  C   LIG    1        8.168   2.630  -0.360  0.00  0.00    +0.044 A 
ATOM     10 CL   LIG    1        8.287   4.211   0.346  0.00  0.00    -0.083 Cl
ATOM     11  C   LIG    1        9.175   2.165  -1.188  0.00  0.00    +0.040 A 
ATOM     12  C   LIG    1        9.082   0.905  -1.753  0.00  0.00    +0.044 A 
ATOM     13 CL   LIG    1       10.347   0.326  -2.792  0.00  0.00    -0.083 Cl
ATOM     14  C   LIG    1        7.987   0.105  -1.487  0.00  0.00    +0.043 A 
ENDBRANCH   4   7
BRANCH   1  18
ATOM     15  C   LIG    1       -0.246   1.256   0.006  0.00  0.00    +0.001 A 
ATOM     16  C   LIG    1        0.793   1.895  -0.651  0.00  0.00    +0.002 A 
ATOM     17  C   LIG    1        2.052   1.332  -0.684  0.00  0.00    +0.024 A 
ATOM     18  C   LIG    1        2.287   0.116  -0.056  0.00  0.00    +0.049 A 
ATOM     19  C   LIG    1        1.237  -0.535   0.612  0.00  0.00    +0.080 A 
ATOM     20  C   LIG    1       -0.034   0.049   0.635  0.00  0.00    +0.017 A 
BRANCH  19  21
ATOM     21  C   LIG    1        1.471  -1.825   1.281  0.00  0.00    +0.339 C 
ATOM     22  O   LIG    1        0.534  -2.436   1.777  0.00  0.00    -0.245 OA
BRANCH  21  23
ATOM     23  O   LIG    1        2.603  -2.285   1.342  0.00  0.00    -0.477 OA
ATOM     24  H   LIG    1        3.321  -1.817   0.962  0.00  0.00    +0.295 HD
ENDBRANCH  21  23
ENDBRANCH  19  21
ENDBRANCH   1  18
TORSDOF 4
