REMARK  Name = ZINC00009344
REMARK                            x       y       z     vdW  Elec       q    Type
REMARK                         _______ _______ _______ _____ _____    ______ ____
ROOT
ATOM      1  C   LIG    1       -2.505   4.095   0.919  0.00  0.00    +0.072 A 
ATOM      2  C   LIG    1       -1.356   3.313   0.945  0.00  0.00    +0.037 A 
ATOM      3  C   LIG    1       -1.224   2.275   0.021  0.00  0.00    -0.011 A 
ATOM      4  C   LIG    1       -2.259   2.072  -0.899  0.00  0.00    +0.028 A 
ATOM      5  C   LIG    1       -3.369   2.889  -0.856  0.00  0.00    +0.112 A 
ATOM      6  N   LIG    1       -3.463   3.861   0.030  0.00  0.00    -0.255 NA
ENDROOT
BRANCH   1  10
ATOM      7  C   LIG    1       -2.955   7.269   3.712  0.00  0.00    +0.000 A 
ATOM      8  C   LIG    1       -3.950   7.021   2.785  0.00  0.00    +0.001 A 
ATOM      9  C   LIG    1       -3.810   5.993   1.876  0.00  0.00    +0.010 A 
ATOM     10  C   LIG    1       -2.662   5.203   1.893  0.00  0.00    +0.000 A 
ATOM     11  C   LIG    1       -1.665   5.453   2.834  0.00  0.00    +0.010 A 
ATOM     12  C   LIG    1       -1.813   6.489   3.734  0.00  0.00    +0.001 A 
ENDBRANCH   1  10
BRANCH   3  13
ATOM     13  C   LIG    1       -0.017   1.414   0.010  0.00  0.00    +0.029 A 
ATOM     14  C   LIG    1        1.278   1.841  -0.000  0.00  0.00    +0.114 A 
ATOM     15  N   LIG    1        2.071   0.751  -0.014  0.00  0.00    -0.284 N 
ATOM     16  N   LIG    1        1.260  -0.389  -0.012  0.00  0.00    -0.172 NA
ATOM     17  H   LIG    1        3.071   0.757  -0.023  0.00  0.00    +0.188 HD
ATOM     18  C   LIG    1        0.002  -0.004   0.002  0.00  0.00    +0.118 A 
BRANCH  18  19
ATOM     19  C   LIG    1       -1.184  -0.894   0.009  0.00  0.00    +0.091 A 
ATOM     20  C   LIG    1       -1.083  -2.183  -0.510  0.00  0.00    +0.030 A 
ATOM     21  C   LIG    1       -2.199  -3.002  -0.497  0.00  0.00    +0.004 A 
ATOM     22  C   LIG    1       -3.380  -2.504   0.036  0.00  0.00    +0.020 A 
ATOM     23  C   LIG    1       -3.409  -1.215   0.534  0.00  0.00    +0.111 A 
ATOM     24  N   LIG    1       -2.330  -0.458   0.515  0.00  0.00    -0.253 NA
ENDBRANCH  18  19
ENDBRANCH   3  13
TORSDOF 3
