REMARK  Name = ZINC14947264
REMARK                            x       y       z     vdW  Elec       q    Type
REMARK                         _______ _______ _______ _____ _____    ______ ____
ROOT
ATOM      1  C   LIG    1       -2.899   2.256  -5.259  0.00  0.00    +0.016 C 
ENDROOT
BRANCH   1   2
ATOM      2  C   LIG    1       -2.796   3.145  -4.018  0.00  0.00    +0.081 C 
BRANCH   2   3
ATOM      3  N   LIG    1       -1.427   3.087  -3.487  0.00  0.00    -0.313 NA
ATOM      4  H   LIG    1       -0.761   3.421  -4.168  0.00  0.00    +0.122 HD
BRANCH   3  17
ATOM      5  C   LIG    1       -0.788   7.258  -3.470  0.00  0.00    +0.000 C 
ATOM      6  C   LIG    1       -0.694   7.930  -2.254  0.00  0.00    +0.002 C 
ATOM      7  C   LIG    1       -0.801   7.263  -1.073  0.00  0.00    +0.019 C 
ATOM      8  C   LIG    1       -1.012   5.873  -1.073  0.00  0.00    +0.058 C 
ATOM      9  N   LIG    1       -1.116   5.232   0.141  0.00  0.00    -0.310 NA
ATOM     10  H   LIG    1       -1.044   5.740   1.031  0.00  0.00    +0.122 HD
ATOM     11  C   LIG    1       -1.320   3.882   0.098  0.00  0.00    +0.058 C 
ATOM     12  C   LIG    1       -1.411   3.236   1.458  0.00  0.00    +0.019 C 
ATOM     13  C   LIG    1       -2.062   1.859   1.356  0.00  0.00    +0.002 C 
ATOM     14  C   LIG    1       -1.331   1.055   0.274  0.00  0.00    +0.000 C 
ATOM     15  C   LIG    1       -1.665   1.665  -1.086  0.00  0.00    +0.006 C 
ATOM     16  C   LIG    1       -1.430   3.152  -1.073  0.00  0.00    +0.023 C 
ATOM     17  C   LIG    1       -1.324   3.798  -2.301  0.00  0.00    +0.063 C 
ATOM     18  C   LIG    1       -1.109   5.194  -2.311  0.00  0.00    +0.023 C 
ATOM     19  C   LIG    1       -0.993   5.912  -3.509  0.00  0.00    +0.006 C 
ENDBRANCH   3  17
ENDBRANCH   2   3
ENDBRANCH   1   2
BRANCH   1  20
ATOM     20  C   LIG    1       -4.324   2.316  -5.812  0.00  0.00    +0.016 C 
BRANCH  20  21
ATOM     21  C   LIG    1       -4.428   1.427  -7.053  0.00  0.00    +0.081 C 
BRANCH  21  22
ATOM     22  N   LIG    1       -5.796   1.484  -7.583  0.00  0.00    -0.313 NA
ATOM     23  H   LIG    1       -6.473   1.277  -6.864  0.00  0.00    +0.122 HD
BRANCH  22  24
ATOM     24  C   LIG    1       -5.946   0.632  -8.666  0.00  0.00    +0.063 C 
ATOM     25  C   LIG    1       -6.216  -0.741  -8.474  0.00  0.00    +0.023 C 
ATOM     26  C   LIG    1       -6.351  -1.291  -7.192  0.00  0.00    +0.006 C 
ATOM     27  C   LIG    1       -6.619  -2.620  -7.054  0.00  0.00    +0.000 C 
ATOM     28  C   LIG    1       -6.764  -3.438  -8.172  0.00  0.00    +0.002 C 
ATOM     29  C   LIG    1       -6.643  -2.935  -9.431  0.00  0.00    +0.019 C 
ATOM     30  C   LIG    1       -6.368  -1.568  -9.612  0.00  0.00    +0.058 C 
ATOM     31  N   LIG    1       -6.252  -1.095 -10.900  0.00  0.00    -0.310 NA
ATOM     32  H   LIG    1       -6.364  -1.709 -11.716  0.00  0.00    +0.122 HD
ATOM     33  C   LIG    1       -5.981   0.237 -11.033  0.00  0.00    +0.058 C 
ATOM     34  C   LIG    1       -5.855   0.692 -12.466  0.00  0.00    +0.019 C 
ATOM     35  C   LIG    1       -5.992   2.210 -12.562  0.00  0.00    +0.002 C 
ATOM     36  C   LIG    1       -5.021   2.849 -11.562  0.00  0.00    +0.000 C 
ATOM     37  C   LIG    1       -5.537   2.574 -10.150  0.00  0.00    +0.006 C 
ATOM     38  C   LIG    1       -5.827   1.107  -9.969  0.00  0.00    +0.023 C 
ENDBRANCH  22  24
ENDBRANCH  21  22
ENDBRANCH  20  21
ENDBRANCH   1  20
TORSDOF 7
