REMARK  Name = ZINC18115268
REMARK                            x       y       z     vdW  Elec       q    Type
REMARK                         _______ _______ _______ _____ _____    ______ ____
ROOT
ATOM      1  C   LIG    1        1.396   0.480  -4.912  0.00  0.00    +0.106 C 
ENDROOT
BRANCH   1   2
ATOM      2  S   LIG    1        1.515  -0.094  -3.195  0.00  0.00    -0.151 S 
BRANCH   2   3
ATOM      3  C   LIG    1       -0.212  -0.246  -2.662  0.00  0.00    +0.124 C 
BRANCH   3   6
ATOM      4  C   LIG    1       -0.231   1.557  -0.103  0.00  0.00    +0.067 C 
ATOM      5  C   LIG    1       -0.266   0.050  -0.130  0.00  0.00    +0.060 A 
ATOM      6  C   LIG    1       -0.257  -0.722  -1.233  0.00  0.00    +0.048 A 
ATOM      7  N   LIG    1       -0.298  -2.022  -0.807  0.00  0.00    -0.347 N 
ATOM      8  C   LIG    1       -0.330  -1.999   0.543  0.00  0.00    +0.196 A 
ATOM      9  H   LIG    1       -0.302  -2.812  -1.370  0.00  0.00    +0.167 HD
ATOM     10  N   LIG    1       -0.306  -0.757   0.941  0.00  0.00    -0.241 NA
ENDBRANCH   3   6
ENDBRANCH   2   3
ENDBRANCH   1   2
BRANCH   1  11
ATOM     11  C   LIG    1        2.802   0.653  -5.490  0.00  0.00    +0.206 C 
BRANCH  11  12
ATOM     12  N   LIG    1        2.706   1.117  -6.876  0.00  0.00    -0.274 N 
ATOM     13  H   LIG    1        1.836   1.264  -7.279  0.00  0.00    +0.258 HD
BRANCH  12  14
ATOM     14  C   LIG    1        3.842   1.341  -7.601  0.00  0.00    +0.397 C 
ATOM     15  N   LIG    1        3.755   1.760  -8.852  0.00  0.00    +0.010 NA
BRANCH  14  16
ATOM     16  N   LIG    1        5.067   1.134  -7.034  0.00  0.00    -0.278 N 
ATOM     17  H   LIG    1        5.131   0.768  -6.138  0.00  0.00    +0.258 HD
ATOM     18  C   LIG    1        6.285   1.465  -7.778  0.00  0.00    +0.239 C 
ENDBRANCH  14  16
BRANCH  15  19
ATOM     19  C   LIG    1        4.876   2.115  -9.527  0.00  0.00    +0.295 C 
ATOM     20  N   LIG    1        5.815   2.413 -10.092  0.00  0.00    -0.151 NA
ENDBRANCH  15  19
ENDBRANCH  12  14
ENDBRANCH  11  12
ENDBRANCH   1  11
TORSDOF 8
