REMARK  Name = ZINC13814276
REMARK                            x       y       z     vdW  Elec       q    Type
REMARK                         _______ _______ _______ _____ _____    ______ ____
ROOT
ATOM      1  C   LIG    1        2.985   3.614  -0.007  0.00  0.00    +0.155 C 
ATOM      2  N   LIG    1        1.595   3.152   0.004  0.00  0.00    -0.280 N 
ATOM      3  C   LIG    1        1.316   1.794  -0.001  0.00  0.00    +0.170 A 
ATOM      4  C   LIG    1       -0.017   1.383   0.010  0.00  0.00    +0.157 A 
ATOM      5  N   LIG    1        0.002  -0.004   0.002  0.00  0.00    -0.277 N 
ATOM      6  C   LIG    1       -0.779  -1.142   0.003  0.00  0.00    +0.121 A 
ATOM      7  C   LIG    1        0.035  -2.212  -0.010  0.00  0.00    +0.074 A 
ATOM      8  N   LIG    1        1.346  -1.753  -0.020  0.00  0.00    -0.275 N 
ATOM      9  C   LIG    1        1.308  -0.381  -0.013  0.00  0.00    +0.223 A 
ATOM     10  C   LIG    1       -1.032   2.353   0.019  0.00  0.00    +0.280 A 
ATOM     11  N   LIG    1       -0.698   3.660   0.028  0.00  0.00    -0.273 N 
ATOM     12  H   LIG    1       -1.420   4.352   0.043  0.00  0.00    +0.173 HD
ATOM     13  O   LIG    1       -2.204   2.017   0.022  0.00  0.00    -0.265 OA
ATOM     14  N   LIG    1        2.074   0.700  -0.014  0.00  0.00    -0.193 NA
ATOM     15  C   LIG    1        0.589   4.047   0.018  0.00  0.00    +0.331 A 
ATOM     16  O   LIG    1        0.851   5.234   0.021  0.00  0.00    -0.246 OA
ENDROOT
BRANCH   7  17
ATOM     17  C   LIG    1       -0.391  -3.629  -0.014  0.00  0.00    +0.000 A 
ATOM     18  C   LIG    1        0.559  -4.647   0.071  0.00  0.00    +0.010 A 
ATOM     19  C   LIG    1        0.155  -5.966   0.074  0.00  0.00    +0.001 A 
ATOM     20  C   LIG    1       -1.188  -6.281  -0.020  0.00  0.00    +0.000 A 
ATOM     21  C   LIG    1       -2.136  -5.277  -0.111  0.00  0.00    +0.001 A 
ATOM     22  C   LIG    1       -1.745  -3.954  -0.108  0.00  0.00    +0.010 A 
ENDBRANCH   7  17
BRANCH   8  23
ATOM     23  C   LIG    1        2.500  -2.548  -0.035  0.00  0.00    +0.091 A 
ATOM     24  C   LIG    1        3.084  -2.949   1.158  0.00  0.00    +0.030 A 
ATOM     25  C   LIG    1        4.222  -3.733   1.141  0.00  0.00    +0.002 A 
ATOM     26  C   LIG    1        4.780  -4.121  -0.064  0.00  0.00    +0.004 A 
ATOM     27  C   LIG    1        4.204  -3.726  -1.256  0.00  0.00    +0.048 A 
ATOM     28  C   LIG    1        3.061  -2.943  -1.248  0.00  0.00    +0.144 A 
BRANCH  28  29
ATOM     29  O   LIG    1        2.489  -2.558  -2.420  0.00  0.00    -0.493 OA
ATOM     30  C   LIG    1        3.119  -3.001  -3.624  0.00  0.00    +0.277 C 
ENDBRANCH  28  29
ENDBRANCH   8  23
TORSDOF 3
