REMARK  Name = ZINC35077985
REMARK                            x       y       z     vdW  Elec       q    Type
REMARK                         _______ _______ _______ _____ _____    ______ ____
ROOT
ATOM      1  C   LIG    1        0.033  -0.637   2.387  0.00  0.00    +0.217 A 
ATOM      2  N   LIG    1       -1.257  -0.340   2.441  0.00  0.00    -0.221 NA
ATOM      3  C   LIG    1       -1.939  -0.469   3.569  0.00  0.00    +0.137 A 
ATOM      4  C   LIG    1       -1.291  -0.920   4.704  0.00  0.00    +0.099 A 
ATOM      5 CL   LIG    1       -2.148  -1.102   6.202  0.00  0.00    -0.078 Cl
ATOM      6  C   LIG    1        0.070  -1.225   4.616  0.00  0.00    +0.148 A 
ATOM      7  N   LIG    1        0.690  -1.077   3.450  0.00  0.00    -0.198 NA
ENDROOT
BRANCH   1   8
ATOM      8  N   LIG    1        0.711  -0.489   1.189  0.00  0.00    -0.305 N 
ATOM      9  H   LIG    1        1.654  -0.707   1.135  0.00  0.00    +0.150 HD
BRANCH   8  11
ATOM     10  C   LIG    1       -0.019   1.526   0.010  0.00  0.00    +0.034 C 
ATOM     11  C   LIG    1        0.002  -0.004   0.002  0.00  0.00    +0.119 C 
BRANCH  11  12
ATOM     12  C   LIG    1        0.707  -0.490  -1.238  0.00  0.00    +0.061 A 
ATOM     13  C   LIG    1        0.001  -0.617  -2.420  0.00  0.00    +0.028 A 
ATOM     14  C   LIG    1        0.658  -1.064  -3.555  0.00  0.00    +0.042 A 
ATOM     15  C   LIG    1        2.010  -1.370  -3.459  0.00  0.00    +0.141 A 
ATOM     16  F   LIG    1        2.691  -1.810  -4.539  0.00  0.00    -0.204 F 
ATOM     17  C   LIG    1        2.650  -1.218  -2.241  0.00  0.00    +0.149 A 
ATOM     18  N   LIG    1        1.992  -0.784  -1.183  0.00  0.00    -0.255 NA
ENDBRANCH  11  12
ENDBRANCH   8  11
ENDBRANCH   1   8
BRANCH   6  19
ATOM     19  N   LIG    1        0.761  -1.680   5.729  0.00  0.00    -0.283 N 
ATOM     20  H   LIG    1        0.301  -1.789   6.575  0.00  0.00    +0.155 HD
BRANCH  19  21
ATOM     21  C   LIG    1        2.118  -1.982   5.630  0.00  0.00    +0.123 A 
ATOM     22  C   LIG    1        2.887  -1.871   4.513  0.00  0.00    +0.112 A 
ATOM     23  C   LIG    1        4.188  -2.272   4.846  0.00  0.00    +0.236 A 
ATOM     24  N   LIG    1        4.203  -2.611   6.113  0.00  0.00    -0.135 NA
ATOM     25  N   LIG    1        2.915  -2.433   6.633  0.00  0.00    -0.260 N 
ATOM     26  H   LIG    1        2.640  -2.604   7.548  0.00  0.00    +0.190 HD
BRANCH  23  27
ATOM     27  O   LIG    1        5.252  -2.306   4.000  0.00  0.00    -0.473 OA
BRANCH  27  28
ATOM     28  C   LIG    1        6.498  -2.749   4.543  0.00  0.00    +0.169 C 
ATOM     29  C   LIG    1        7.270  -1.549   5.095  0.00  0.00    +0.051 C 
ATOM     30  C   LIG    1        7.322  -3.423   3.443  0.00  0.00    +0.051 C 
ENDBRANCH  27  28
ENDBRANCH  23  27
ENDBRANCH  19  21
ENDBRANCH   6  19
TORSDOF 7
