REMARK  Name = ZINC29322759
REMARK                            x       y       z     vdW  Elec       q    Type
REMARK                         _______ _______ _______ _____ _____    ______ ____
ROOT
ATOM      1  C   LIG    1       -0.475  -3.929   5.109  0.00  0.00    +0.046 C 
ATOM      2  C   LIG    1       -1.601  -3.674   6.142  0.00  0.00    +0.124 C 
ATOM      3  C   LIG    1       -1.309  -4.733   7.234  0.00  0.00    +0.063 C 
ATOM      4  C   LIG    1       -0.848  -5.975   6.443  0.00  0.00    +0.121 C 
ATOM      5  C   LIG    1       -0.319  -5.464   5.092  0.00  0.00    +0.031 C 
ENDROOT
BRANCH   1   7
ATOM      6  C   LIG    1       -0.120  -2.576   3.108  0.00  0.00    -0.000 C 
ATOM      7  C   LIG    1       -0.884  -3.426   3.749  0.00  0.00    -0.022 C 
BRANCH   6   8
ATOM      8  C   LIG    1       -0.529  -2.073   1.748  0.00  0.00    +0.137 C 
BRANCH   8   9
ATOM      9  O   LIG    1       -1.830  -2.571   1.426  0.00  0.00    -0.388 OA
ATOM     10  H   LIG    1       -2.006  -3.655   1.372  0.00  0.00    +0.210 HD
ENDBRANCH   8   9
BRANCH   8  11
ATOM     11  C   LIG    1       -0.557  -0.543   1.757  0.00  0.00    +0.040 C 
BRANCH  11  12
ATOM     12  C   LIG    1       -0.850  -0.030   0.346  0.00  0.00    +0.038 C 
BRANCH  12  15
ATOM     13  C   LIG    1       -2.088   3.528   0.601  0.00  0.00    +0.001 A 
ATOM     14  C   LIG    1       -2.064   2.145   0.589  0.00  0.00    +0.003 A 
ATOM     15  C   LIG    1       -0.877   1.477   0.355  0.00  0.00    -0.047 A 
ATOM     16  C   LIG    1        0.284   2.191   0.124  0.00  0.00    +0.016 A 
ATOM     17  C   LIG    1        0.259   3.573   0.132  0.00  0.00    +0.055 A 
ATOM     18  C   LIG    1       -0.927   4.241   0.371  0.00  0.00    +0.012 A 
BRANCH  17  19
ATOM     19  C   LIG    1        1.525   4.351  -0.119  0.00  0.00    +0.417 C 
ATOM     20  F   LIG    1        2.624   3.611   0.331  0.00  0.00    -0.166 F 
ATOM     21  F   LIG    1        1.469   5.568   0.568  0.00  0.00    -0.166 F 
ATOM     22  F   LIG    1        1.658   4.595  -1.490  0.00  0.00    -0.166 F 
ENDBRANCH  17  19
ENDBRANCH  12  15
ENDBRANCH  11  12
ENDBRANCH   8  11
ENDBRANCH   6   8
ENDBRANCH   1   7
BRANCH   2  23
ATOM     23  O   LIG    1       -1.504  -2.353   6.679  0.00  0.00    -0.391 OA
ATOM     24  H   LIG    1       -2.232  -2.010   7.430  0.00  0.00    +0.210 HD
ENDBRANCH   2  23
BRANCH   4  25
ATOM     25  O   LIG    1        0.192  -6.650   7.154  0.00  0.00    -0.391 OA
ATOM     26  H   LIG    1        0.642  -7.562   6.734  0.00  0.00    +0.210 HD
ENDBRANCH   4  25
BRANCH   5  27
ATOM     27  C   LIG    1        1.156  -5.838   4.932  0.00  0.00    +0.033 C 
BRANCH  27  28
ATOM     28  C   LIG    1        1.283  -7.334   4.794  0.00  0.00    -0.031 C 
ATOM     29  C   LIG    1        1.948  -7.845   3.788  0.00  0.00    -0.031 C 
BRANCH  29  30
ATOM     30  C   LIG    1        2.729  -6.944   2.866  0.00  0.00    +0.027 C 
BRANCH  30  31
ATOM     31  C   LIG    1        4.175  -7.436   2.776  0.00  0.00    +0.015 C 
BRANCH  31  32
ATOM     32  C   LIG    1        4.968  -6.521   1.840  0.00  0.00    +0.121 C 
BRANCH  32  33
ATOM     33  C   LIG    1        6.392  -7.005   1.752  0.00  0.00    +0.305 C 
ATOM     34  O   LIG    1        6.738  -7.982   2.374  0.00  0.00    -0.251 OA
BRANCH  33  35
ATOM     35  O   LIG    1        7.277  -6.352   0.983  0.00  0.00    -0.481 OA
ATOM     36  H   LIG    1        7.009  -5.595   0.500  0.00  0.00    +0.295 HD
ENDBRANCH  33  35
ENDBRANCH  32  33
ENDBRANCH  31  32
ENDBRANCH  30  31
ENDBRANCH  29  30
ENDBRANCH  27  28
ENDBRANCH   5  27
TORSDOF 16
