REMARK  Name = ZINC34031217
REMARK                            x       y       z     vdW  Elec       q    Type
REMARK                         _______ _______ _______ _____ _____    ______ ____
ROOT
ATOM      1  C   LIG    1        3.312   5.996  -3.094  0.00  0.00    +0.004 C 
ATOM      2  C   LIG    1        3.515   5.230  -1.788  0.00  0.00    +0.002 C 
ATOM      3  C   LIG    1        2.394   5.619  -0.822  0.00  0.00    -0.025 C 
ATOM      4  C   LIG    1        2.639   4.994   0.550  0.00  0.00    -0.078 C 
ATOM      5  N   LIG    1        2.558   3.532   0.470  0.00  0.00    +0.388 N 
ATOM      6  H1  LIG    1        2.740   3.100   1.465  0.00  0.00    -0.085 HD
ATOM      7  H2  LIG    1        3.315   3.160  -0.236  0.00  0.00    -0.085 HD
ATOM      8  CA  LIG    1        1.235   3.094   0.007  0.00  0.00    +0.039 C 
ATOM      9  C   LIG    1        1.007   3.620  -1.415  0.00  0.00    -0.001 C 
ATOM     10  C   LIG    1        1.060   5.146  -1.392  0.00  0.00    -0.010 C 
ATOM     11  C   LIG    1        0.800   5.737  -2.766  0.00  0.00    +0.007 C 
ATOM     12  C   LIG    1        1.969   5.669  -3.729  0.00  0.00    -0.010 C 
ENDROOT
BRANCH   8  13
ATOM     13  C   LIG    1        1.177   1.588  -0.001  0.00  0.00    +0.291 C 
ATOM     14  O   LIG    1        2.199   0.944  -0.014  0.00  0.00    -0.253 OA
BRANCH  13  15
ATOM     15  OXT LIG    1       -0.011   0.963   0.007  0.00  0.00    -0.482 OA
ATOM     16  HXT LIG    1       -0.804   1.462   0.018  0.00  0.00    +0.295 HD
ENDBRANCH  13  15
ENDBRANCH   8  13
BRANCH  12  17
ATOM     17  C   LIG    1        2.024   4.318  -4.443  0.00  0.00    +0.011 C 
BRANCH  17  18
ATOM     18  C   LIG    1        3.138   4.340  -5.491  0.00  0.00    +0.078 C 
BRANCH  18  19
ATOM     19  C   LIG    1        3.193   3.008  -6.194  0.00  0.00    +0.149 A 
ATOM     20  N   LIG    1        3.921   1.950  -5.836  0.00  0.00    -0.114 NA
ATOM     21  N   LIG    1        3.685   1.014  -6.691  0.00  0.00    -0.023 NA
ATOM     22  N   LIG    1        2.842   1.450  -7.561  0.00  0.00    -0.047 NA
ATOM     23  N   LIG    1        2.533   2.668  -7.274  0.00  0.00    -0.243 N 
ATOM     24  H   LIG    1        1.912   3.242  -7.778  0.00  0.00    +0.192 HD
ENDBRANCH  18  19
ENDBRANCH  17  18
ENDBRANCH  12  17
TORSDOF 5
