REMARK  Name = ZINC53122793
REMARK                            x       y       z     vdW  Elec       q    Type
REMARK                         _______ _______ _______ _____ _____    ______ ____
ROOT
ATOM      1  CA  LIG    1        1.417   2.055  -0.000  0.00  0.00    +0.159 C 
ENDROOT
BRANCH   1   2
ATOM      2  N   LIG    1        2.067   1.682  -1.264  0.00  0.00    -0.318 NA
ATOM      3  H1  LIG    1        1.573   2.071  -2.053  0.00  0.00    +0.119 HD
ATOM      4  H2  LIG    1        2.149   0.680  -1.346  0.00  0.00    +0.119 HD
ENDBRANCH   1   2
BRANCH   1   5
ATOM      5  C   LIG    1        1.399   3.557   0.132  0.00  0.00    +0.322 C 
ATOM      6  O   LIG    1        1.071   4.072   1.187  0.00  0.00    -0.249 OA
BRANCH   5   7
ATOM      7  OXT LIG    1        1.714   4.255  -0.817  0.00  0.00    -0.480 OA
ATOM      8  HXT LIG    1        1.966   3.859  -1.627  0.00  0.00    +0.295 HD
ENDBRANCH   5   7
ENDBRANCH   1   5
BRANCH   1   9
ATOM      9  C   LIG    1       -0.019   1.526   0.010  0.00  0.00    +0.010 C 
BRANCH   9  10
ATOM     10  C   LIG    1        0.002  -0.004   0.002  0.00  0.00    -0.084 C 
BRANCH  10  11
ATOM     11  N   LIG    1       -1.376  -0.512   0.012  0.00  0.00    +0.378 N 
ATOM     12  H   LIG    1       -1.362  -1.521   0.007  0.00  0.00    -0.090 HD
ATOM     13  H   LIG    1       -1.864  -0.178  -0.805  0.00  0.00    -0.090 HD
ATOM     14  H   LIG    1       -1.848  -0.187   0.843  0.00  0.00    -0.090 HD
ENDBRANCH  10  11
ENDBRANCH   9  10
ENDBRANCH   1   9
TORSDOF 6
