REMARK  Name = ZINC71280869
REMARK                            x       y       z     vdW  Elec       q    Type
REMARK                         _______ _______ _______ _____ _____    ______ ____
ROOT
ATOM      1  C   LIG    1        3.539   0.591  -0.594  0.00  0.00    +0.251 C 
ATOM      2  N   LIG    1        4.452   1.283  -1.254  0.00  0.00    -0.291 N 
ATOM      3  H   LIG    1        5.394   1.154  -1.058  0.00  0.00    +0.301 HD
ATOM      4  H   LIG    1        4.181   1.919  -1.934  0.00  0.00    +0.301 HD
ENDROOT
BRANCH   1   7
ATOM      5  C   LIG    1       -0.019   1.539   0.011  0.00  0.00    +0.017 C 
ATOM      6  C   LIG    1        1.488   1.909  -0.002  0.00  0.00    +0.032 C 
ATOM      7  C   LIG    1        2.077   0.791  -0.898  0.00  0.00    +0.165 C 
ATOM      8  N   LIG    1        1.306  -0.420  -0.547  0.00  0.00    -0.304 NA
ATOM      9  H   LIG    1        1.186  -1.018  -1.351  0.00  0.00    +0.123 HD
ATOM     10  C   LIG    1        0.002  -0.004   0.002  0.00  0.00    +0.082 C 
ENDBRANCH   1   7
BRANCH   1  11
ATOM     11  N   LIG    1        3.909  -0.275   0.333  0.00  0.00    -0.253 N 
ATOM     12  H   LIG    1        4.851  -0.404   0.529  0.00  0.00    +0.288 HD
ATOM     13  H   LIG    1        3.240  -0.783   0.818  0.00  0.00    +0.288 HD
ENDBRANCH   1  11
TORSDOF 2
