REMARK  Name = ZINC36175378
REMARK                            x       y       z     vdW  Elec       q    Type
REMARK                         _______ _______ _______ _____ _____    ______ ____
ROOT
ATOM      1  C   LIG    1        0.655  -0.605  -1.027  0.00  0.00    +0.124 A 
ATOM      2  C   LIG    1        1.220   0.172  -2.037  0.00  0.00    +0.046 A 
ATOM      3  C   LIG    1        1.815  -0.421  -3.113  0.00  0.00    +0.016 A 
ATOM      4  C   LIG    1        1.858  -1.814  -3.203  0.00  0.00    +0.025 A 
ATOM      5  C   LIG    1        2.495  -2.479  -4.354  0.00  0.00    -0.007 A 
ATOM      6  C   LIG    1        2.502  -3.862  -4.378  0.00  0.00    +0.100 A 
ATOM      7  C   LIG    1        1.908  -4.577  -3.315  0.00  0.00    +0.338 A 
ATOM      8  O   LIG    1        1.334  -3.951  -2.277  0.00  0.00    -0.422 OA
ATOM      9  O   LIG    1        1.918  -5.795  -3.342  0.00  0.00    -0.245 OA
ATOM     10  C   LIG    1        1.291  -2.605  -2.189  0.00  0.00    +0.143 A 
ATOM     11  C   LIG    1        0.694  -1.988  -1.099  0.00  0.00    +0.092 A 
ENDROOT
BRANCH   1  13
ATOM     12  C   LIG    1        0.059   1.427   0.052  0.00  0.00    +0.277 C 
ATOM     13  O   LIG    1        0.066  -0.002   0.038  0.00  0.00    -0.495 OA
ENDBRANCH   1  13
BRANCH   5  14
ATOM     14  C   LIG    1        3.104  -1.697  -5.443  0.00  0.00    +0.016 C 
ATOM     15  C   LIG    1        3.783  -2.324  -6.425  0.00  0.00    +0.092 C 
BRANCH  15  16
ATOM     16  C   LIG    1        4.484  -1.540  -7.446  0.00  0.00    +0.330 C 
ATOM     17  O   LIG    1        4.454  -0.317  -7.407  0.00  0.00    -0.246 OA
BRANCH  16  18
ATOM     18  O   LIG    1        5.101  -2.109  -8.338  0.00  0.00    -0.478 OA
ATOM     19  H   LIG    1        5.124  -3.045  -8.368  0.00  0.00    +0.295 HD
ENDBRANCH  16  18
ENDBRANCH  15  16
ENDBRANCH   5  14
TORSDOF 4
