REMARK  Name = ZINC19287602
REMARK                            x       y       z     vdW  Elec       q    Type
REMARK                         _______ _______ _______ _____ _____    ______ ____
ROOT
ATOM      1  C   LIG    1       -5.008   4.004   0.048  0.00  0.00    +0.026 C 
ATOM      2  C   LIG    1       -5.130   5.189   0.739  0.00  0.00    +0.101 C 
ATOM      3  C   LIG    1       -3.966   5.822   1.397  0.00  0.00    +0.256 C 
ATOM      4  N   LIG    1       -4.162   6.985   2.052  0.00  0.00    -0.238 N 
ATOM      5  H   LIG    1       -3.316   7.487   2.545  0.00  0.00    +0.159 HD
ATOM      6  C   LIG    1       -5.372   7.556   2.122  0.00  0.00    +0.278 C 
ATOM      7  N   LIG    1       -6.471   7.039   1.555  0.00  0.00    -0.127 NA
ATOM      8  O   LIG    1       -2.864   5.311   1.346  0.00  0.00    -0.270 OA
ATOM      9  C   LIG    1       -6.430   5.882   0.862  0.00  0.00    +0.276 C 
ATOM     10  O   LIG    1       -7.434   5.423   0.352  0.00  0.00    -0.268 OA
ENDROOT
BRANCH   1  16
ATOM     11  C   LIG    1       -3.413   2.100  -0.033  0.00  0.00    +0.009 A 
ATOM     12  C   LIG    1       -2.164   1.591  -0.310  0.00  0.00    +0.015 A 
ATOM     13  C   LIG    1       -1.162   2.428  -0.806  0.00  0.00    +0.059 A 
ATOM     14  C   LIG    1       -1.422   3.784  -1.016  0.00  0.00    +0.015 A 
ATOM     15  C   LIG    1       -2.671   4.297  -0.744  0.00  0.00    +0.009 A 
ATOM     16  C   LIG    1       -3.678   3.459  -0.247  0.00  0.00    -0.024 A 
BRANCH  13  17
ATOM     17  C   LIG    1        0.179   1.879  -1.104  0.00  0.00    +0.337 C 
ATOM     18  O   LIG    1        0.407   0.701  -0.917  0.00  0.00    -0.245 OA
BRANCH  17  19
ATOM     19  O   LIG    1        1.144   2.684  -1.587  0.00  0.00    -0.477 OA
ATOM     20  H   LIG    1        0.968   3.593  -1.731  0.00  0.00    +0.295 HD
ENDBRANCH  17  19
ENDBRANCH  13  17
ENDBRANCH   1  16
BRANCH   6  21
ATOM     21  O   LIG    1       -5.479   8.601   2.733  0.00  0.00    -0.483 OA
ATOM     22  H   LIG    1       -4.727   8.986   3.139  0.00  0.00    +0.295 HD
ENDBRANCH   6  21
TORSDOF 4
