REMARK  Name = ZINC15985867
REMARK                            x       y       z     vdW  Elec       q    Type
REMARK                         _______ _______ _______ _____ _____    ______ ____
ROOT
ATOM      1  C   LIG    1        0.286   0.118   4.907  0.00  0.00    +0.375 C 
ATOM      2  N   LIG    1       -0.105   1.367   4.937  0.00  0.00    -0.037 NA
ENDROOT
BRANCH   2   3
ATOM      3  C   LIG    1       -0.241   2.010   6.132  0.00  0.00    +0.178 A 
ATOM      4  C   LIG    1       -1.068   1.477   7.127  0.00  0.00    +0.055 A 
ATOM      5  C   LIG    1       -1.201   2.132   8.332  0.00  0.00    +0.006 A 
ATOM      6  C   LIG    1       -0.519   3.315   8.560  0.00  0.00    +0.020 A 
ATOM      7  C   LIG    1        0.301   3.850   7.581  0.00  0.00    +0.045 A 
ATOM      8 CL   LIG    1        1.151   5.335   7.878  0.00  0.00    -0.083 Cl
ATOM      9  C   LIG    1        0.449   3.203   6.371  0.00  0.00    +0.075 A 
ENDBRANCH   2   3
BRANCH   1  10
ATOM     10  C   LIG    1        0.707  -0.554   6.151  0.00  0.00    +0.244 C 
ATOM     11  C   LIG    1       -0.203  -1.559   6.810  0.00  0.00    +0.100 C 
ATOM     12  O   LIG    1        1.784  -0.297   6.644  0.00  0.00    -0.284 OA
ENDBRANCH   1  10
BRANCH   1  13
ATOM     13  N   LIG    1        0.305  -0.571   3.709  0.00  0.00    -0.136 N 
ATOM     14  H   LIG    1        0.596  -1.497   3.687  0.00  0.00    +0.323 HD
BRANCH  13  15
ATOM     15  N   LIG    1       -0.094   0.067   2.528  0.00  0.00    -0.195 N 
ATOM     16  H   LIG    1       -0.384   0.992   2.550  0.00  0.00    +0.194 HD
BRANCH  15  23
ATOM     17  C   LIG    1       -0.921   1.438   0.177  0.00  0.00    +0.046 C 
ATOM     18  C   LIG    1       -0.470   0.001   0.145  0.00  0.00    -0.026 A 
ATOM     19  C   LIG    1       -0.445  -0.690  -1.052  0.00  0.00    +0.005 A 
ATOM     20  C   LIG    1       -0.030  -2.008  -1.082  0.00  0.00    +0.000 A 
ATOM     21  C   LIG    1        0.359  -2.641   0.085  0.00  0.00    +0.002 A 
ATOM     22  C   LIG    1        0.335  -1.957   1.284  0.00  0.00    +0.026 A 
ATOM     23  C   LIG    1       -0.075  -0.630   1.317  0.00  0.00    +0.068 A 
ENDBRANCH  15  23
ENDBRANCH  13  15
ENDBRANCH   1  13
TORSDOF 5
