REMARK  Name = ZINC34220290
REMARK                            x       y       z     vdW  Elec       q    Type
REMARK                         _______ _______ _______ _____ _____    ______ ____
ROOT
ATOM      1  C   LIG    1        0.812  -0.499  -1.485  0.00  0.00    +0.088 A 
ATOM      2  C   LIG    1        0.199  -0.304  -2.710  0.00  0.00    +0.027 A 
ATOM      3  C   LIG    1        0.864  -0.621  -3.876  0.00  0.00    +0.013 A 
ATOM      4  C   LIG    1        2.159  -1.139  -3.818  0.00  0.00    +0.022 A 
ATOM      5  C   LIG    1        2.772  -1.333  -2.578  0.00  0.00    +0.013 A 
ATOM      6  C   LIG    1        2.097  -1.007  -1.420  0.00  0.00    +0.027 A 
ENDROOT
BRANCH   1   8
ATOM      7  C   LIG    1        0.375   1.644   0.319  0.00  0.00    +0.200 C 
ATOM      8  S   LIG    1       -0.045  -0.091  -0.001  0.00  0.00    -0.006 S 
ATOM      9  O   LIG    1       -1.422  -0.208  -0.333  0.00  0.00    -0.170 OA
ATOM     10  O   LIG    1        0.533  -0.926   0.993  0.00  0.00    -0.170 OA
ENDBRANCH   1   8
BRANCH   4  11
ATOM     11  C   LIG    1        2.878  -1.482  -5.063  0.00  0.00    +0.193 C 
ATOM     12  O   LIG    1        2.400  -1.187  -6.141  0.00  0.00    -0.287 OA
BRANCH  11  13
ATOM     13  C   LIG    1        4.176  -2.181  -4.997  0.00  0.00    +0.022 A 
ATOM     14  C   LIG    1        4.418  -3.118  -3.988  0.00  0.00    +0.014 A 
ATOM     15  C   LIG    1        5.632  -3.768  -3.932  0.00  0.00    +0.039 A 
ATOM     16  C   LIG    1        6.613  -3.494  -4.873  0.00  0.00    +0.123 A 
ATOM     17  F   LIG    1        7.801  -4.133  -4.812  0.00  0.00    -0.205 F 
ATOM     18  C   LIG    1        6.379  -2.565  -5.877  0.00  0.00    +0.039 A 
ATOM     19  C   LIG    1        5.166  -1.914  -5.947  0.00  0.00    +0.014 A 
ENDBRANCH  11  13
ENDBRANCH   4  11
TORSDOF 3
