REMARK  Name = ZINC13862907
REMARK                            x       y       z     vdW  Elec       q    Type
REMARK                         _______ _______ _______ _____ _____    ______ ____
ROOT
ATOM      1  C   LIG    1        3.519   3.376  -0.014  0.00  0.00    +0.025 A 
ATOM      2  C   LIG    1        3.570   1.992  -0.022  0.00  0.00    +0.025 A 
ATOM      3  C   LIG    1        2.354   1.288  -0.013  0.00  0.00    +0.038 A 
ATOM      4  C   LIG    1        2.309  -0.116  -0.021  0.00  0.00    +0.126 A 
ATOM      5  N   LIG    1        1.132  -0.708  -0.013  0.00  0.00    -0.222 NA
ATOM      6  C   LIG    1        0.002  -0.004   0.002  0.00  0.00    +0.214 A 
ATOM      7  N   LIG    1       -0.016   1.315   0.009  0.00  0.00    -0.195 NA
ATOM      8  C   LIG    1        1.130   2.008   0.002  0.00  0.00    +0.167 A 
ATOM      9  N   LIG    1        1.137   3.342   0.009  0.00  0.00    -0.212 NA
ATOM     10  C   LIG    1        2.265   4.025   0.001  0.00  0.00    +0.126 A 
ENDROOT
BRANCH   1  15
ATOM     11  C   LIG    1        7.110   5.654  -0.039  0.00  0.00    +0.002 A 
ATOM     12  C   LIG    1        6.517   5.290  -1.235  0.00  0.00    +0.016 A 
ATOM     13  C   LIG    1        5.351   4.551  -1.233  0.00  0.00    +0.027 A 
ATOM     14 BR   LIG    1        4.541   4.055  -2.869  0.00  0.00    -0.050 Br
ATOM     15  C   LIG    1        4.771   4.170  -0.023  0.00  0.00    +0.013 A 
ATOM     16  C   LIG    1        5.371   4.544   1.179  0.00  0.00    +0.027 A 
ATOM     17 BR   LIG    1        4.590   4.040   2.826  0.00  0.00    -0.050 Br
ATOM     18  C   LIG    1        6.540   5.280   1.164  0.00  0.00    +0.016 A 
ENDBRANCH   1  15
BRANCH   6  19
ATOM     19  N   LIG    1       -1.202  -0.683   0.010  0.00  0.00    -0.327 N 
ATOM     20  H   LIG    1       -1.213  -1.783   0.004  0.00  0.00    +0.145 HD
ATOM     21  H   LIG    1       -2.149  -0.124   0.022  0.00  0.00    +0.145 HD
ENDBRANCH   6  19
BRANCH  10  22
ATOM     22  N   LIG    1        2.219   5.406   0.009  0.00  0.00    -0.343 N 
ATOM     23  H   LIG    1        3.152   5.988   0.003  0.00  0.00    +0.144 HD
ATOM     24  H   LIG    1        1.248   5.924   0.021  0.00  0.00    +0.144 HD
ENDBRANCH  10  22
TORSDOF 3
