REMARK  Name = ZINC66112330
REMARK                            x       y       z     vdW  Elec       q    Type
REMARK                         _______ _______ _______ _____ _____    ______ ____
ROOT
ATOM      1  N   LIG    1        4.099  -0.920   1.363  0.00  0.00    -0.263 N 
ATOM      2  C   LIG    1        4.973  -0.171   2.052  0.00  0.00    +0.046 A 
ATOM      3  C   LIG    1        5.198  -0.775   3.246  0.00  0.00    +0.015 A 
ATOM      4  C   LIG    1        6.134  -0.227   4.293  0.00  0.00    +0.120 C 
ATOM      5  N   LIG    1        7.002   0.778   3.656  0.00  0.00    -0.312 NA
ATOM      6  H   LIG    1        7.597   1.226   4.337  0.00  0.00    +0.122 HD
ATOM      7  C   LIG    1        6.216   1.772   2.910  0.00  0.00    +0.087 C 
ATOM      8  C   LIG    1        4.424  -1.942   3.291  0.00  0.00    +0.097 A 
ATOM      9  C   LIG    1        5.634   1.125   1.646  0.00  0.00    +0.070 C 
ATOM     10  N   LIG    1        3.757  -2.026   2.156  0.00  0.00    -0.170 NA
ENDROOT
BRANCH   8  11
ATOM     11  C   LIG    1        4.362  -2.908   4.415  0.00  0.00    +0.003 A 
ATOM     12  C   LIG    1        4.323  -2.448   5.730  0.00  0.00    +0.011 A 
ATOM     13  C   LIG    1        4.265  -3.350   6.773  0.00  0.00    +0.020 A 
ATOM     14  C   LIG    1        4.247  -4.710   6.514  0.00  0.00    +0.041 A 
ATOM     15 CL   LIG    1        4.176  -5.840   7.830  0.00  0.00    -0.084 Cl
ATOM     16  C   LIG    1        4.287  -5.172   5.210  0.00  0.00    +0.020 A 
ATOM     17  C   LIG    1        4.338  -4.278   4.160  0.00  0.00    +0.011 A 
ENDBRANCH   8  11
BRANCH   1  18
ATOM     18  C   LIG    1        3.587  -0.631   0.021  0.00  0.00    +0.179 C 
BRANCH  18  22
ATOM     19  C   LIG    1        0.049   1.744   0.327  0.00  0.00    +0.000 A 
ATOM     20  C   LIG    1        1.286   2.355   0.239  0.00  0.00    +0.000 A 
ATOM     21  C   LIG    1        2.431   1.586   0.141  0.00  0.00    +0.005 A 
ATOM     22  C   LIG    1        2.339   0.207   0.130  0.00  0.00    -0.026 A 
ATOM     23  C   LIG    1        1.102  -0.404   0.219  0.00  0.00    +0.005 A 
ATOM     24  C   LIG    1       -0.043   0.364   0.316  0.00  0.00    +0.000 A 
ENDBRANCH  18  22
ENDBRANCH   1  18
TORSDOF 3
