REMARK  Name = ZINC40431274
REMARK                            x       y       z     vdW  Elec       q    Type
REMARK                         _______ _______ _______ _____ _____    ______ ____
ROOT
ATOM      1  C   LIG    1        1.841  -6.922   2.952  0.00  0.00    +0.018 A 
ATOM      2  C   LIG    1        1.058  -7.516   1.953  0.00  0.00    +0.013 A 
ATOM      3  C   LIG    1        1.019  -8.881   1.836  0.00  0.00    +0.024 A 
ATOM      4  C   LIG    1        1.756  -9.678   2.708  0.00  0.00    +0.033 A 
ATOM      5  C   LIG    1        2.536  -9.092   3.702  0.00  0.00    +0.024 A 
ATOM      6  C   LIG    1        2.585  -7.728   3.823  0.00  0.00    +0.013 A 
ENDROOT
BRANCH   4   7
ATOM      7  N   LIG    1        1.714 -11.065   2.585  0.00  0.00    -0.286 N 
ATOM      8  H   LIG    1        1.778 -11.624   3.375  0.00  0.00    +0.155 HD
ATOM      9  C   LIG    1        1.584 -11.630   1.368  0.00  0.00    +0.214 C 
ATOM     10  C   LIG    1        1.419 -13.123   1.245  0.00  0.00    +0.109 C 
ATOM     11  O   LIG    1        1.601 -10.937   0.373  0.00  0.00    -0.276 OA
ENDBRANCH   4   7
BRANCH   1  12
ATOM     12  C   LIG    1        1.886  -5.460   3.081  0.00  0.00    +0.173 C 
ATOM     13  O   LIG    1        2.568  -4.948   3.943  0.00  0.00    -0.291 OA
BRANCH  12  14
ATOM     14  C   LIG    1        1.084  -4.596   2.142  0.00  0.00    +0.154 C 
BRANCH  14  15
ATOM     15  S   LIG    1        1.348  -2.849   2.554  0.00  0.00    -0.114 S 
BRANCH  15  16
ATOM     16  C   LIG    1        0.415  -2.031   1.452  0.00  0.00    +0.030 C 
ATOM     17  S   LIG    1       -0.497  -2.898   0.291  0.00  0.00    -0.049 S 
BRANCH  16  18
ATOM     18  C   LIG    1        0.370  -0.525   1.474  0.00  0.00    +0.050 C 
BRANCH  18  20
ATOM     19  C   LIG    1       -0.602   1.503   0.385  0.00  0.00    +0.004 C 
ATOM     20  C   LIG    1       -0.557  -0.026   0.363  0.00  0.00    +0.002 C 
ENDBRANCH  18  20
ENDBRANCH  16  18
ENDBRANCH  15  16
ENDBRANCH  14  15
ENDBRANCH  12  14
ENDBRANCH   1  12
TORSDOF 7
