REMARK  Name = ZINC34853956
REMARK                            x       y       z     vdW  Elec       q    Type
REMARK                         _______ _______ _______ _____ _____    ______ ____
ROOT
ATOM      1  C   LIG    1        2.862  -0.589   2.361  0.00  0.00    +0.128 C 
ENDROOT
BRANCH   1   2
ATOM      2  C   LIG    1        4.308  -0.171   2.290  0.00  0.00    -0.012 A 
ATOM      3  C   LIG    1        4.723   0.970   2.917  0.00  0.00    +0.010 A 
ATOM      4  C   LIG    1        6.051   1.366   2.858  0.00  0.00    +0.048 A 
ATOM      5  C   LIG    1        6.981   0.614   2.164  0.00  0.00    +0.141 A 
ATOM      6  C   LIG    1        6.578  -0.555   1.516  0.00  0.00    +0.091 A 
ATOM      7  N   LIG    1        7.482  -1.326   0.815  0.00  0.00    -0.319 N 
ATOM      8  H   LIG    1        8.412  -1.052   0.772  0.00  0.00    +0.169 HD
ATOM      9  C   LIG    1        7.096  -2.460   0.205  0.00  0.00    +0.249 A 
ATOM     10  O   LIG    1        7.923  -3.120  -0.400  0.00  0.00    -0.268 OA
ATOM     11  C   LIG    1        5.755  -2.900   0.239  0.00  0.00    +0.071 A 
ATOM     12  C   LIG    1        4.818  -2.183   0.907  0.00  0.00    +0.016 A 
ATOM     13  C   LIG    1        5.230  -0.952   1.585  0.00  0.00    +0.008 A 
BRANCH   5  14
ATOM     14  O   LIG    1        8.280   1.012   2.111  0.00  0.00    -0.505 OA
ATOM     15  H   LIG    1        8.547   1.797   2.547  0.00  0.00    +0.292 HD
ENDBRANCH   5  14
ENDBRANCH   1   2
BRANCH   1  16
ATOM     16  O   LIG    1        2.263  -0.034   3.534  0.00  0.00    -0.389 OA
ATOM     17  H   LIG    1        2.282   0.932   3.566  0.00  0.00    +0.210 HD
ENDBRANCH   1  16
BRANCH   1  18
ATOM     18  C   LIG    1        2.122  -0.083   1.122  0.00  0.00    -0.046 C 
BRANCH  18  19
ATOM     19  N   LIG    1        0.713  -0.491   1.192  0.00  0.00    +0.383 N 
ATOM     20  H   LIG    1        0.655  -1.497   1.230  0.00  0.00    -0.085 HD
ATOM     21  H   LIG    1        0.290  -0.099   2.020  0.00  0.00    -0.085 HD
BRANCH  19  23
ATOM     22  C   LIG    1       -0.019   1.526   0.010  0.00  0.00    -0.013 C 
ATOM     23  C   LIG    1        0.002  -0.004   0.002  0.00  0.00    -0.071 C 
BRANCH  23  24
ATOM     24  C   LIG    1       -1.433  -0.534   0.013  0.00  0.00    +0.019 C 
BRANCH  24  25
ATOM     25  C   LIG    1       -1.416  -2.035  -0.119  0.00  0.00    -0.049 A 
ATOM     26  C   LIG    1       -1.450  -2.618  -1.373  0.00  0.00    +0.007 A 
ATOM     27  C   LIG    1       -1.434  -3.994  -1.496  0.00  0.00    +0.046 A 
ATOM     28  C   LIG    1       -1.385  -4.790  -0.362  0.00  0.00    +0.120 A 
ATOM     29  C   LIG    1       -1.350  -4.203   0.895  0.00  0.00    +0.046 A 
ATOM     30  C   LIG    1       -1.360  -2.827   1.013  0.00  0.00    +0.007 A 
BRANCH  28  31
ATOM     31  O   LIG    1       -1.370  -6.144  -0.481  0.00  0.00    -0.495 OA
ATOM     32  C   LIG    1       -1.318  -6.901   0.730  0.00  0.00    +0.277 C 
ENDBRANCH  28  31
ENDBRANCH  24  25
ENDBRANCH  23  24
ENDBRANCH  19  23
ENDBRANCH  18  19
ENDBRANCH   1  18
TORSDOF 9
