REMARK  Name = ZINC26717002
REMARK                            x       y       z     vdW  Elec       q    Type
REMARK                         _______ _______ _______ _____ _____    ______ ____
ROOT
ATOM      1  O   LIG    1        2.367   0.900   2.094  0.00  0.00    -0.489 OA
ENDROOT
BRANCH   1   4
ATOM      2  C   LIG    1        4.923  -1.484   3.099  0.00  0.00    +0.023 A 
ATOM      3  C   LIG    1        4.062  -0.770   2.278  0.00  0.00    +0.052 A 
ATOM      4  C   LIG    1        3.225   0.173   2.860  0.00  0.00    +0.174 A 
ATOM      5  C   LIG    1        3.272   0.360   4.237  0.00  0.00    +0.255 A 
ATOM      6  F   LIG    1        2.459   1.270   4.817  0.00  0.00    -0.180 F 
ATOM      7  N   LIG    1        4.102  -0.344   4.983  0.00  0.00    -0.225 NA
ATOM      8  C   LIG    1        4.913  -1.243   4.459  0.00  0.00    +0.114 A 
ENDBRANCH   1   4
BRANCH   1   9
ATOM      9  C   LIG    1        2.381   0.647   0.688  0.00  0.00    +0.213 C 
BRANCH   9  10
ATOM     10  C   LIG    1        1.358   1.552  -0.003  0.00  0.00    -0.035 C 
ATOM     11  C   LIG    1        1.345   1.408  -1.531  0.00  0.00    -0.032 C 
ATOM     12  C   LIG    1       -0.175   1.539  -1.357  0.00  0.00    -0.084 C 
ATOM     13  N   LIG    1       -0.012   1.005   0.008  0.00  0.00    +0.383 N 
ATOM     14  H   LIG    1       -0.583   1.461   0.829  0.00  0.00    -0.085 HD
ATOM     15  H   LIG    1        0.030  -0.085   0.151  0.00  0.00    -0.085 HD
ENDBRANCH   9  10
ENDBRANCH   1   9
TORSDOF 3
