REMARK  Name = ZINC64521265
REMARK                            x       y       z     vdW  Elec       q    Type
REMARK                         _______ _______ _______ _____ _____    ______ ____
ROOT
ATOM      1  N   LIG    1       -1.619  -1.689  -0.367  0.00  0.00    -0.243 N 
ATOM      2  C   LIG    1       -1.933  -0.517  -0.989  0.00  0.00    +0.164 A 
ATOM      3  C   LIG    1       -3.212  -0.144  -0.535  0.00  0.00    +0.086 A 
ATOM      4  C   LIG    1       -3.779   1.043  -1.028  0.00  0.00    +0.131 A 
ATOM      5  N   LIG    1       -3.080   1.761  -1.902  0.00  0.00    -0.220 NA
ATOM      6  C   LIG    1       -1.882   1.372  -2.301  0.00  0.00    +0.225 A 
ATOM      7  C   LIG    1       -3.637  -1.181   0.404  0.00  0.00    +0.105 A 
ATOM      8  N   LIG    1       -1.312   0.269  -1.867  0.00  0.00    -0.216 NA
ATOM      9  N   LIG    1       -2.675  -2.070   0.468  0.00  0.00    -0.168 NA
ENDROOT
BRANCH   7  10
ATOM     10  C   LIG    1       -4.922  -1.223   1.143  0.00  0.00    +0.004 A 
ATOM     11  C   LIG    1       -6.118  -0.946   0.481  0.00  0.00    +0.010 A 
ATOM     12  C   LIG    1       -7.316  -0.984   1.167  0.00  0.00    +0.001 A 
ATOM     13  C   LIG    1       -7.339  -1.297   2.512  0.00  0.00    +0.013 A 
ATOM     14  C   LIG    1       -6.148  -1.577   3.186  0.00  0.00    +0.038 A 
ATOM     15  C   LIG    1       -4.937  -1.545   2.497  0.00  0.00    +0.023 A 
BRANCH  14  16
ATOM     16  C   LIG    1       -6.173  -1.911   4.626  0.00  0.00    +0.250 C 
ATOM     17  N   LIG    1       -7.345  -1.946   5.289  0.00  0.00    -0.261 N 
ATOM     18  H   LIG    1       -8.173  -1.752   4.822  0.00  0.00    +0.157 HD
ATOM     19  O   LIG    1       -5.136  -2.153   5.211  0.00  0.00    -0.270 OA
BRANCH  17  20
ATOM     20  C   LIG    1       -7.368  -2.258   6.635  0.00  0.00    +0.156 C 
ATOM     21  N   LIG    1       -6.350  -2.534   7.396  0.00  0.00    -0.262 NA
ATOM     22  C   LIG    1       -6.526  -2.871   8.798  0.00  0.00    +0.155 C 
ATOM     23  C   LIG    1       -7.918  -2.410   9.312  0.00  0.00    +0.100 C 
ATOM     24  S   LIG    1       -8.800  -2.360   7.696  0.00  0.00    -0.089 S 
ENDBRANCH  17  20
ENDBRANCH  14  16
ENDBRANCH   7  10
BRANCH   1  26
ATOM     25  C   LIG    1        0.348  -2.564   0.794  0.00  0.00    +0.032 C 
ATOM     26  C   LIG    1       -0.372  -2.437  -0.550  0.00  0.00    +0.103 C 
ATOM     27  C   LIG    1       -0.689  -3.832  -1.093  0.00  0.00    +0.032 C 
ENDBRANCH   1  26
BRANCH   4  28
ATOM     28  N   LIG    1       -5.031   1.454  -0.615  0.00  0.00    -0.342 N 
ATOM     29  H   LIG    1       -5.509   2.133  -1.117  0.00  0.00    +0.144 HD
ATOM     30  H   LIG    1       -5.433   1.065   0.177  0.00  0.00    +0.144 HD
ENDBRANCH   4  28
TORSDOF 5
