REMARK  Name = ZINC14951634
REMARK                            x       y       z     vdW  Elec       q    Type
REMARK                         _______ _______ _______ _____ _____    ______ ____
ROOT
ATOM      1  C   LIG    1        4.672   2.120   3.979  0.00  0.00    +0.163 C 
ENDROOT
BRANCH   1   4
ATOM      2  N   LIG    1        5.705   0.764   2.187  0.00  0.00    -0.302 N 
ATOM      3  H   LIG    1        5.455   1.460   1.560  0.00  0.00    +0.150 HD
ATOM      4  C   LIG    1        5.400   0.893   3.494  0.00  0.00    +0.234 C 
ATOM      5  O   LIG    1        5.713   0.023   4.278  0.00  0.00    -0.274 OA
BRANCH   2   6
ATOM      6  C   LIG    1        6.413  -0.429   1.715  0.00  0.00    +0.163 C 
BRANCH   6   7
ATOM      7  C   LIG    1        7.897  -0.235   1.893  0.00  0.00    +0.231 C 
ATOM      8  N   LIG    1        8.753  -1.209   1.525  0.00  0.00    -0.328 N 
ATOM      9  H   LIG    1        9.708  -1.085   1.640  0.00  0.00    +0.145 HD
ATOM     10  H   LIG    1        8.414  -2.035   1.145  0.00  0.00    +0.145 HD
ATOM     11  O   LIG    1        8.321   0.797   2.368  0.00  0.00    -0.274 OA
ENDBRANCH   6   7
BRANCH   6  12
ATOM     12  C   LIG    1        6.103  -0.653   0.234  0.00  0.00    +0.067 C 
BRANCH  12  16
ATOM     13  C   LIG    1        1.952  -1.546  -0.234  0.00  0.00    +0.000 A 
ATOM     14  C   LIG    1        2.386  -0.235  -0.284  0.00  0.00    +0.000 A 
ATOM     15  C   LIG    1        3.730   0.054  -0.133  0.00  0.00    +0.004 A 
ATOM     16  C   LIG    1        4.638  -0.968   0.070  0.00  0.00    -0.045 A 
ATOM     17  C   LIG    1        4.203  -2.279   0.121  0.00  0.00    +0.004 A 
ATOM     18  C   LIG    1        2.860  -2.568  -0.032  0.00  0.00    +0.000 A 
ENDBRANCH  12  16
ENDBRANCH   6  12
ENDBRANCH   2   6
ENDBRANCH   1   4
BRANCH   1  19
ATOM     19  N   LIG    1        4.461   2.021   5.426  0.00  0.00    -0.302 N 
ATOM     20  H   LIG    1        5.103   2.415   6.037  0.00  0.00    +0.150 HD
ATOM     21  C   LIG    1        3.375   1.384   5.906  0.00  0.00    +0.234 C 
ATOM     22  O   LIG    1        2.526   0.973   5.144  0.00  0.00    -0.274 OA
BRANCH  21  23
ATOM     23  C   LIG    1        3.216   1.182   7.391  0.00  0.00    +0.162 C 
ATOM     24  C   LIG    1        3.963  -0.095   7.830  0.00  0.00    +0.033 C 
ATOM     25  C   LIG    1        3.015  -0.704   8.897  0.00  0.00    +0.021 C 
ATOM     26  C   LIG    1        1.624  -0.346   8.316  0.00  0.00    +0.108 C 
ATOM     27  N   LIG    1        1.795   0.995   7.721  0.00  0.00    -0.289 N 
ATOM     28  C   LIG    1        0.816   1.897   7.514  0.00  0.00    +0.233 C 
ATOM     29  O   LIG    1        1.062   2.940   6.946  0.00  0.00    -0.274 OA
BRANCH  28  30
ATOM     30  C   LIG    1       -0.586   1.611   7.990  0.00  0.00    +0.142 C 
BRANCH  30  31
ATOM     31  N   LIG    1       -1.335   2.870   8.093  0.00  0.00    -0.320 NA
ATOM     32  H   LIG    1       -1.385   3.334   7.198  0.00  0.00    +0.119 HD
ATOM     33  H   LIG    1       -0.931   3.475   8.792  0.00  0.00    +0.119 HD
ENDBRANCH  30  31
BRANCH  30  34
ATOM     34  C   LIG    1       -1.282   0.682   6.993  0.00  0.00    +0.063 C 
BRANCH  34  35
ATOM     35  C   LIG    1       -2.638   0.297   7.528  0.00  0.00    -0.045 A 
ATOM     36  C   LIG    1       -2.772  -0.826   8.323  0.00  0.00    +0.007 A 
ATOM     37  C   LIG    1       -4.013  -1.181   8.815  0.00  0.00    +0.045 A 
ATOM     38  C   LIG    1       -5.125  -0.410   8.510  0.00  0.00    +0.117 A 
ATOM     39  C   LIG    1       -4.988   0.717   7.712  0.00  0.00    +0.045 A 
ATOM     40  C   LIG    1       -3.744   1.071   7.228  0.00  0.00    +0.007 A 
BRANCH  38  41
ATOM     41  O   LIG    1       -6.347  -0.758   8.992  0.00  0.00    -0.507 OA
ATOM     42  H   LIG    1       -6.557  -0.367   9.851  0.00  0.00    +0.292 HD
ENDBRANCH  38  41
ENDBRANCH  34  35
ENDBRANCH  30  34
ENDBRANCH  28  30
ENDBRANCH  21  23
ENDBRANCH   1  19
BRANCH   1  43
ATOM     43  C   LIG    1        5.506   3.364   3.669  0.00  0.00    +0.067 C 
BRANCH  43  44
ATOM     44  C   LIG    1        4.742   4.596   4.081  0.00  0.00    -0.045 A 
ATOM     45  C   LIG    1        3.804   5.146   3.228  0.00  0.00    +0.004 A 
ATOM     46  C   LIG    1        3.103   6.276   3.606  0.00  0.00    +0.000 A 
ATOM     47  C   LIG    1        3.340   6.856   4.838  0.00  0.00    +0.000 A 
ATOM     48  C   LIG    1        4.277   6.306   5.692  0.00  0.00    +0.000 A 
ATOM     49  C   LIG    1        4.975   5.173   5.316  0.00  0.00    +0.004 A 
ENDBRANCH  43  44
ENDBRANCH   1  43
TORSDOF 14
