REMARK  Name = ZINC00021406
REMARK                            x       y       z     vdW  Elec       q    Type
REMARK                         _______ _______ _______ _____ _____    ______ ____
ROOT
ATOM      1  C   LIG    1       -0.864  -0.562   3.381  0.00  0.00    +0.041 A 
ATOM      2  C   LIG    1       -2.182  -0.133   3.400  0.00  0.00    +0.127 A 
ATOM      3  C   LIG    1       -3.104  -0.714   4.263  0.00  0.00    +0.092 A 
ATOM      4  C   LIG    1       -2.714  -1.730   5.115  0.00  0.00    +0.135 A 
ATOM      5  C   LIG    1       -1.384  -2.169   5.101  0.00  0.00    +0.106 A 
ATOM      6  C   LIG    1       -0.925  -3.248   5.992  0.00  0.00    +0.197 A 
ATOM      7  O   LIG    1       -1.689  -3.795   6.771  0.00  0.00    -0.287 OA
ATOM      8  C   LIG    1        0.432  -3.639   5.896  0.00  0.00    +0.098 A 
ATOM      9  C   LIG    1        1.252  -3.004   5.016  0.00  0.00    +0.139 A 
ATOM     10  O   LIG    1        0.823  -2.017   4.213  0.00  0.00    -0.454 OA
ATOM     11  C   LIG    1       -0.455  -1.584   4.223  0.00  0.00    +0.150 A 
ENDROOT
BRANCH   9  12
ATOM     12  C   LIG    1        2.666  -3.417   4.941  0.00  0.00    +0.018 A 
ATOM     13  C   LIG    1        3.141  -4.445   5.759  0.00  0.00    +0.015 A 
ATOM     14  C   LIG    1        4.462  -4.827   5.685  0.00  0.00    +0.046 A 
ATOM     15  C   LIG    1        5.323  -4.192   4.798  0.00  0.00    +0.117 A 
ATOM     16  C   LIG    1        4.855  -3.168   3.982  0.00  0.00    +0.046 A 
ATOM     17  C   LIG    1        3.534  -2.784   4.046  0.00  0.00    +0.015 A 
BRANCH  15  18
ATOM     18  O   LIG    1        6.624  -4.572   4.728  0.00  0.00    -0.507 OA
ATOM     19  H   LIG    1        6.795  -5.273   4.084  0.00  0.00    +0.292 HD
ENDBRANCH  15  18
ENDBRANCH   9  12
BRANCH   2  20
ATOM     20  O   LIG    1       -2.576   0.865   2.568  0.00  0.00    -0.506 OA
ATOM     21  H   LIG    1       -2.893   0.558   1.707  0.00  0.00    +0.292 HD
ENDBRANCH   2  20
BRANCH   4  22
ATOM     22  O   LIG    1       -3.612  -2.299   5.959  0.00  0.00    -0.506 OA
ATOM     23  H   LIG    1       -4.076  -3.060   5.585  0.00  0.00    +0.292 HD
ENDBRANCH   4  22
BRANCH   1  24
ATOM     24  C   LIG    1        0.123   0.078   2.439  0.00  0.00    +0.069 C 
BRANCH  24  28
ATOM     25  C   LIG    1       -0.163   1.492   0.016  0.00  0.00    +0.038 C 
ATOM     26  C   LIG    1       -0.067  -0.012   0.007  0.00  0.00    -0.079 C 
ATOM     27  C   LIG    1       -0.187  -0.766  -1.292  0.00  0.00    +0.038 C 
ATOM     28  C   LIG    1        0.121  -0.664   1.128  0.00  0.00    -0.023 C 
ENDBRANCH  24  28
ENDBRANCH   1  24
TORSDOF 6
