REMARK  Name = ZINC40977166
REMARK                            x       y       z     vdW  Elec       q    Type
REMARK                         _______ _______ _______ _____ _____    ______ ____
ROOT
ATOM      1  C   LIG    1       -0.134   1.133   0.265  0.00  0.00    +0.000 A 
ATOM      2  C   LIG    1        1.008   1.908   0.184  0.00  0.00    +0.000 A 
ATOM      3  C   LIG    1        2.249   1.308   0.094  0.00  0.00    +0.005 A 
ATOM      4  C   LIG    1        2.341  -0.080   0.086  0.00  0.00    -0.027 A 
ATOM      5  C   LIG    1        3.646  -0.764  -0.058  0.00  0.00    +0.093 C 
ATOM      6  N   LIG    1        4.691  -0.444   0.699  0.00  0.00    -0.282 NA
ATOM      7  H   LIG    1        4.397  -0.563   1.669  0.00  0.00    +0.125 HD
ATOM      8  C   LIG    1        5.838  -1.094   0.567  0.00  0.00    +0.193 C 
ATOM      9  N   LIG    1        5.991  -2.076  -0.310  0.00  0.00    -0.273 NA
ATOM     10  H   LIG    1        6.844  -2.534  -0.370  0.00  0.00    +0.126 HD
ATOM     11  C   LIG    1        4.991  -2.442  -1.111  0.00  0.00    +0.131 C 
ATOM     12  C   LIG    1        3.776  -1.774  -1.008  0.00  0.00    +0.042 C 
ATOM     13  C   LIG    1        2.613  -2.112  -1.896  0.00  0.00    +0.008 C 
ATOM     14  C   LIG    1        1.567  -2.936  -1.146  0.00  0.00    +0.005 C 
ATOM     15  C   LIG    1        1.315  -2.356   0.241  0.00  0.00    +0.035 C 
ATOM     16  C   LIG    1        1.189  -0.858   0.189  0.00  0.00    -0.043 A 
ATOM     17  C   LIG    1       -0.045  -0.248   0.267  0.00  0.00    +0.004 A 
ENDROOT
BRANCH  11  18
ATOM     18  N   LIG    1        5.159  -3.468  -2.027  0.00  0.00    -0.288 NA
ATOM     19  C   LIG    1        5.623  -3.310  -3.417  0.00  0.00    +0.084 C 
ATOM     20  C   LIG    1        6.223  -4.688  -3.793  0.00  0.00    +0.000 C 
ATOM     21  C   LIG    1        5.254  -5.658  -3.067  0.00  0.00    -0.060 C 
ATOM     22  C   LIG    1        4.909  -4.894  -1.772  0.00  0.00    +0.070 C 
BRANCH  21  23
ATOM     23  N   LIG    1        5.925  -6.929  -2.759  0.00  0.00    +0.381 N 
ATOM     24  H   LIG    1        6.216  -7.372  -3.618  0.00  0.00    -0.090 HD
ATOM     25  H   LIG    1        5.286  -7.535  -2.267  0.00  0.00    -0.090 HD
ATOM     26  H   LIG    1        6.732  -6.751  -2.182  0.00  0.00    -0.090 HD
ENDBRANCH  21  23
ENDBRANCH  11  18
BRANCH   8  27
ATOM     27  N   LIG    1        6.909  -0.736   1.367  0.00  0.00    -0.303 NA
ATOM     28  H   LIG    1        7.755  -1.202   1.282  0.00  0.00    +0.121 HD
ATOM     29  H   LIG    1        6.813  -0.020   2.014  0.00  0.00    +0.121 HD
ENDBRANCH   8  27
TORSDOF 3
