REMARK  Name = ZINC36093297
REMARK                            x       y       z     vdW  Elec       q    Type
REMARK                         _______ _______ _______ _____ _____    ______ ____
ROOT
ATOM      1  C   LIG    1        5.168  -2.863  -0.048  0.00  0.00    -0.010 A 
ATOM      2  C   LIG    1        5.942  -2.815   1.077  0.00  0.00    +0.026 A 
ATOM      3  C   LIG    1        7.263  -2.383   0.993  0.00  0.00    +0.112 A 
ATOM      4  N   LIG    1        7.799  -2.016  -0.146  0.00  0.00    -0.255 NA
ATOM      5  C   LIG    1        7.097  -2.039  -1.283  0.00  0.00    +0.072 A 
ATOM      6  C   LIG    1        7.678  -1.643  -2.501  0.00  0.00    +0.032 A 
ATOM      7  C   LIG    1        6.947  -1.692  -3.647  0.00  0.00    +0.048 A 
ATOM      8  C   LIG    1        5.614  -2.115  -3.633  0.00  0.00    +0.121 A 
ATOM      9  C   LIG    1        5.016  -2.502  -2.468  0.00  0.00    +0.056 A 
ATOM     10  C   LIG    1        5.748  -2.474  -1.270  0.00  0.00    +0.009 A 
ENDROOT
BRANCH   1  11
ATOM     11  C   LIG    1        3.736  -3.327   0.016  0.00  0.00    +0.132 C 
BRANCH  11  18
ATOM     12  C   LIG    1        0.551  -0.456   0.110  0.00  0.00    -0.025 C 
ATOM     13  C   LIG    1        0.609  -1.579   1.147  0.00  0.00    -0.075 C 
ATOM     14  N   LIG    1        1.478  -2.658   0.670  0.00  0.00    +0.384 N 
ATOM     15  H   LIG    1        1.496  -3.386   1.369  0.00  0.00    -0.081 HD
ATOM     16  C   LIG    1        0.952  -3.233  -0.570  0.00  0.00    -0.078 C 
ATOM     17  C   LIG    1        0.905  -2.164  -1.665  0.00  0.00    -0.015 C 
ATOM     18  C   LIG    1        2.845  -2.170   0.474  0.00  0.00    -0.035 C 
ATOM     19  C   LIG    1        2.860  -1.064  -0.591  0.00  0.00    -0.009 C 
ATOM     20  C   LIG    1        1.427  -0.840  -1.090  0.00  0.00    -0.013 C 
BRANCH  12  22
ATOM     21  C   LIG    1        0.131   1.287   1.850  0.00  0.00    +0.004 C 
ATOM     22  C   LIG    1        1.073   0.842   0.730  0.00  0.00    -0.002 C 
ENDBRANCH  12  22
ENDBRANCH  11  18
BRANCH  11  23
ATOM     23  O   LIG    1        3.627  -4.409   0.944  0.00  0.00    -0.389 OA
ATOM     24  H   LIG    1        3.809  -4.160   1.861  0.00  0.00    +0.210 HD
ENDBRANCH  11  23
ENDBRANCH   1  11
BRANCH   8  25
ATOM     25  O   LIG    1        4.906  -2.142  -4.793  0.00  0.00    -0.492 OA
BRANCH  25  26
ATOM     26  C   LIG    1        5.587  -1.726  -5.978  0.00  0.00    +0.229 C 
BRANCH  26  27
ATOM     27  C   LIG    1        4.636  -1.825  -7.173  0.00  0.00    +0.044 C 
BRANCH  27  28
ATOM     28  C   LIG    1        5.365  -1.379  -8.443  0.00  0.00    -0.014 C 
ATOM     29  C   LIG    1        4.382  -1.358  -9.615  0.00  0.00    +0.007 C 
ATOM     30  C   LIG    1        6.502  -2.357  -8.748  0.00  0.00    +0.007 C 
ENDBRANCH  27  28
ENDBRANCH  26  27
ENDBRANCH  25  26
ENDBRANCH   8  25
TORSDOF 8
