REMARK  Name = ZINC28896091
REMARK                            x       y       z     vdW  Elec       q    Type
REMARK                         _______ _______ _______ _____ _____    ______ ____
ROOT
ATOM      1  N   LIG    1        1.246   7.467  -2.506  0.00  0.00    -0.300 NA
ATOM      2  C   LIG    1       -0.094   6.866  -2.521  0.00  0.00    +0.103 C 
ATOM      3  C   LIG    1       -0.244   5.930  -1.317  0.00  0.00    +0.123 C 
ATOM      4  N   LIG    1        0.869   4.969  -1.331  0.00  0.00    -0.299 N 
ATOM      5  C   LIG    1        0.640   3.644  -1.234  0.00  0.00    +0.219 C 
ATOM      6  O   LIG    1        1.572   2.871  -1.166  0.00  0.00    -0.275 OA
ATOM      7  C   LIG    1        2.239   5.492  -1.447  0.00  0.00    +0.123 C 
ATOM      8  C   LIG    1        2.291   6.444  -2.652  0.00  0.00    +0.103 C 
ENDROOT
BRANCH   5   9
ATOM      9  C   LIG    1       -0.774   3.123  -1.210  0.00  0.00    +0.075 C 
ATOM     10  C   LIG    1       -0.758   1.600  -1.349  0.00  0.00    +0.013 C 
ATOM     11  C   LIG    1        0.029   0.990  -0.187  0.00  0.00    +0.005 C 
ATOM     12  C   LIG    1       -0.634   1.375   1.137  0.00  0.00    -0.006 C 
ATOM     13  C   LIG    1       -0.650   2.899   1.275  0.00  0.00    +0.005 C 
ATOM     14  C   LIG    1       -1.437   3.509   0.114  0.00  0.00    +0.013 C 
BRANCH  12  15
ATOM     15  C   LIG    1        0.153   0.765   2.298  0.00  0.00    -0.035 C 
ATOM     16  C   LIG    1        0.168  -0.758   2.160  0.00  0.00    +0.011 C 
ATOM     17  C   LIG    1       -0.510   1.151   3.622  0.00  0.00    +0.011 C 
ATOM     18  C   LIG    1        1.589   1.294   2.274  0.00  0.00    +0.011 C 
ENDBRANCH  12  15
ENDBRANCH   5   9
BRANCH   1  20
ATOM     19  C   LIG    1        2.678   9.270  -3.341  0.00  0.00    +0.020 C 
ATOM     20  C   LIG    1        1.372   8.499  -3.544  0.00  0.00    +0.081 C 
ENDBRANCH   1  20
TORSDOF 3
