REMARK  Name = ZINC43202741
REMARK                            x       y       z     vdW  Elec       q    Type
REMARK                         _______ _______ _______ _____ _____    ______ ____
ROOT
ATOM      1  C   LIG    1        8.839   3.328  -2.287  0.00  0.00    +0.119 C 
ENDROOT
BRANCH   1   2
ATOM      2  C   LIG    1        7.771   2.703  -3.147  0.00  0.00    -0.008 A 
ATOM      3  C   LIG    1        6.833   1.861  -2.578  0.00  0.00    +0.010 A 
ATOM      4  C   LIG    1        5.851   1.286  -3.362  0.00  0.00    +0.050 A 
ATOM      5  C   LIG    1        5.805   1.551  -4.721  0.00  0.00    +0.166 A 
ATOM      6  C   LIG    1        6.750   2.399  -5.294  0.00  0.00    +0.167 A 
ATOM      7  O   LIG    1        6.493   2.498  -6.631  0.00  0.00    -0.453 OA
ATOM      8  C   LIG    1        5.634   1.385  -6.942  0.00  0.00    +0.466 C 
ATOM      9  O   LIG    1        4.956   1.120  -5.700  0.00  0.00    -0.453 OA
ATOM     10  C   LIG    1        7.728   2.976  -4.501  0.00  0.00    +0.056 A 
ENDBRANCH   1   2
BRANCH   1  11
ATOM     11  C   LIG    1        9.802   2.263  -1.828  0.00  0.00    -0.008 A 
ATOM     12  C   LIG    1        9.399   1.325  -0.896  0.00  0.00    +0.010 A 
ATOM     13  C   LIG    1       10.279   0.345  -0.473  0.00  0.00    +0.050 A 
ATOM     14  C   LIG    1       11.567   0.303  -0.982  0.00  0.00    +0.166 A 
ATOM     15  C   LIG    1       11.972   1.248  -1.921  0.00  0.00    +0.167 A 
ATOM     16  O   LIG    1       13.269   0.995  -2.263  0.00  0.00    -0.453 OA
ATOM     17  C   LIG    1       13.780   0.139  -1.224  0.00  0.00    +0.466 C 
ATOM     18  O   LIG    1       12.610  -0.542  -0.736  0.00  0.00    -0.453 OA
ATOM     19  C   LIG    1       11.084   2.223  -2.345  0.00  0.00    +0.056 A 
ENDBRANCH   1  11
BRANCH   1  24
ATOM     20  C   LIG    1        7.615   7.459   1.052  0.00  0.00    +0.408 C 
ATOM     21  N   LIG    1        7.602   6.185   0.614  0.00  0.00    -0.267 N 
ATOM     22  C   LIG    1        8.629   5.231   1.054  0.00  0.00    +0.111 C 
ATOM     23  C   LIG    1        9.278   4.601  -0.182  0.00  0.00    +0.026 C 
ATOM     24  C   LIG    1        8.191   3.989  -1.069  0.00  0.00    +0.033 C 
ATOM     25  C   LIG    1        7.232   5.087  -1.534  0.00  0.00    +0.026 C 
ATOM     26  C   LIG    1        6.556   5.721  -0.309  0.00  0.00    +0.111 C 
ATOM     27  O   LIG    1        6.756   8.237   0.685  0.00  0.00    -0.226 OA
BRANCH  20  28
ATOM     28  O   LIG    1        8.579   7.870   1.898  0.00  0.00    -0.411 OA
BRANCH  28  31
ATOM     29  C   LIG    1        7.567  10.771   3.848  0.00  0.00    +0.036 A 
ATOM     30  C   LIG    1        7.627   9.474   3.376  0.00  0.00    +0.048 A 
ATOM     31  C   LIG    1        8.518   9.146   2.364  0.00  0.00    +0.133 A 
ATOM     32  C   LIG    1        9.346  10.122   1.829  0.00  0.00    +0.048 A 
ATOM     33  C   LIG    1        9.282  11.417   2.304  0.00  0.00    +0.036 A 
ATOM     34  C   LIG    1        8.393  11.742   3.313  0.00  0.00    +0.122 A 
BRANCH  34  35
ATOM     35  N   LIG    1        8.327  13.130   3.821  0.00  0.00    +0.006 N 
ATOM     36  O   LIG    1        7.550  13.415   4.703  0.00  0.00    -0.130 OA
BRANCH  35  37
ATOM     37  O   LIG    1        9.049  13.980   3.353  0.00  0.00    -0.396 OA
ATOM     38  H   LIG    1        9.651  13.759   2.670  0.00  0.00    +0.329 HD
ENDBRANCH  35  37
ENDBRANCH  34  35
ENDBRANCH  28  31
ENDBRANCH  20  28
ENDBRANCH   1  24
BRANCH   1  39
ATOM     39  O   LIG    1        9.544   4.313  -3.045  0.00  0.00    -0.379 OA
ATOM     40  H   LIG    1        8.986   5.031  -3.373  0.00  0.00    +0.211 HD
ENDBRANCH   1  39
TORSDOF 8
