REMARK  Name = ZINC38145872
REMARK                            x       y       z     vdW  Elec       q    Type
REMARK                         _______ _______ _______ _____ _____    ______ ____
ROOT
ATOM      1  C   LIG    1        0.110   0.574   0.785  0.00  0.00    +0.024 C 
ATOM      2  C   LIG    1        0.439  -0.908   0.591  0.00  0.00    +0.131 C 
ATOM      3  C   LIG    1        0.788  -1.125  -0.842  0.00  0.00    +0.164 C 
ATOM      4  O   LIG    1        0.045  -0.872  -1.759  0.00  0.00    -0.295 OA
ATOM      5  C   LIG    1        2.176  -1.697  -1.020  0.00  0.00    +0.098 C 
ATOM      6  C   LIG    1        2.110  -3.066  -1.701  0.00  0.00    +0.036 C 
ATOM      7  S   LIG    1        2.799  -1.860   0.692  0.00  0.00    -0.069 S 
ATOM      8  C   LIG    1        1.502  -1.287   1.581  0.00  0.00    +0.201 C 
ATOM      9  O   LIG    1        1.434  -1.196   2.789  0.00  0.00    -0.284 OA
ENDROOT
BRANCH   5  10
ATOM     10  C   LIG    1        3.041  -0.751  -1.812  0.00  0.00    +0.001 C 
ATOM     11  C   LIG    1        3.679   0.239  -1.196  0.00  0.00    -0.053 C 
ATOM     12  C   LIG    1        3.392   0.533   0.254  0.00  0.00    +0.043 C 
BRANCH  11  13
ATOM     13  C   LIG    1        4.665   1.048  -1.929  0.00  0.00    -0.005 C 
ATOM     14  C   LIG    1        5.303   2.037  -1.313  0.00  0.00    +0.009 C 
ENDBRANCH  11  13
ENDBRANCH   5  10
TORSDOF 2
