REMARK  Name = ZINC36349347
REMARK                            x       y       z     vdW  Elec       q    Type
REMARK                         _______ _______ _______ _____ _____    ______ ____
ROOT
ATOM      1  C   LIG    1        5.408 -11.244  -2.246  0.00  0.00    +0.000 C 
ENDROOT
BRANCH   1   2
ATOM      2  C   LIG    1        5.147  -9.737  -2.212  0.00  0.00    +0.000 C 
BRANCH   2   3
ATOM      3  C   LIG    1        4.661  -9.272  -3.587  0.00  0.00    +0.004 C 
BRANCH   3   4
ATOM      4  C   LIG    1        4.400  -7.765  -3.553  0.00  0.00    +0.027 C 
BRANCH   4   6
ATOM      5  C   LIG    1        2.799  -6.641  -5.014  0.00  0.00    -0.031 C 
ATOM      6  C   LIG    1        3.922  -7.308  -4.907  0.00  0.00    -0.031 C 
BRANCH   5   7
ATOM      7  C   LIG    1        2.074  -6.182  -3.775  0.00  0.00    +0.027 C 
BRANCH   7   8
ATOM      8  C   LIG    1        1.792  -4.682  -3.876  0.00  0.00    +0.004 C 
BRANCH   8   9
ATOM      9  C   LIG    1        1.055  -4.216  -2.618  0.00  0.00    +0.000 C 
BRANCH   9  10
ATOM     10  C   LIG    1        0.773  -2.716  -2.719  0.00  0.00    +0.000 C 
BRANCH  10  11
ATOM     11  C   LIG    1        0.037  -2.250  -1.461  0.00  0.00    -0.000 C 
BRANCH  11  12
ATOM     12  C   LIG    1       -0.246  -0.749  -1.562  0.00  0.00    -0.000 C 
BRANCH  12  14
ATOM     13  C   LIG    1       -1.264   1.217  -0.405  0.00  0.00    +0.004 C 
ATOM     14  C   LIG    1       -0.982  -0.283  -0.304  0.00  0.00    -0.003 C 
ENDBRANCH  12  14
ENDBRANCH  11  12
ENDBRANCH  10  11
ENDBRANCH   9  10
ENDBRANCH   8   9
ENDBRANCH   7   8
ENDBRANCH   5   7
ENDBRANCH   4   6
ENDBRANCH   3   4
ENDBRANCH   2   3
ENDBRANCH   1   2
BRANCH   1  15
ATOM     15  C   LIG    1        5.894 -11.709  -0.872  0.00  0.00    +0.000 C 
BRANCH  15  16
ATOM     16  C   LIG    1        6.155 -13.216  -0.906  0.00  0.00    +0.009 C 
BRANCH  16  17
ATOM     17  C   LIG    1        6.640 -13.680   0.469  0.00  0.00    +0.096 C 
BRANCH  17  18
ATOM     18  C   LIG    1        6.897 -15.165   0.435  0.00  0.00    +0.217 C 
ATOM     19  N   LIG    1        7.335 -15.798   1.542  0.00  0.00    -0.285 N 
ATOM     20  H   LIG    1        7.558 -15.288   2.336  0.00  0.00    +0.155 HD
ATOM     21  O   LIG    1        6.711 -15.790  -0.587  0.00  0.00    -0.275 OA
BRANCH  19  22
ATOM     22  C   LIG    1        7.468 -17.191   1.544  0.00  0.00    +0.033 A 
ATOM     23  C   LIG    1        7.184 -17.915   2.695  0.00  0.00    +0.023 A 
ATOM     24  C   LIG    1        7.317 -19.290   2.694  0.00  0.00    +0.002 A 
ATOM     25  C   LIG    1        7.731 -19.945   1.549  0.00  0.00    +0.000 A 
ATOM     26  C   LIG    1        8.014 -19.227   0.402  0.00  0.00    +0.002 A 
ATOM     27  C   LIG    1        7.878 -17.853   0.394  0.00  0.00    +0.023 A 
ENDBRANCH  19  22
ENDBRANCH  17  18
ENDBRANCH  16  17
ENDBRANCH  15  16
ENDBRANCH   1  15
TORSDOF 16
