REMARK  Name = ZINC23247639
REMARK                            x       y       z     vdW  Elec       q    Type
REMARK                         _______ _______ _______ _____ _____    ______ ____
ROOT
ATOM      1  N   LIG    1        6.055   0.093  -0.866  0.00  0.00    -0.269 N 
ATOM      2  H   LIG    1        6.398  -0.590  -1.657  0.00  0.00    +0.156 HD
ATOM      3  C   LIG    1        4.751   0.131  -0.527  0.00  0.00    +0.308 C 
ATOM      4  N   LIG    1        3.853  -0.593  -1.222  0.00  0.00    -0.269 N 
ATOM      5  H   LIG    1        4.192  -1.274  -2.017  0.00  0.00    +0.156 HD
ATOM      6  O   LIG    1        4.386   0.819   0.407  0.00  0.00    -0.252 OA
ENDROOT
BRANCH   1  10
ATOM      7  C   LIG    1        8.788   2.560   1.084  0.00  0.00    -0.022 A 
ATOM      8  C   LIG    1        7.502   3.009   0.843  0.00  0.00    +0.007 A 
ATOM      9  C   LIG    1        6.596   2.196   0.192  0.00  0.00    +0.024 A 
ATOM     10  C   LIG    1        6.973   0.921  -0.211  0.00  0.00    +0.035 A 
ATOM     11  C   LIG    1        8.265   0.473   0.033  0.00  0.00    +0.036 A 
ATOM     12  C   LIG    1        9.168   1.294   0.679  0.00  0.00    +0.061 A 
BRANCH  12  13
ATOM     13  C   LIG    1       10.570   0.809   0.944  0.00  0.00    +0.418 C 
ATOM     14  F   LIG    1       10.801   0.780   2.324  0.00  0.00    -0.166 F 
ATOM     15  F   LIG    1       11.486   1.674   0.336  0.00  0.00    -0.166 F 
ATOM     16  F   LIG    1       10.725  -0.479   0.418  0.00  0.00    -0.166 F 
ENDBRANCH  12  13
BRANCH   7  17
ATOM     17  C   LIG    1        9.776   3.452   1.790  0.00  0.00    +0.120 C 
BRANCH  17  22
ATOM     18  N   LIG    1        9.997   3.353   6.008  0.00  0.00    +0.381 N 
ATOM     19  H   LIG    1        9.788   4.433   6.019  0.00  0.00    -0.082 HD
ATOM     20  C   LIG    1       11.237   3.139   5.248  0.00  0.00    -0.063 C 
ATOM     21  C   LIG    1       11.063   3.684   3.828  0.00  0.00    +0.066 C 
ATOM     22  N   LIG    1        9.929   3.009   3.182  0.00  0.00    -0.302 NA
ATOM     23  C   LIG    1        8.689   3.224   3.942  0.00  0.00    +0.066 C 
ATOM     24  C   LIG    1        8.863   2.678   5.361  0.00  0.00    -0.063 C 
BRANCH  18  26
ATOM     25  C   LIG    1        8.942   3.372   8.217  0.00  0.00    -0.017 C 
ATOM     26  C   LIG    1       10.150   2.910   7.400  0.00  0.00    -0.082 C 
ENDBRANCH  18  26
ENDBRANCH  17  22
ENDBRANCH   7  17
ENDBRANCH   1  10
BRANCH   4  27
ATOM     27  C   LIG    1        2.486  -0.479  -0.933  0.00  0.00    +0.035 A 
ATOM     28  C   LIG    1        1.552  -0.552  -1.958  0.00  0.00    +0.027 A 
ATOM     29  C   LIG    1        0.205  -0.439  -1.672  0.00  0.00    +0.048 A 
ATOM     30  C   LIG    1       -0.214  -0.254  -0.363  0.00  0.00    +0.130 A 
ATOM     31  C   LIG    1        0.720  -0.181   0.661  0.00  0.00    +0.048 A 
ATOM     32  C   LIG    1        2.067  -0.293   0.377  0.00  0.00    +0.027 A 
BRANCH  30  33
ATOM     33  O   LIG    1       -1.539  -0.139  -0.083  0.00  0.00    -0.438 OA
BRANCH  33  34
ATOM     34  C   LIG    1       -2.313  -1.245  -0.198  0.00  0.00    +0.225 A 
ATOM     35  C   LIG    1       -3.689  -1.164  -0.028  0.00  0.00    +0.111 A 
ATOM     36  C   LIG    1       -4.441  -2.328  -0.160  0.00  0.00    +0.125 A 
ATOM     37  N   LIG    1       -3.817  -3.472  -0.434  0.00  0.00    -0.221 NA
ATOM     38  C   LIG    1       -2.508  -3.508  -0.584  0.00  0.00    +0.227 A 
ATOM     39  N   LIG    1       -1.764  -2.426  -0.471  0.00  0.00    -0.201 NA
BRANCH  36  40
ATOM     40  N   LIG    1       -5.818  -2.299  -0.003  0.00  0.00    -0.332 N 
ATOM     41  H   LIG    1       -6.403  -3.225  -0.105  0.00  0.00    +0.147 HD
ATOM     42  C   LIG    1       -6.494  -1.034   0.298  0.00  0.00    +0.127 C 
ENDBRANCH  36  40
ENDBRANCH  33  34
ENDBRANCH  30  33
ENDBRANCH   4  27
TORSDOF 9
