REMARK  Name = ZINC28766263
REMARK                            x       y       z     vdW  Elec       q    Type
REMARK                         _______ _______ _______ _____ _____    ______ ____
ROOT
ATOM      1  C   LIG    1       -3.093   0.318   7.464  0.00  0.00    +0.055 C 
ENDROOT
BRANCH   1   2
ATOM      2  C   LIG    1       -2.981   1.820   7.199  0.00  0.00    +0.137 C 
BRANCH   2   3
ATOM      3  O   LIG    1       -4.176   2.283   6.566  0.00  0.00    -0.390 OA
ATOM      4  H   LIG    1       -4.387   1.825   5.741  0.00  0.00    +0.210 HD
ENDBRANCH   2   3
BRANCH   2   5
ATOM      5  C   LIG    1       -1.783   2.089   6.285  0.00  0.00    +0.106 C 
BRANCH   5   7
ATOM      6  C   LIG    1       -0.898   1.040   4.272  0.00  0.00    +0.251 C 
ATOM      7  N   LIG    1       -1.969   1.382   5.016  0.00  0.00    -0.307 N 
ATOM      8  H   LIG    1       -2.863   1.160   4.711  0.00  0.00    +0.149 HD
ATOM      9  O   LIG    1        0.219   1.317   4.654  0.00  0.00    -0.272 OA
BRANCH   6  10
ATOM     10  C   LIG    1       -1.089   0.312   2.966  0.00  0.00    +0.324 C 
BRANCH  10  11
ATOM     11  O   LIG    1        0.185   0.062   2.369  0.00  0.00    -0.482 OA
BRANCH  11  19
ATOM     12  C   LIG    1        0.056   1.632   0.024  0.00  0.00    +0.047 C 
ATOM     13  C   LIG    1        0.129   0.127  -0.008  0.00  0.00    -0.009 A 
ATOM     14  C   LIG    1        0.141  -0.539  -1.219  0.00  0.00    +0.007 A 
ATOM     15  C   LIG    1        0.208  -1.919  -1.249  0.00  0.00    +0.001 A 
ATOM     16  C   LIG    1        0.264  -2.637  -0.068  0.00  0.00    +0.007 A 
ATOM     17  C   LIG    1        0.252  -1.976   1.145  0.00  0.00    -0.009 A 
ATOM     18  C   LIG    1        0.312  -2.759   2.431  0.00  0.00    +0.047 C 
ATOM     19  C   LIG    1        0.190  -0.590   1.177  0.00  0.00    +0.127 A 
ENDBRANCH  11  19
ENDBRANCH  10  11
ENDBRANCH   6  10
ENDBRANCH   5   7
BRANCH   5  20
ATOM     20  C   LIG    1       -1.671   3.592   6.021  0.00  0.00    +0.060 C 
BRANCH  20  21
ATOM     21  C   LIG    1       -0.423   3.869   5.223  0.00  0.00    -0.046 A 
ATOM     22  C   LIG    1        0.770   4.124   5.873  0.00  0.00    +0.004 A 
ATOM     23  C   LIG    1        1.915   4.378   5.142  0.00  0.00    +0.000 A 
ATOM     24  C   LIG    1        1.868   4.378   3.760  0.00  0.00    +0.000 A 
ATOM     25  C   LIG    1        0.675   4.122   3.110  0.00  0.00    +0.000 A 
ATOM     26  C   LIG    1       -0.469   3.864   3.842  0.00  0.00    +0.004 A 
ENDBRANCH  20  21
ENDBRANCH   5  20
ENDBRANCH   2   5
ENDBRANCH   1   2
BRANCH   1  27
ATOM     27  C   LIG    1       -4.166   0.066   8.525  0.00  0.00    +0.080 C 
BRANCH  27  28
ATOM     28  N   LIG    1       -5.484   0.388   7.974  0.00  0.00    -0.311 N 
ATOM     29  H   LIG    1       -5.679   0.200   7.043  0.00  0.00    +0.149 HD
ATOM     30  C   LIG    1       -6.426   0.946   8.761  0.00  0.00    +0.234 C 
ATOM     31  O   LIG    1       -6.156   1.257   9.901  0.00  0.00    -0.274 OA
BRANCH  30  32
ATOM     32  C   LIG    1       -7.814   1.182   8.223  0.00  0.00    +0.166 C 
BRANCH  32  33
ATOM     33  N   LIG    1       -8.696   1.601   9.315  0.00  0.00    -0.274 N 
ATOM     34  C   LIG    1       -9.868   0.789   9.642  0.00  0.00    +0.114 C 
ATOM     35  C   LIG    1      -10.190   0.947  11.132  0.00  0.00    +0.070 C 
ATOM     36  C   LIG    1      -10.367   2.438  11.437  0.00  0.00    +0.205 C 
ATOM     37  N   LIG    1       -9.168   3.161  11.012  0.00  0.00    -0.274 N 
ATOM     38  H   LIG    1       -8.914   3.974  11.476  0.00  0.00    +0.153 HD
ATOM     39  C   LIG    1       -8.409   2.720   9.998  0.00  0.00    +0.305 C 
ATOM     40  O   LIG    1       -7.426   3.361   9.682  0.00  0.00    -0.253 OA
BRANCH  36  41
ATOM     41  O   LIG    1      -10.563   2.618  12.841  0.00  0.00    -0.374 OA
ATOM     42  H   LIG    1      -10.683   3.541  13.106  0.00  0.00    +0.212 HD
ENDBRANCH  36  41
ENDBRANCH  32  33
BRANCH  32  43
ATOM     43  C   LIG    1       -7.767   2.277   7.155  0.00  0.00    +0.012 C 
ATOM     44  C   LIG    1       -9.193   2.649   6.744  0.00  0.00    +0.009 C 
ATOM     45  C   LIG    1       -7.001   1.766   5.933  0.00  0.00    +0.009 C 
ENDBRANCH  32  43
ENDBRANCH  30  32
ENDBRANCH  27  28
BRANCH  27  46
ATOM     46  C   LIG    1       -4.134  -1.406   8.944  0.00  0.00    +0.057 C 
BRANCH  46  47
ATOM     47  C   LIG    1       -5.104  -1.627  10.075  0.00  0.00    -0.046 A 
ATOM     48  C   LIG    1       -4.685  -1.480  11.384  0.00  0.00    +0.004 A 
ATOM     49  C   LIG    1       -5.576  -1.684  12.422  0.00  0.00    +0.000 A 
ATOM     50  C   LIG    1       -6.885  -2.034  12.151  0.00  0.00    +0.000 A 
ATOM     51  C   LIG    1       -7.304  -2.180  10.842  0.00  0.00    +0.000 A 
ATOM     52  C   LIG    1       -6.415  -1.973   9.804  0.00  0.00    +0.004 A 
ENDBRANCH  46  47
ENDBRANCH  27  46
ENDBRANCH   1  27
TORSDOF 17
