REMARK  Name = ZINC45315721
REMARK                            x       y       z     vdW  Elec       q    Type
REMARK                         _______ _______ _______ _____ _____    ______ ____
ROOT
ATOM      1  C   LIG    1        6.167  -6.854   8.041  0.00  0.00    +0.135 C 
ENDROOT
BRANCH   1   2
ATOM      2  O   LIG    1        6.038  -5.890   9.089  0.00  0.00    -0.390 OA
ATOM      3  H   LIG    1        6.509  -5.062   8.921  0.00  0.00    +0.210 HD
ENDBRANCH   1   2
BRANCH   1   4
ATOM      4  C   LIG    1        5.608  -6.272   6.742  0.00  0.00    +0.258 C 
BRANCH   4   5
ATOM      5  O   LIG    1        4.203  -6.053   6.883  0.00  0.00    -0.488 OA
BRANCH   5   9
ATOM      6  C   LIG    1        2.212  -4.481   3.619  0.00  0.00    -0.045 A 
ATOM      7  C   LIG    1        3.575  -4.721   3.558  0.00  0.00    +0.007 A 
ATOM      8  C   LIG    1        4.242  -5.246   4.647  0.00  0.00    +0.047 A 
ATOM      9  C   LIG    1        3.549  -5.537   5.812  0.00  0.00    +0.138 A 
ATOM     10  C   LIG    1        2.169  -5.296   5.879  0.00  0.00    +0.094 A 
ATOM     11  C   LIG    1        1.508  -4.760   4.771  0.00  0.00    +0.026 A 
BRANCH  10  12
ATOM     12  C   LIG    1        1.443  -5.593   7.077  0.00  0.00    +0.103 C 
ATOM     13  N   LIG    1        0.867  -5.829   8.027  0.00  0.00    -0.191 NA
ENDBRANCH  10  12
BRANCH   6  14
ATOM     14  C   LIG    1        1.496  -3.909   2.423  0.00  0.00    +0.046 C 
BRANCH  14  15
ATOM     15  C   LIG    1        1.516  -2.381   2.500  0.00  0.00    +0.125 C 
BRANCH  15  16
ATOM     16  C   LIG    1        0.801  -1.808   1.304  0.00  0.00    +0.307 C 
ATOM     17  O   LIG    1        0.324  -2.546   0.475  0.00  0.00    -0.251 OA
BRANCH  16  18
ATOM     18  O   LIG    1        0.693  -0.477   1.160  0.00  0.00    -0.465 OA
BRANCH  18  20
ATOM     19  C   LIG    1       -0.019   1.526   0.010  0.00  0.00    +0.048 C 
ATOM     20  C   LIG    1        0.002  -0.004   0.002  0.00  0.00    +0.229 C 
ENDBRANCH  18  20
ENDBRANCH  16  18
ENDBRANCH  15  16
ENDBRANCH  14  15
ENDBRANCH   6  14
ENDBRANCH   5   9
ENDBRANCH   4   5
ENDBRANCH   1   4
BRANCH   1  21
ATOM     21  C   LIG    1        7.644  -7.205   7.850  0.00  0.00    -0.047 C 
BRANCH  21  22
ATOM     22  N   LIG    1        8.149  -7.873   9.057  0.00  0.00    +0.384 N 
ATOM     23  H   LIG    1        7.621  -8.717   9.220  0.00  0.00    -0.085 HD
ATOM     24  H   LIG    1        8.050  -7.256   9.849  0.00  0.00    -0.085 HD
BRANCH  22  25
ATOM     25  C   LIG    1        9.567  -8.210   8.873  0.00  0.00    -0.070 C 
ATOM     26  C   LIG    1       10.367  -6.929   8.625  0.00  0.00    -0.010 C 
ATOM     27  C   LIG    1        9.717  -9.145   7.671  0.00  0.00    -0.010 C 
BRANCH  25  28
ATOM     28  C   LIG    1       10.093  -8.905  10.130  0.00  0.00    +0.022 C 
BRANCH  28  29
ATOM     29  C   LIG    1       11.548  -9.250   9.941  0.00  0.00    -0.048 A 
ATOM     30  C   LIG    1       11.895 -10.481   9.386  0.00  0.00    +0.004 A 
ATOM     31  C   LIG    1       13.199 -10.825   9.203  0.00  0.00    +0.009 A 
ATOM     32  C   LIG    1       14.213  -9.927   9.576  0.00  0.00    -0.018 A 
ATOM     33  C   LIG    1       15.571 -10.245   9.401  0.00  0.00    +0.008 A 
ATOM     34  C   LIG    1       16.526  -9.351   9.774  0.00  0.00    +0.001 A 
ATOM     35  C   LIG    1       16.179  -8.120  10.328  0.00  0.00    +0.001 A 
ATOM     36  C   LIG    1       14.875  -7.777  10.512  0.00  0.00    +0.008 A 
ATOM     37  C   LIG    1       13.861  -8.675  10.139  0.00  0.00    -0.018 A 
ATOM     38  C   LIG    1       12.503  -8.354  10.309  0.00  0.00    +0.012 A 
ENDBRANCH  28  29
ENDBRANCH  25  28
ENDBRANCH  22  25
ENDBRANCH  21  22
ENDBRANCH   1  21
TORSDOF 15
