REMARK  Name = ZINC13836506
REMARK                            x       y       z     vdW  Elec       q    Type
REMARK                         _______ _______ _______ _____ _____    ______ ____
ROOT
ATOM      1  C   LIG    1        2.442   3.213  -0.004  0.00  0.00    +0.028 C 
ATOM      2  C   LIG    1        1.809   2.061  -0.335  0.00  0.00    +0.080 C 
ATOM      3  C   LIG    1        2.351   0.691  -0.463  0.00  0.00    +0.261 C 
ATOM      4  N   LIG    1        1.492  -0.255  -0.805  0.00  0.00    -0.218 N 
ATOM      5  C   LIG    1        0.190   0.021  -1.024  0.00  0.00    +0.286 C 
ATOM      6  O   LIG    1       -0.701  -0.745  -1.341  0.00  0.00    -0.262 OA
ATOM      7  O   LIG    1        3.526   0.447  -0.264  0.00  0.00    -0.269 OA
ATOM      8  S   LIG    1        0.090   1.780  -0.737  0.00  0.00    -0.026 S 
ENDROOT
BRANCH   1  13
ATOM      9  C   LIG    1       -0.193   5.769  -0.785  0.00  0.00    +0.121 A 
ATOM     10  C   LIG    1        0.396   6.921  -0.280  0.00  0.00    +0.045 A 
ATOM     11  C   LIG    1        1.645   6.865   0.311  0.00  0.00    +0.004 A 
ATOM     12  C   LIG    1        2.316   5.663   0.404  0.00  0.00    +0.008 A 
ATOM     13  C   LIG    1        1.732   4.496  -0.101  0.00  0.00    -0.020 A 
ATOM     14  C   LIG    1        0.471   4.558  -0.703  0.00  0.00    +0.053 A 
BRANCH   9  16
ATOM     15  C   LIG    1       -2.046   7.115  -1.420  0.00  0.00    +0.277 C 
ATOM     16  O   LIG    1       -1.421   5.832  -1.365  0.00  0.00    -0.495 OA
ENDBRANCH   9  16
ENDBRANCH   1  13
BRANCH   4  17
ATOM     17  C   LIG    1        1.966  -1.634  -0.949  0.00  0.00    +0.237 C 
BRANCH  17  18
ATOM     18  C   LIG    1        2.410  -1.867  -2.369  0.00  0.00    +0.323 C 
ATOM     19  O   LIG    1        2.339  -0.973  -3.179  0.00  0.00    -0.249 OA
BRANCH  18  20
ATOM     20  O   LIG    1        2.886  -3.067  -2.736  0.00  0.00    -0.480 OA
ATOM     21  H   LIG    1        2.942  -3.761  -2.108  0.00  0.00    +0.295 HD
ENDBRANCH  18  20
ENDBRANCH  17  18
ENDBRANCH   4  17
TORSDOF 5
