REMARK  Name = ZINC45320555
REMARK                            x       y       z     vdW  Elec       q    Type
REMARK                         _______ _______ _______ _____ _____    ______ ____
ROOT
ATOM      1  C   LIG    1        5.392  -3.346  -3.250  0.00  0.00    +0.050 A 
ATOM      2  C   LIG    1        6.231  -3.830  -4.199  0.00  0.00    +0.043 A 
ATOM      3  C   LIG    1        7.592  -3.982  -3.901  0.00  0.00    +0.115 A 
ATOM      4  N   LIG    1        8.050  -3.658  -2.714  0.00  0.00    -0.236 NA
ATOM      5  C   LIG    1        7.232  -3.179  -1.771  0.00  0.00    +0.164 A 
ATOM      6  C   LIG    1        7.453  -2.765  -0.451  0.00  0.00    +0.055 A 
ATOM      7  C   LIG    1        6.212  -2.338   0.063  0.00  0.00    +0.103 A 
ATOM      8  N   LIG    1        5.294  -2.494  -0.872  0.00  0.00    -0.164 NA
ATOM      9  N   LIG    1        5.895  -3.011  -2.025  0.00  0.00    -0.217 N 
ENDROOT
BRANCH   1  16
ATOM     10  C   LIG    1        0.776  -1.798  -1.335  0.00  0.00    +0.403 C 
ATOM     11  N   LIG    1        1.395  -2.298  -2.422  0.00  0.00    -0.261 N 
ATOM     12  C   LIG    1        2.027  -1.557  -3.541  0.00  0.00    +0.080 C 
ATOM     13  C   LIG    1        1.603  -2.341  -4.804  0.00  0.00    +0.024 C 
ATOM     14  C   LIG    1        1.325  -3.774  -4.302  0.00  0.00    +0.024 C 
ATOM     15  C   LIG    1        3.549  -1.692  -3.375  0.00  0.00    +0.032 C 
ATOM     16  C   LIG    1        3.924  -3.172  -3.545  0.00  0.00    +0.041 C 
ATOM     17  C   LIG    1        3.105  -4.022  -2.569  0.00  0.00    +0.032 C 
ATOM     18  C   LIG    1        1.612  -3.721  -2.780  0.00  0.00    +0.080 C 
ATOM     19  O   LIG    1        0.312  -2.549  -0.500  0.00  0.00    -0.226 OA
BRANCH  10  20
ATOM     20  O   LIG    1        0.671  -0.465  -1.174  0.00  0.00    -0.451 OA
BRANCH  20  22
ATOM     21  C   LIG    1       -0.019   1.526   0.010  0.00  0.00    +0.048 C 
ATOM     22  C   LIG    1        0.002  -0.004   0.002  0.00  0.00    +0.230 C 
ENDBRANCH  20  22
ENDBRANCH  10  20
ENDBRANCH   1  16
BRANCH   6  23
ATOM     23  C   LIG    1        8.746  -2.762   0.262  0.00  0.00    -0.002 A 
ATOM     24  C   LIG    1        9.566  -1.641   0.220  0.00  0.00    +0.009 A 
ATOM     25  C   LIG    1       10.780  -1.635   0.889  0.00  0.00    +0.003 A 
ATOM     26  C   LIG    1       11.195  -2.736   1.605  0.00  0.00    +0.028 A 
ATOM     27  C   LIG    1       10.395  -3.875   1.665  0.00  0.00    +0.066 A 
ATOM     28  N   LIG    1       10.529  -5.095   2.278  0.00  0.00    -0.277 N 
ATOM     29  H   LIG    1       11.281  -5.381   2.820  0.00  0.00    +0.189 HD
ATOM     30  N   LIG    1        9.384  -5.850   1.996  0.00  0.00    -0.181 NA
ATOM     31  C   LIG    1        8.577  -5.160   1.242  0.00  0.00    +0.143 A 
ATOM     32  C   LIG    1        9.158  -3.895   0.997  0.00  0.00    +0.027 A 
ENDBRANCH   6  23
BRANCH   7  33
ATOM     33  C   LIG    1        5.975  -1.814   1.429  0.00  0.00    +0.006 A 
ATOM     34  C   LIG    1        6.699  -2.303   2.521  0.00  0.00    +0.030 A 
ATOM     35  C   LIG    1        6.447  -1.787   3.776  0.00  0.00    +0.111 A 
ATOM     36  N   LIG    1        5.538  -0.847   3.952  0.00  0.00    -0.263 NA
ATOM     37  C   LIG    1        4.833  -0.359   2.949  0.00  0.00    +0.111 A 
ATOM     38  C   LIG    1        5.026  -0.814   1.661  0.00  0.00    +0.030 A 
ENDBRANCH   7  33
TORSDOF 5
