REMARK  Name = ZINC32794466
REMARK                            x       y       z     vdW  Elec       q    Type
REMARK                         _______ _______ _______ _____ _____    ______ ____
ROOT
ATOM      1  N   LIG    1        4.211  -2.826  -4.180  0.00  0.00    -0.174 NA
ATOM      2  C   LIG    1        5.202  -1.785  -4.485  0.00  0.00    +0.126 C 
ATOM      3  C   LIG    1        5.927  -1.404  -3.188  0.00  0.00    +0.126 C 
ATOM      4  N   LIG    1        6.375  -2.634  -2.522  0.00  0.00    -0.174 NA
ATOM      5  C   LIG    1        5.385  -3.676  -2.217  0.00  0.00    +0.126 C 
ATOM      6  C   LIG    1        4.658  -4.055  -3.509  0.00  0.00    +0.126 C 
ENDROOT
BRANCH   1   7
ATOM      7  S   LIG    1        2.618  -2.616  -4.580  0.00  0.00    +0.061 S 
ATOM      8  O   LIG    1        2.587  -1.683  -5.651  0.00  0.00    -0.153 OA
ATOM      9  O   LIG    1        2.051  -3.915  -4.685  0.00  0.00    -0.153 OA
BRANCH   7  13
ATOM     10  C   LIG    1        0.606  -0.607  -1.056  0.00  0.00    +0.120 A 
ATOM     11  C   LIG    1        1.173   0.161  -2.062  0.00  0.00    +0.047 A 
ATOM     12  C   LIG    1        1.786  -0.455  -3.136  0.00  0.00    +0.032 A 
ATOM     13  C   LIG    1        1.835  -1.835  -3.209  0.00  0.00    +0.106 A 
ATOM     14  C   LIG    1        1.270  -2.602  -2.207  0.00  0.00    +0.032 A 
ATOM     15  C   LIG    1        0.661  -1.992  -1.128  0.00  0.00    +0.047 A 
BRANCH  10  17
ATOM     16  C   LIG    1       -0.017   1.425   0.010  0.00  0.00    +0.277 C 
ATOM     17  O   LIG    1        0.002  -0.004   0.002  0.00  0.00    -0.495 OA
ENDBRANCH  10  17
ENDBRANCH   7  13
ENDBRANCH   1   7
BRANCH   4  18
ATOM     18  S   LIG    1        7.969  -2.844  -2.122  0.00  0.00    +0.066 S 
ATOM     19  O   LIG    1        8.719  -2.009  -2.993  0.00  0.00    -0.153 OA
ATOM     20  O   LIG    1        8.185  -4.246  -2.036  0.00  0.00    -0.153 OA
BRANCH  18  21
ATOM     21  C   LIG    1        8.187  -2.201  -0.496  0.00  0.00    +0.175 A 
ATOM     22  C   LIG    1        8.524  -0.870  -0.317  0.00  0.00    +0.152 A 
ATOM     23  F   LIG    1        8.687  -0.064  -1.389  0.00  0.00    -0.203 F 
ATOM     24  C   LIG    1        8.695  -0.366   0.961  0.00  0.00    +0.040 A 
ATOM     25  C   LIG    1        8.529  -1.191   2.058  0.00  0.00    +0.006 A 
ATOM     26  C   LIG    1        8.193  -2.519   1.880  0.00  0.00    +0.040 A 
ATOM     27  C   LIG    1        8.015  -3.024   0.603  0.00  0.00    +0.152 A 
ATOM     28  F   LIG    1        7.681  -4.322   0.430  0.00  0.00    -0.203 F 
ENDBRANCH  18  21
ENDBRANCH   4  18
TORSDOF 5
