REMARK  Name = ZINC13818119
REMARK                            x       y       z     vdW  Elec       q    Type
REMARK                         _______ _______ _______ _____ _____    ______ ____
ROOT
ATOM      1  N   LIG    1        2.088  -2.756   3.579  0.00  0.00    -0.260 N 
ATOM      2  C   LIG    1        1.316  -2.148   4.519  0.00  0.00    +0.132 A 
ATOM      3  N   LIG    1        1.726  -1.151   5.243  0.00  0.00    -0.232 NA
ATOM      4  C   LIG    1        2.975  -0.640   5.107  0.00  0.00    +0.078 A 
ATOM      5  C   LIG    1        3.417   0.432   5.886  0.00  0.00    +0.028 A 
ATOM      6  C   LIG    1        4.693   0.919   5.714  0.00  0.00    +0.002 A 
ATOM      7  C   LIG    1        5.548   0.358   4.774  0.00  0.00    +0.001 A 
ATOM      8  C   LIG    1        5.136  -0.699   3.994  0.00  0.00    +0.015 A 
ATOM      9  C   LIG    1        3.848  -1.208   4.153  0.00  0.00    +0.065 A 
ATOM     10  C   LIG    1        3.355  -2.339   3.353  0.00  0.00    +0.266 A 
ATOM     11  O   LIG    1        4.059  -2.877   2.518  0.00  0.00    -0.267 OA
ENDROOT
BRANCH   1  17
ATOM     12  C   LIG    1        0.906  -3.591   1.637  0.00  0.00    +0.144 A 
ATOM     13  C   LIG    1        0.398  -4.654   0.908  0.00  0.00    +0.048 A 
ATOM     14  C   LIG    1        0.544  -5.946   1.377  0.00  0.00    +0.004 A 
ATOM     15  C   LIG    1        1.196  -6.182   2.574  0.00  0.00    +0.002 A 
ATOM     16  C   LIG    1        1.705  -5.127   3.307  0.00  0.00    +0.030 A 
ATOM     17  C   LIG    1        1.567  -3.828   2.840  0.00  0.00    +0.093 A 
BRANCH  12  18
ATOM     18  O   LIG    1        0.763  -2.319   1.176  0.00  0.00    -0.490 OA
BRANCH  18  20
ATOM     19  C   LIG    1        0.013  -0.664  -0.417  0.00  0.00    +0.048 C 
ATOM     20  C   LIG    1        0.074  -2.152  -0.064  0.00  0.00    +0.226 C 
ENDBRANCH  18  20
ENDBRANCH  12  18
ENDBRANCH   1  17
BRANCH   2  21
ATOM     21  C   LIG    1       -0.086  -2.658   4.733  0.00  0.00    +0.159 C 
BRANCH  21  22
ATOM     22  N   LIG    1       -0.739  -1.868   5.785  0.00  0.00    -0.292 NA
ATOM     23  C   LIG    1       -0.083  -2.075   7.083  0.00  0.00    +0.104 C 
ATOM     24  C   LIG    1       -0.673  -1.104   8.111  0.00  0.00    +0.123 C 
ATOM     25  N   LIG    1       -2.135  -1.264   8.120  0.00  0.00    -0.293 N 
ATOM     26  C   LIG    1       -2.802  -1.459   9.274  0.00  0.00    +0.282 C 
ATOM     27  O   LIG    1       -2.188  -1.629  10.311  0.00  0.00    -0.267 OA
ATOM     28  C   LIG    1       -2.850  -1.206   6.836  0.00  0.00    +0.123 C 
ATOM     29  C   LIG    1       -2.174  -2.173   5.858  0.00  0.00    +0.104 C 
BRANCH  26  30
ATOM     30  C   LIG    1       -4.269  -1.468   9.282  0.00  0.00    +0.189 A 
ATOM     31  C   LIG    1       -5.064  -1.793  10.343  0.00  0.00    +0.054 A 
ATOM     32  C   LIG    1       -6.392  -1.665   9.906  0.00  0.00    +0.042 A 
ATOM     33  C   LIG    1       -6.349  -1.272   8.614  0.00  0.00    +0.196 A 
ATOM     34  O   LIG    1       -5.069  -1.149   8.243  0.00  0.00    -0.458 OA
ENDBRANCH  26  30
ENDBRANCH  21  22
ENDBRANCH   2  21
TORSDOF 6
