REMARK  Name = ZINC26393493
REMARK                            x       y       z     vdW  Elec       q    Type
REMARK                         _______ _______ _______ _____ _____    ______ ____
ROOT
ATOM      1  C   LIG    1       -6.693   8.097  -3.654  0.00  0.00    +0.016 C 
ATOM      2  C   LIG    1       -6.732   8.529  -2.187  0.00  0.00    -0.008 C 
ATOM      3  C   LIG    1       -8.179   8.417  -1.696  0.00  0.00    +0.014 C 
ATOM      4  C   LIG    1       -9.058   9.390  -2.485  0.00  0.00    +0.032 C 
ATOM      5  C   LIG    1       -8.603  10.827  -2.221  0.00  0.00    +0.119 C 
ATOM      6  C   LIG    1       -7.176  11.014  -2.747  0.00  0.00    +0.062 C 
ATOM      7  C   LIG    1       -5.844   7.589  -1.385  0.00  0.00    +0.003 C 
ATOM      8  C   LIG    1       -5.980   6.175  -1.967  0.00  0.00    +0.005 C 
ATOM      9  C   LIG    1       -5.165   5.206  -1.127  0.00  0.00    +0.013 C 
ATOM     10  C   LIG    1       -3.676   5.561  -1.146  0.00  0.00    +0.012 C 
ATOM     11  C   LIG    1       -2.999   5.176  -2.463  0.00  0.00    +0.018 C 
ATOM     12  C   LIG    1       -3.455   7.042  -0.792  0.00  0.00    +0.008 C 
ATOM     13  C   LIG    1       -3.646   7.001   0.738  0.00  0.00    +0.033 C 
ATOM     14  C   LIG    1       -3.051   5.650   1.105  0.00  0.00    -0.004 C 
ATOM     15  C   LIG    1       -3.053   4.849   0.055  0.00  0.00    +0.027 C 
ATOM     16  C   LIG    1       -4.381   8.009  -1.480  0.00  0.00    +0.001 C 
ATOM     17  C   LIG    1       -4.248   9.399  -0.846  0.00  0.00    +0.031 C 
ATOM     18  C   LIG    1       -5.193  10.347  -1.524  0.00  0.00    -0.027 C 
ATOM     19  C   LIG    1       -6.288   9.959  -2.108  0.00  0.00    -0.065 C 
ENDROOT
BRANCH  15  20
ATOM     20  N   LIG    1       -2.564   3.543   0.045  0.00  0.00    -0.302 N 
ATOM     21  C   LIG    1       -3.308   2.401   0.047  0.00  0.00    +0.205 A 
ATOM     22  N   LIG    1       -2.528   1.360   0.034  0.00  0.00    -0.235 NA
ATOM     23  C   LIG    1       -1.230   1.760   0.017  0.00  0.00    +0.089 A 
ATOM     24  C   LIG    1       -0.013   1.076   0.008  0.00  0.00    +0.030 A 
ATOM     25  C   LIG    1        1.169   1.783   0.001  0.00  0.00    +0.002 A 
ATOM     26  C   LIG    1        1.160   3.170   0.007  0.00  0.00    +0.002 A 
ATOM     27  C   LIG    1       -0.034   3.861   0.022  0.00  0.00    +0.028 A 
ATOM     28  C   LIG    1       -1.234   3.166   0.030  0.00  0.00    +0.073 A 
ENDBRANCH  15  20
BRANCH   5  29
ATOM     29  O   LIG    1       -9.480  11.735  -2.890  0.00  0.00    -0.391 OA
ATOM     30  H   LIG    1       -9.310  12.819  -2.816  0.00  0.00    +0.210 HD
ENDBRANCH   5  29
TORSDOF 2
