REMARK  Name = ZINC33359232
REMARK                            x       y       z     vdW  Elec       q    Type
REMARK                         _______ _______ _______ _____ _____    ______ ____
ROOT
ATOM      1  N   LIG    1        4.009  -3.726  -1.442  0.00  0.00    -0.291 NA
ENDROOT
BRANCH   1   2
ATOM      2  C   LIG    1        4.989  -2.694  -1.808  0.00  0.00    +0.074 C 
ATOM      3  C   LIG    1        6.360  -3.084  -1.259  0.00  0.00    +0.020 C 
ATOM      4  C   LIG    1        7.403  -2.115  -1.827  0.00  0.00    +0.002 C 
ATOM      5  C   LIG    1        7.562  -2.401  -3.320  0.00  0.00    +0.005 C 
ATOM      6  C   LIG    1        6.219  -2.426  -3.999  0.00  0.00    +0.008 C 
ATOM      7  C   LIG    1        6.186  -2.303  -5.384  0.00  0.00    +0.006 C 
ATOM      8  C   LIG    1        4.962  -2.329  -6.028  0.00  0.00    +0.015 C 
ATOM      9  C   LIG    1        3.814  -2.475  -5.273  0.00  0.00    +0.081 C 
ATOM     10  N   LIG    1        3.884  -2.586  -3.964  0.00  0.00    -0.312 NA
ATOM     11  H   LIG    1        3.061  -2.687  -3.460  0.00  0.00    +0.122 HD
ATOM     12  C   LIG    1        5.037  -2.565  -3.309  0.00  0.00    +0.074 C 
ENDBRANCH   1   2
BRANCH   1  13
ATOM     13  C   LIG    1        3.623  -3.608  -0.030  0.00  0.00    +0.159 C 
BRANCH  13  20
ATOM     14  C   LIG    1       -0.326   0.892   0.645  0.00  0.00    +0.002 A 
ATOM     15  C   LIG    1        0.832   1.647   0.764  0.00  0.00    +0.002 A 
ATOM     16  C   LIG    1        2.061   1.056   0.677  0.00  0.00    +0.030 A 
ATOM     17  C   LIG    1        2.157  -0.322   0.467  0.00  0.00    +0.089 A 
ATOM     18  C   LIG    1        0.984  -1.087   0.347  0.00  0.00    +0.066 A 
ATOM     19  N   LIG    1        1.397  -2.389   0.149  0.00  0.00    -0.341 N 
ATOM     20  C   LIG    1        2.757  -2.388   0.154  0.00  0.00    +0.122 A 
ATOM     21  H   LIG    1        0.823  -3.162   0.029  0.00  0.00    +0.167 HD
ATOM     22  N   LIG    1        3.203  -1.179   0.340  0.00  0.00    -0.231 NA
ATOM     23  C   LIG    1       -0.256  -0.469   0.437  0.00  0.00    +0.028 A 
ENDBRANCH  13  20
ENDBRANCH   1  13
BRANCH   1  24
ATOM     24  C   LIG    1        4.526  -5.070  -1.735  0.00  0.00    +0.085 C 
BRANCH  24  25
ATOM     25  C   LIG    1        4.532  -5.295  -3.249  0.00  0.00    +0.013 C 
BRANCH  25  26
ATOM     26  C   LIG    1        5.069  -6.694  -3.555  0.00  0.00    -0.018 C 
BRANCH  26  27
ATOM     27  C   LIG    1        5.075  -6.919  -5.068  0.00  0.00    -0.086 C 
BRANCH  27  28
ATOM     28  N   LIG    1        5.591  -8.262  -5.362  0.00  0.00    +0.378 N 
ATOM     29  H   LIG    1        6.532  -8.347  -5.005  0.00  0.00    -0.090 HD
ATOM     30  H   LIG    1        5.595  -8.410  -6.360  0.00  0.00    -0.090 HD
ATOM     31  H   LIG    1        5.002  -8.953  -4.921  0.00  0.00    -0.090 HD
ENDBRANCH  27  28
ENDBRANCH  26  27
ENDBRANCH  25  26
ENDBRANCH  24  25
ENDBRANCH   1  24
TORSDOF 8
