REMARK  Name = ZINC14980233
REMARK                            x       y       z     vdW  Elec       q    Type
REMARK                         _______ _______ _______ _____ _____    ______ ____
ROOT
ATOM      1  C   LIG    1       -0.017   1.383   0.010  0.00  0.00    +0.036 A 
ATOM      2  C   LIG    1        1.160   2.100   0.002  0.00  0.00    +0.052 A 
ATOM      3  C   LIG    1        2.379   1.433  -0.013  0.00  0.00    +0.171 A 
ATOM      4  C   LIG    1        2.399   0.030  -0.021  0.00  0.00    +0.086 A 
ATOM      5  C   LIG    1        3.814  -0.365  -0.036  0.00  0.00    +0.260 A 
ATOM      6  N   LIG    1        4.521   0.729  -0.037  0.00  0.00    -0.039 NA
ATOM      7  C   LIG    1        1.200  -0.683  -0.013  0.00  0.00    +0.049 A 
ATOM      8  O   LIG    1        3.661   1.851  -0.023  0.00  0.00    -0.351 OA
ATOM      9  C   LIG    1        0.002  -0.004   0.002  0.00  0.00    +0.123 A 
ENDROOT
BRANCH   5  10
ATOM     10  O   LIG    1        4.295  -1.633  -0.048  0.00  0.00    -0.490 OA
ATOM     11  H   LIG    1        3.703  -2.359  -0.046  0.00  0.00    +0.294 HD
ENDBRANCH   5  10
BRANCH   9  12
ATOM     12  N   LIG    1       -1.272  -0.758   0.011  0.00  0.00    +0.006 N 
ATOM     13  O   LIG    1       -2.325  -0.164   0.024  0.00  0.00    -0.130 OA
BRANCH  12  14
ATOM     14  O   LIG    1       -1.259  -1.967   0.004  0.00  0.00    -0.396 OA
ATOM     15  H   LIG    1       -0.443  -2.426  -0.007  0.00  0.00    +0.329 HD
ENDBRANCH  12  14
ENDBRANCH   9  12
TORSDOF 3
