REMARK  Name = ZINC00001773
REMARK                            x       y       z     vdW  Elec       q    Type
REMARK                         _______ _______ _______ _____ _____    ______ ____
ROOT
ATOM      1  C   LIG    1       -0.244   1.257   0.466  0.00  0.00    +0.007 A 
ATOM      2  C   LIG    1        0.908   2.020   0.562  0.00  0.00    +0.049 A 
ATOM      3  C   LIG    1        2.190   1.475   0.535  0.00  0.00    +0.159 A 
ATOM      4  C   LIG    1        2.288   0.088   0.381  0.00  0.00    +0.167 A 
ATOM      5  C   LIG    1        1.112  -0.633   0.230  0.00  0.00    +0.014 A 
ATOM      6  C   LIG    1        1.483  -2.084   0.045  0.00  0.00    +0.069 C 
ATOM      7  C   LIG    1        2.887  -2.104   0.634  0.00  0.00    +0.252 C 
ATOM      8  C   LIG    1        2.871  -2.303   2.121  0.00  0.00    +0.175 C 
ATOM      9  C   LIG    1        1.753  -2.995   2.842  0.00  0.00    +0.081 C 
ATOM     10  C   LIG    1        0.436  -2.526   2.233  0.00  0.00    +0.042 C 
ATOM     11  O   LIG    1        3.802  -1.887   2.768  0.00  0.00    -0.293 OA
ATOM     12  C   LIG    1        1.480  -2.429  -1.443  0.00  0.00    -0.000 C 
ATOM     13  C   LIG    1        0.091  -2.113  -2.009  0.00  0.00    -0.077 C 
ATOM     14  N   LIG    1       -0.931  -2.872  -1.283  0.00  0.00    +0.384 N 
ATOM     15  H   LIG    1       -0.737  -3.858  -1.371  0.00  0.00    -0.081 HD
ATOM     16  C   LIG    1       -0.940  -2.506   0.138  0.00  0.00    -0.031 C 
ATOM     17  C   LIG    1       -1.328  -1.048   0.310  0.00  0.00    +0.023 C 
ATOM     18  C   LIG    1        0.417  -2.875   0.746  0.00  0.00    +0.068 C 
ATOM     19  O   LIG    1        3.351  -0.746   0.366  0.00  0.00    -0.476 OA
ATOM     20  C   LIG    1       -0.160  -0.116   0.316  0.00  0.00    -0.041 A 
ENDROOT
BRANCH   3  21
ATOM     21  O   LIG    1        3.297   2.257   0.652  0.00  0.00    -0.503 OA
ATOM     22  H   LIG    1        3.594   2.384   1.564  0.00  0.00    +0.292 HD
ENDBRANCH   3  21
BRANCH  18  23
ATOM     23  O   LIG    1        0.652  -4.274   0.579  0.00  0.00    -0.389 OA
ATOM     24  H   LIG    1       -0.011  -4.838   1.001  0.00  0.00    +0.210 HD
ENDBRANCH  18  23
BRANCH  14  25
ATOM     25  C   LIG    1       -2.249  -2.585  -1.864  0.00  0.00    -0.075 C 
BRANCH  25  26
ATOM     26  C   LIG    1       -2.301  -3.115  -3.298  0.00  0.00    -0.028 C 
ATOM     27  C   LIG    1       -2.479  -2.094  -4.423  0.00  0.00    +0.002 C 
ATOM     28  C   LIG    1       -3.636  -3.019  -4.039  0.00  0.00    +0.002 C 
ENDBRANCH  25  26
ENDBRANCH  14  25
TORSDOF 4
