REMARK  Name = ZINC35856171
REMARK                            x       y       z     vdW  Elec       q    Type
REMARK                         _______ _______ _______ _____ _____    ______ ____
ROOT
ATOM      1  C   LIG    1       -1.262  -0.764   0.011  0.00  0.00    +0.244 C 
ATOM      2  N   LIG    1       -2.441  -0.111   0.027  0.00  0.00    -0.310 N 
ATOM      3  H   LIG    1       -2.458   0.859   0.032  0.00  0.00    +0.149 HD
ATOM      4  O   LIG    1       -1.241  -1.980   0.004  0.00  0.00    -0.270 OA
ENDROOT
BRANCH   1  14
ATOM      5  C   LIG    1       -0.017   1.393   0.010  0.00  0.00    +0.015 A 
ATOM      6  C   LIG    1        1.162   2.098   0.002  0.00  0.00    +0.024 A 
ATOM      7  C   LIG    1        2.390   1.427  -0.014  0.00  0.00    +0.030 A 
ATOM      8  C   LIG    1        2.404   0.037  -0.021  0.00  0.00    -0.024 A 
ATOM      9  C   LIG    1        3.844  -0.427  -0.038  0.00  0.00    +0.055 C 
ATOM     10  C   LIG    1        4.666   0.872  -0.039  0.00  0.00    +0.106 C 
ATOM     11  C   LIG    1        1.228  -0.676  -0.014  0.00  0.00    +0.018 A 
ATOM     12  N   LIG    1        3.677   1.953  -0.024  0.00  0.00    -0.343 N 
ATOM     13  H   LIG    1        3.890   2.899  -0.021  0.00  0.00    +0.146 HD
ATOM     14  C   LIG    1        0.002  -0.004   0.002  0.00  0.00    +0.037 A 
ENDBRANCH   1  14
BRANCH   2  15
ATOM     15  C   LIG    1       -3.696  -0.866   0.035  0.00  0.00    +0.060 C 
ATOM     16  C   LIG    1       -4.060  -1.240   1.474  0.00  0.00    -0.056 C 
ATOM     17  N   LIG    1       -5.355  -0.657   1.832  0.00  0.00    +0.381 N 
ATOM     18  H   LIG    1       -5.573  -0.922   2.781  0.00  0.00    -0.082 HD
ATOM     19  C   LIG    1       -6.413  -1.179   0.963  0.00  0.00    -0.078 C 
ATOM     20  C   LIG    1       -6.128  -0.803  -0.493  0.00  0.00    -0.014 C 
ATOM     21  C   LIG    1       -5.301   0.804   1.758  0.00  0.00    -0.078 C 
ATOM     22  C   LIG    1       -4.980   1.246   0.323  0.00  0.00    -0.014 C 
ATOM     23  C   LIG    1       -4.820  -0.003  -0.553  0.00  0.00    +0.004 C 
ENDBRANCH   2  15
TORSDOF 2
