REMARK  Name = ZINC00037182
REMARK                            x       y       z     vdW  Elec       q    Type
REMARK                         _______ _______ _______ _____ _____    ______ ____
ROOT
ATOM      1  C   LIG    1       -1.509   4.251  -0.491  0.00  0.00    +0.279 C 
ATOM      2  N   LIG    1       -0.719   3.188  -0.742  0.00  0.00    -0.202 N 
ATOM      3  C   LIG    1        0.615   3.225  -1.019  0.00  0.00    +0.133 A 
ATOM      4  C   LIG    1        1.028   1.952  -1.208  0.00  0.00    +0.056 A 
ATOM      5 BR   LIG    1        2.790   1.405  -1.621  0.00  0.00    -0.047 Br
ATOM      6  C   LIG    1       -0.080   1.109  -1.042  0.00  0.00    +0.150 A 
ATOM      7  N   LIG    1       -1.124   1.847  -0.770  0.00  0.00    -0.171 NA
ATOM      8  O   LIG    1       -1.024   5.361  -0.408  0.00  0.00    -0.265 OA
ENDROOT
BRANCH   1  15
ATOM      9  C   LIG    1       -3.212   6.563  -0.137  0.00  0.00    +0.044 C 
ATOM     10  C   LIG    1       -3.796   5.173  -0.145  0.00  0.00    -0.038 A 
ATOM     11  C   LIG    1       -5.155   4.993   0.013  0.00  0.00    +0.004 A 
ATOM     12  C   LIG    1       -5.691   3.718   0.011  0.00  0.00    +0.000 A 
ATOM     13  C   LIG    1       -4.871   2.615  -0.153  0.00  0.00    +0.001 A 
ATOM     14  C   LIG    1       -3.512   2.781  -0.317  0.00  0.00    +0.013 A 
ATOM     15  C   LIG    1       -2.963   4.065  -0.317  0.00  0.00    +0.044 A 
ENDBRANCH   1  15
TORSDOF 1
