REMARK  Name = ZINC13761193
REMARK                            x       y       z     vdW  Elec       q    Type
REMARK                         _______ _______ _______ _____ _____    ______ ____
ROOT
ATOM      1  C   LIG    1       -2.562   3.863   0.046  0.00  0.00    +0.045 C 
ATOM      2  C   LIG    1       -1.242   3.135   0.030  0.00  0.00    -0.030 A 
ATOM      3  C   LIG    1       -0.062   3.851   0.022  0.00  0.00    +0.032 A 
ATOM      4  C   LIG    1        1.157   3.183   0.008  0.00  0.00    +0.066 A 
ATOM      5  C   LIG    1        1.182   1.787   0.000  0.00  0.00    +0.067 A 
ATOM      6  N   LIG    1        2.393   1.101  -0.015  0.00  0.00    -0.316 N 
ATOM      7  C   LIG    1        3.556   1.782  -0.022  0.00  0.00    +0.314 A 
ATOM      8  C   LIG    1        3.530   3.273  -0.014  0.00  0.00    +0.314 A 
ATOM      9  O   LIG    1        4.567   3.905  -0.020  0.00  0.00    -0.262 OA
ATOM     10  O   LIG    1        4.615   1.188  -0.036  0.00  0.00    -0.262 OA
ATOM     11  H   LIG    1        2.400   0.131  -0.021  0.00  0.00    +0.169 HD
ATOM     12  C   LIG    1       -0.013   1.076   0.008  0.00  0.00    +0.048 A 
ATOM     13  N   LIG    1        2.343   3.913   0.001  0.00  0.00    -0.316 N 
ATOM     14  H   LIG    1        2.315   4.882   0.007  0.00  0.00    +0.169 HD
ATOM     15  C   LIG    1       -1.218   1.750   0.017  0.00  0.00    +0.046 A 
ATOM     16 CL   LIG    1       -2.708   0.858   0.020  0.00  0.00    -0.083 Cl
ENDROOT
TORSDOF 0
