REMARK  Name = ZINC66112335
REMARK                            x       y       z     vdW  Elec       q    Type
REMARK                         _______ _______ _______ _____ _____    ______ ____
ROOT
ATOM      1  C   LIG    1       -0.018   1.503   0.010  0.00  0.00    +0.044 C 
ATOM      2  C   LIG    1        0.002  -0.004   0.002  0.00  0.00    -0.050 A 
ATOM      3  C   LIG    1        0.006  -0.689  -1.199  0.00  0.00    +0.006 A 
ATOM      4  C   LIG    1        0.025  -2.071  -1.206  0.00  0.00    -0.050 A 
ATOM      5  C   LIG    1        0.027  -2.817  -2.516  0.00  0.00    +0.044 C 
ATOM      6  C   LIG    1        0.040  -2.768  -0.013  0.00  0.00    +0.008 A 
ATOM      7  C   LIG    1        0.037  -2.084   1.188  0.00  0.00    -0.027 A 
ATOM      8  C   LIG    1        0.023  -0.702   1.195  0.00  0.00    +0.008 A 
ENDROOT
BRANCH   7   9
ATOM      9  C   LIG    1        0.054  -2.844   2.489  0.00  0.00    +0.157 C 
BRANCH   9  10
ATOM     10  N   LIG    1        1.440  -3.073   2.903  0.00  0.00    -0.334 N 
ATOM     11  C   LIG    1        2.220  -4.148   2.572  0.00  0.00    +0.105 A 
ATOM     12  C   LIG    1        3.417  -3.957   3.160  0.00  0.00    +0.101 A 
ATOM     13  N   LIG    1        3.368  -2.797   3.832  0.00  0.00    -0.352 N 
ATOM     14  H   LIG    1        4.096  -2.417   4.348  0.00  0.00    +0.166 HD
ATOM     15  C   LIG    1        2.189  -2.260   3.679  0.00  0.00    +0.174 A 
ENDBRANCH   9  10
ENDBRANCH   7   9
TORSDOF 2
