REMARK  Name = ZINC36295151
REMARK                            x       y       z     vdW  Elec       q    Type
REMARK                         _______ _______ _______ _____ _____    ______ ____
ROOT
ATOM      1  C   LIG    1        0.148  -4.284  -2.385  0.00  0.00    -0.018 A 
ATOM      2  C   LIG    1        0.855  -4.919  -3.417  0.00  0.00    +0.044 A 
ATOM      3  C   LIG    1        0.976  -6.290  -3.424  0.00  0.00    +0.167 A 
ATOM      4  C   LIG    1        0.399  -7.048  -2.412  0.00  0.00    +0.189 A 
ATOM      5  C   LIG    1       -0.307  -6.424  -1.382  0.00  0.00    +0.161 A 
ATOM      6  C   LIG    1       -0.428  -5.050  -1.362  0.00  0.00    +0.057 A 
ENDROOT
BRANCH   1   8
ATOM      7  C   LIG    1        0.016  -2.143  -1.177  0.00  0.00    +0.114 C 
ATOM      8  C   LIG    1        0.018  -2.825  -2.374  0.00  0.00    +0.032 C 
BRANCH   7  11
ATOM      9  C   LIG    1       -0.579   1.399   0.045  0.00  0.00    +0.132 C 
ATOM     10  N   LIG    1       -0.283  -0.035   0.020  0.00  0.00    -0.303 N 
ATOM     11  C   LIG    1       -0.281  -0.702  -1.151  0.00  0.00    +0.256 C 
ATOM     12  O   LIG    1       -0.525  -0.113  -2.187  0.00  0.00    -0.269 OA
ATOM     13  C   LIG    1        0.011  -0.745   1.267  0.00  0.00    +0.132 C 
ENDBRANCH   7  11
BRANCH   7  14
ATOM     14  C   LIG    1        0.304  -2.836   0.043  0.00  0.00    +0.104 C 
ATOM     15  N   LIG    1        0.531  -3.386   1.010  0.00  0.00    -0.191 NA
ENDBRANCH   7  14
ENDBRANCH   1   8
BRANCH   3  16
ATOM     16  N   LIG    1        1.722  -6.959  -4.513  0.00  0.00    +0.010 N 
ATOM     17  O   LIG    1        2.225  -6.301  -5.394  0.00  0.00    -0.130 OA
BRANCH  16  18
ATOM     18  O   LIG    1        1.829  -8.163  -4.521  0.00  0.00    -0.396 OA
ATOM     19  H   LIG    1        1.440  -8.673  -3.838  0.00  0.00    +0.329 HD
ENDBRANCH  16  18
ENDBRANCH   3  16
BRANCH   4  20
ATOM     20  O   LIG    1        0.522  -8.400  -2.426  0.00  0.00    -0.502 OA
ATOM     21  H   LIG    1        1.302  -8.729  -1.958  0.00  0.00    +0.292 HD
ENDBRANCH   4  20
BRANCH   5  22
ATOM     22  O   LIG    1       -0.870  -7.171  -0.395  0.00  0.00    -0.503 OA
ATOM     23  H   LIG    1       -0.289  -7.324   0.362  0.00  0.00    +0.292 HD
ENDBRANCH   5  22
TORSDOF 7
