REMARK  Name = ZINC38190873
REMARK                            x       y       z     vdW  Elec       q    Type
REMARK                         _______ _______ _______ _____ _____    ______ ____
ROOT
ATOM      1  N   LIG    1        5.576  -5.421  -4.874  0.00  0.00    -0.287 N 
ATOM      2  H   LIG    1        6.024  -5.616  -4.036  0.00  0.00    +0.155 HD
ATOM      3  C   LIG    1        6.285  -5.359  -6.018  0.00  0.00    +0.203 C 
ATOM      4  O   LIG    1        5.742  -5.022  -7.050  0.00  0.00    -0.277 OA
ENDROOT
BRANCH   1   9
ATOM      5  C   LIG    1        2.203  -4.388  -3.836  0.00  0.00    -0.046 A 
ATOM      6  C   LIG    1        1.460  -4.782  -4.934  0.00  0.00    +0.004 A 
ATOM      7  C   LIG    1        2.079  -5.387  -6.011  0.00  0.00    +0.002 A 
ATOM      8  C   LIG    1        3.444  -5.601  -5.994  0.00  0.00    +0.023 A 
ATOM      9  C   LIG    1        4.193  -5.206  -4.894  0.00  0.00    +0.034 A 
ATOM     10  C   LIG    1        3.568  -4.593  -3.816  0.00  0.00    +0.027 A 
BRANCH   5  11
ATOM     11  C   LIG    1        1.524  -3.727  -2.665  0.00  0.00    +0.035 C 
BRANCH  11  12
ATOM     12  C   LIG    1        1.498  -2.212  -2.877  0.00  0.00    +0.005 C 
BRANCH  12  13
ATOM     13  C   LIG    1        0.808  -1.542  -1.688  0.00  0.00    +0.000 C 
BRANCH  13  14
ATOM     14  C   LIG    1        0.781  -0.027  -1.901  0.00  0.00    -0.000 C 
BRANCH  14  16
ATOM     15  C   LIG    1        0.065   2.158  -0.924  0.00  0.00    +0.004 C 
ATOM     16  C   LIG    1        0.092   0.643  -0.711  0.00  0.00    -0.003 C 
ENDBRANCH  14  16
ENDBRANCH  13  14
ENDBRANCH  12  13
ENDBRANCH  11  12
ENDBRANCH   5  11
ENDBRANCH   1   9
BRANCH   3  17
ATOM     17  C   LIG    1        7.751  -5.706  -6.017  0.00  0.00    +0.014 C 
BRANCH  17  18
ATOM     18  N   LIG    1        8.394  -5.123  -7.202  0.00  0.00    +0.386 N 
ATOM     19  H   LIG    1        9.375  -5.356  -7.201  0.00  0.00    -0.089 HD
ATOM     20  H   LIG    1        8.286  -4.120  -7.184  0.00  0.00    -0.089 HD
ATOM     21  H   LIG    1        7.961  -5.493  -8.036  0.00  0.00    -0.089 HD
ENDBRANCH  17  18
BRANCH  17  22
ATOM     22  C   LIG    1        7.914  -7.227  -6.044  0.00  0.00    +0.005 C 
BRANCH  22  23
ATOM     23  C   LIG    1        9.397  -7.583  -5.917  0.00  0.00    +0.126 C 
BRANCH  23  24
ATOM     24  P   LIG    1        9.591  -9.396  -5.950  0.00  0.00    +0.328 P 
ATOM     25  O   LIG    1        8.697 -10.037  -4.835  0.00  0.00    -0.259 OA
BRANCH  24  26
ATOM     26  O   LIG    1       11.092  -9.765  -5.692  0.00  0.00    -0.324 OA
ATOM     27  H   LIG    1       11.364  -9.426  -4.825  0.00  0.00    +0.220 HD
ENDBRANCH  24  26
BRANCH  24  28
ATOM     28  O   LIG    1        9.152  -9.943  -7.351  0.00  0.00    -0.324 OA
ATOM     29  H   LIG    1        8.223  -9.715  -7.510  0.00  0.00    +0.220 HD
ENDBRANCH  24  28
ENDBRANCH  23  24
ENDBRANCH  22  23
ENDBRANCH  17  22
ENDBRANCH   3  17
TORSDOF 13
