REMARK  Name = ZINC21148053
REMARK                            x       y       z     vdW  Elec       q    Type
REMARK                         _______ _______ _______ _____ _____    ______ ____
ROOT
ATOM      1  C   LIG    1       -0.756   2.627   4.727  0.00  0.00    +0.068 C 
ATOM      2  C   LIG    1       -0.999   2.233   3.293  0.00  0.00    +0.069 A 
ATOM      3  C   LIG    1       -2.249   2.233   2.631  0.00  0.00    +0.043 A 
ATOM      4  C   LIG    1       -3.564   2.567   3.050  0.00  0.00    -0.027 A 
ATOM      5  C   LIG    1       -4.579   2.470   2.162  0.00  0.00    +0.021 A 
ATOM      6  C   LIG    1       -6.002   2.817   2.512  0.00  0.00    +0.041 C 
ATOM      7  C   LIG    1       -6.196   2.838   4.027  0.00  0.00    +0.005 C 
ATOM      8  C   LIG    1       -5.102   3.721   4.639  0.00  0.00    +0.005 C 
ATOM      9  C   LIG    1       -4.315   2.028   0.845  0.00  0.00    +0.254 A 
ATOM     10  N   LIG    1       -3.071   1.707   0.451  0.00  0.00    -0.307 N 
ATOM     11  H   LIG    1       -2.893   1.359  -0.577  0.00  0.00    +0.170 HD
ATOM     12  O   LIG    1       -5.235   1.937   0.050  0.00  0.00    -0.268 OA
ATOM     13  C   LIG    1       -3.762   3.006   4.476  0.00  0.00    +0.036 C 
ATOM     14  C   LIG    1       -2.021   1.808   1.323  0.00  0.00    +0.139 A 
ATOM     15  N   LIG    1       -0.698   1.558   1.213  0.00  0.00    -0.251 N 
ATOM     16  C   LIG    1       -0.013   1.086   0.008  0.00  0.00    +0.174 C 
ATOM     17  N   LIG    1       -0.093   1.833   2.445  0.00  0.00    -0.174 NA
ENDROOT
TORSDOF 0
