REMARK  Name = ZINC26671979
REMARK                            x       y       z     vdW  Elec       q    Type
REMARK                         _______ _______ _______ _____ _____    ______ ____
ROOT
ATOM      1  N   LIG    1        1.442  -4.759  -0.038  0.00  0.00    -0.078 NA
ATOM      2  C   LIG    1        1.913  -5.419   0.980  0.00  0.00    +0.321 C 
ATOM      3  N   LIG    1        1.210  -5.754   2.121  0.00  0.00    -0.163 N 
ATOM      4  H   LIG    1        0.282  -5.531   2.289  0.00  0.00    +0.302 HD
ATOM      5  C   LIG    1        2.030  -6.452   2.985  0.00  0.00    +0.321 C 
ATOM      6  C   LIG    1        3.364  -6.581   2.361  0.00  0.00    +0.080 A 
ATOM      7  C   LIG    1        4.554  -7.172   2.763  0.00  0.00    +0.017 A 
ATOM      8  C   LIG    1        5.655  -7.138   1.927  0.00  0.00    +0.001 A 
ATOM      9  C   LIG    1        5.583  -6.507   0.698  0.00  0.00    +0.001 A 
ATOM     10  C   LIG    1        4.406  -5.910   0.285  0.00  0.00    +0.017 A 
ATOM     11  N   LIG    1        1.687  -6.918   4.151  0.00  0.00    -0.078 NA
ATOM     12  C   LIG    1        3.289  -5.943   1.109  0.00  0.00    +0.080 A 
ENDROOT
BRANCH   1  13
ATOM     13  C   LIG    1        0.052  -4.297  -0.032  0.00  0.00    +0.326 C 
BRANCH  13  18
ATOM     14  C   LIG    1       -0.061   1.481  -0.017  0.00  0.00    +0.044 C 
ATOM     15  C   LIG    1       -0.031  -0.026  -0.021  0.00  0.00    -0.050 A 
ATOM     16  C   LIG    1       -0.021  -0.714  -1.220  0.00  0.00    +0.004 A 
ATOM     17  C   LIG    1        0.006  -2.096  -1.224  0.00  0.00    +0.008 A 
ATOM     18  C   LIG    1        0.023  -2.790  -0.028  0.00  0.00    -0.002 A 
ATOM     19  C   LIG    1        0.014  -2.102   1.171  0.00  0.00    +0.008 A 
ATOM     20  C   LIG    1       -0.009  -0.720   1.174  0.00  0.00    +0.004 A 
ENDBRANCH  13  18
ENDBRANCH   1  13
BRANCH  11  21
ATOM     21  C   LIG    1        2.624  -7.745   4.915  0.00  0.00    +0.326 C 
BRANCH  21  22
ATOM     22  C   LIG    1        1.945  -8.255   6.160  0.00  0.00    -0.002 A 
ATOM     23  C   LIG    1        1.998  -7.516   7.327  0.00  0.00    +0.008 A 
ATOM     24  C   LIG    1        1.375  -7.984   8.469  0.00  0.00    +0.004 A 
ATOM     25  C   LIG    1        0.699  -9.190   8.444  0.00  0.00    -0.050 A 
ATOM     26  C   LIG    1        0.021  -9.700   9.689  0.00  0.00    +0.044 C 
ATOM     27  C   LIG    1        0.646  -9.928   7.276  0.00  0.00    +0.004 A 
ATOM     28  C   LIG    1        1.265  -9.458   6.133  0.00  0.00    +0.008 A 
ENDBRANCH  21  22
ENDBRANCH  11  21
TORSDOF 4
