REMARK  Name = ZINC19800332
REMARK                            x       y       z     vdW  Elec       q    Type
REMARK                         _______ _______ _______ _____ _____    ______ ____
ROOT
ATOM      1  C   LIG    1       -7.308   0.834   0.041  0.00  0.00    +0.182 C 
ENDROOT
BRANCH   1   6
ATOM      2  N   LIG    1      -10.883   2.863   1.015  0.00  0.00    +0.384 N 
ATOM      3  H   LIG    1      -11.037   2.147   1.836  0.00  0.00    -0.081 HD
ATOM      4  C   LIG    1      -10.842   2.107  -0.245  0.00  0.00    -0.063 C 
ATOM      5  C   LIG    1       -9.707   1.082  -0.184  0.00  0.00    +0.066 C 
ATOM      6  N   LIG    1       -8.434   1.778   0.052  0.00  0.00    -0.298 NA
ATOM      7  C   LIG    1       -8.476   2.534   1.311  0.00  0.00    +0.066 C 
ATOM      8  C   LIG    1       -9.610   3.559   1.251  0.00  0.00    -0.063 C 
BRANCH   2   9
ATOM      9  C   LIG    1      -12.009   3.807   1.025  0.00  0.00    -0.043 C 
BRANCH   9  13
ATOM     10  C   LIG    1      -11.644   6.421   4.384  0.00  0.00    +0.000 A 
ATOM     11  C   LIG    1      -11.067   6.764   3.176  0.00  0.00    +0.000 A 
ATOM     12  C   LIG    1      -11.185   5.918   2.089  0.00  0.00    +0.002 A 
ATOM     13  C   LIG    1      -11.880   4.729   2.210  0.00  0.00    -0.064 A 
ATOM     14  C   LIG    1      -12.462   4.389   3.417  0.00  0.00    +0.002 A 
ATOM     15  C   LIG    1      -12.340   5.232   4.505  0.00  0.00    +0.000 A 
ENDBRANCH   9  13
ENDBRANCH   2   9
ENDBRANCH   1   6
BRANCH   1  16
ATOM     16  C   LIG    1       -6.011   1.599   0.039  0.00  0.00    +0.246 C 
ATOM     17  N   LIG    1       -4.837   0.936   0.030  0.00  0.00    -0.206 N 
ATOM     18  H   LIG    1       -4.827  -0.163   0.024  0.00  0.00    +0.177 HD
ATOM     19  O   LIG    1       -6.022   2.812   0.046  0.00  0.00    -0.273 OA
BRANCH  17  20
ATOM     20  N   LIG    1       -3.630   1.648   0.028  0.00  0.00    -0.188 NA
ATOM     21  C   LIG    1       -2.500   1.010   0.019  0.00  0.00    +0.142 C 
BRANCH  21  22
ATOM     22  C   LIG    1       -1.231   1.759   0.017  0.00  0.00    +0.036 A 
ATOM     23  C   LIG    1       -0.013   1.076   0.008  0.00  0.00    +0.013 A 
ATOM     24  C   LIG    1        1.171   1.783   0.000  0.00  0.00    +0.001 A 
ATOM     25  C   LIG    1        1.158   3.167   0.007  0.00  0.00    +0.004 A 
ATOM     26  C   LIG    1       -0.041   3.854   0.023  0.00  0.00    +0.046 A 
ATOM     27  C   LIG    1       -1.240   3.160   0.030  0.00  0.00    +0.125 A 
BRANCH  27  28
ATOM     28  O   LIG    1       -2.418   3.835   0.045  0.00  0.00    -0.506 OA
ATOM     29  H   LIG    1       -2.422   4.935   0.055  0.00  0.00    +0.292 HD
ENDBRANCH  27  28
ENDBRANCH  21  22
ENDBRANCH  17  20
ENDBRANCH   1  16
TORSDOF 7
