REMARK  Name = ZINC34031219
REMARK                            x       y       z     vdW  Elec       q    Type
REMARK                         _______ _______ _______ _____ _____    ______ ____
ROOT
ATOM      1  C   LIG    1       -0.876   3.478  -1.212  0.00  0.00    +0.004 C 
ATOM      2  C   LIG    1       -0.823   1.948  -1.224  0.00  0.00    +0.002 C 
ATOM      3  C   LIG    1       -0.065   1.460   0.011  0.00  0.00    -0.025 C 
ATOM      4  C   LIG    1       -0.009  -0.068   0.021  0.00  0.00    -0.078 C 
ATOM      5  N   LIG    1        0.735  -0.519   1.206  0.00  0.00    +0.388 N 
ATOM      6  H1  LIG    1        0.753  -1.619   1.231  0.00  0.00    -0.085 HD
ATOM      7  H2  LIG    1        0.242  -0.140   2.114  0.00  0.00    -0.085 HD
ATOM      8  CA  LIG    1        2.119  -0.030   1.188  0.00  0.00    +0.039 C 
ATOM      9  C   LIG    1        2.126   1.501   1.202  0.00  0.00    -0.001 C 
ATOM     10  C   LIG    1        1.362   2.016  -0.020  0.00  0.00    -0.010 C 
ATOM     11  C   LIG    1        1.309   3.544   0.004  0.00  0.00    +0.007 C 
ATOM     12  C   LIG    1        0.545   4.042  -1.226  0.00  0.00    -0.010 C 
ENDROOT
BRANCH   8  13
ATOM     13  C   LIG    1        2.808  -0.523  -0.058  0.00  0.00    +0.291 C 
ATOM     14  O   LIG    1        2.227  -1.262  -0.818  0.00  0.00    -0.253 OA
BRANCH  13  15
ATOM     15  OXT LIG    1        4.068  -0.143  -0.324  0.00  0.00    -0.482 OA
ATOM     16  HXT LIG    1        4.518   0.430   0.266  0.00  0.00    +0.295 HD
ENDBRANCH  13  15
ENDBRANCH   8  13
BRANCH  12  17
ATOM     17  C   LIG    1        0.486   5.571  -1.204  0.00  0.00    +0.011 C 
BRANCH  17  18
ATOM     18  C   LIG    1       -0.167   6.074  -2.493  0.00  0.00    +0.078 C 
BRANCH  18  19
ATOM     19  C   LIG    1       -0.225   7.580  -2.472  0.00  0.00    +0.149 A 
ATOM     20  N   LIG    1       -1.219   8.329  -1.996  0.00  0.00    -0.114 NA
ATOM     21  N   LIG    1       -0.883   9.564  -2.160  0.00  0.00    -0.023 NA
ATOM     22  N   LIG    1        0.278   9.606  -2.717  0.00  0.00    -0.047 NA
ATOM     23  N   LIG    1        0.693   8.402  -2.918  0.00  0.00    -0.243 N 
ATOM     24  H   LIG    1        1.548   8.146  -3.333  0.00  0.00    +0.192 HD
ENDBRANCH  18  19
ENDBRANCH  17  18
ENDBRANCH  12  17
TORSDOF 5
