REMARK  Name = ZINC13779537
REMARK                            x       y       z     vdW  Elec       q    Type
REMARK                         _______ _______ _______ _____ _____    ______ ____
ROOT
ATOM      1  C   LIG    1       -2.485   0.825   0.992  0.00  0.00    -0.011 C 
ATOM      2  C   LIG    1       -3.279   1.764   0.082  0.00  0.00    +0.004 C 
ATOM      3  C   LIG    1       -4.741   1.315   0.036  0.00  0.00    +0.006 C 
ATOM      4  C   LIG    1       -5.331   1.353   1.448  0.00  0.00    -0.035 C 
ATOM      5  C   LIG    1       -4.537   0.414   2.357  0.00  0.00    +0.006 C 
ATOM      6  C   LIG    1       -3.075   0.863   2.403  0.00  0.00    +0.004 C 
ENDROOT
BRANCH   1   8
ATOM      7  C   LIG    1       -0.398   1.117  -0.350  0.00  0.00    +0.004 C 
ATOM      8  C   LIG    1       -1.024   1.274   1.038  0.00  0.00    -0.000 C 
ENDBRANCH   1   8
BRANCH   4   9
ATOM      9  C   LIG    1       -6.793   0.904   1.402  0.00  0.00    -0.079 C 
BRANCH   9  10
ATOM     10  N   LIG    1       -6.845  -0.522   1.034  0.00  0.00    +0.378 N 
ATOM     11  H   LIG    1       -6.328  -1.069   1.732  0.00  0.00    -0.090 HD
ATOM     12  H   LIG    1       -6.419  -0.663   0.120  0.00  0.00    -0.090 HD
ATOM     13  H   LIG    1       -7.812  -0.841   1.011  0.00  0.00    -0.090 HD
ENDBRANCH   9  10
ENDBRANCH   4   9
BRANCH   4  14
ATOM     14  C   LIG    1       -5.252   2.780   1.995  0.00  0.00    +0.125 C 
BRANCH  14  15
ATOM     15  C   LIG    1       -6.075   3.697   1.127  0.00  0.00    +0.305 C 
ATOM     16  O   LIG    1       -6.596   3.272   0.123  0.00  0.00    -0.251 OA
BRANCH  15  17
ATOM     17  O   LIG    1       -6.229   4.986   1.468  0.00  0.00    -0.481 OA
ATOM     18  H   LIG    1       -5.825   5.315   2.247  0.00  0.00    +0.295 HD
ENDBRANCH  15  17
ENDBRANCH  14  15
ENDBRANCH   4  14
TORSDOF 6
