REMARK  Name = ZINC72108665
REMARK                            x       y       z     vdW  Elec       q    Type
REMARK                         _______ _______ _______ _____ _____    ______ ____
ROOT
ATOM      1  C   LIG    1       -0.017   1.385   0.010  0.00  0.00    +0.039 A 
ATOM      2  C   LIG    1        1.163   2.096   0.002  0.00  0.00    +0.013 A 
ATOM      3  C   LIG    1        2.378   1.416  -0.013  0.00  0.00    +0.007 A 
ATOM      4  C   LIG    1        2.401   0.012  -0.021  0.00  0.00    +0.050 A 
ATOM      5  N   LIG    1        3.722  -0.382  -0.036  0.00  0.00    -0.360 N 
ATOM      6  C   LIG    1        4.540   0.707  -0.037  0.00  0.00    +0.091 A 
ATOM      7  H   LIG    1        4.026  -1.303  -0.044  0.00  0.00    +0.165 HD
ATOM      8  C   LIG    1        1.199  -0.690  -0.013  0.00  0.00    +0.064 A 
ATOM      9  C   LIG    1        3.790   1.844  -0.024  0.00  0.00    +0.000 A 
ATOM     10  C   LIG    1        0.002  -0.004   0.002  0.00  0.00    +0.125 A 
ATOM     11  F   LIG    1       -1.162  -0.690   0.009  0.00  0.00    -0.205 F 
ENDROOT
BRANCH   9  12
ATOM     12  C   LIG    1        4.289   3.225  -0.022  0.00  0.00    +0.013 C 
ATOM     13  C   LIG    1        5.616   3.463  -0.033  0.00  0.00    +0.050 C 
BRANCH  13  14
ATOM     14  C   LIG    1        6.114   4.842  -0.031  0.00  0.00    +0.172 A 
ATOM     15  N   LIG    1        5.379   5.960  -0.013  0.00  0.00    -0.239 N 
ATOM     16  H   LIG    1        4.396   6.011   0.002  0.00  0.00    +0.192 HD
ATOM     17  N   LIG    1        6.195   6.959  -0.018  0.00  0.00    -0.046 NA
ATOM     18  N   LIG    1        7.405   6.521  -0.038  0.00  0.00    -0.023 NA
ATOM     19  N   LIG    1        7.394   5.232  -0.041  0.00  0.00    -0.109 NA
ENDBRANCH  13  14
ENDBRANCH   9  12
TORSDOF 2
