REMARK  Name = ZINC13862904
REMARK                            x       y       z     vdW  Elec       q    Type
REMARK                         _______ _______ _______ _____ _____    ______ ____
ROOT
ATOM      1  C   LIG    1        3.519   3.376  -0.013  0.00  0.00    +0.023 A 
ATOM      2  C   LIG    1        3.570   1.992  -0.022  0.00  0.00    +0.025 A 
ATOM      3  C   LIG    1        2.354   1.288  -0.013  0.00  0.00    +0.038 A 
ATOM      4  C   LIG    1        2.309  -0.116  -0.021  0.00  0.00    +0.126 A 
ATOM      5  N   LIG    1        1.132  -0.708  -0.013  0.00  0.00    -0.222 NA
ATOM      6  C   LIG    1        0.002  -0.004   0.002  0.00  0.00    +0.214 A 
ATOM      7  N   LIG    1       -0.016   1.315   0.009  0.00  0.00    -0.195 NA
ATOM      8  C   LIG    1        1.130   2.008   0.002  0.00  0.00    +0.167 A 
ATOM      9  N   LIG    1        1.137   3.342   0.009  0.00  0.00    -0.212 NA
ATOM     10  C   LIG    1        2.265   4.025   0.002  0.00  0.00    +0.126 A 
ENDROOT
BRANCH   1  18
ATOM     11  C   LIG    1        4.746   4.140   2.493  0.00  0.00    +0.044 C 
ATOM     12  C   LIG    1        5.370   4.543   1.182  0.00  0.00    -0.042 A 
ATOM     13  C   LIG    1        6.539   5.277   1.169  0.00  0.00    +0.004 A 
ATOM     14  C   LIG    1        7.110   5.652  -0.034  0.00  0.00    +0.001 A 
ATOM     15  C   LIG    1        6.517   5.290  -1.230  0.00  0.00    +0.004 A 
ATOM     16  C   LIG    1        5.351   4.551  -1.229  0.00  0.00    -0.042 A 
ATOM     17  C   LIG    1        4.707   4.157  -2.533  0.00  0.00    +0.044 C 
ATOM     18  C   LIG    1        4.771   4.170  -0.020  0.00  0.00    -0.009 A 
ENDBRANCH   1  18
BRANCH   6  19
ATOM     19  N   LIG    1       -1.202  -0.683   0.009  0.00  0.00    -0.327 N 
ATOM     20  H   LIG    1       -1.213  -1.783   0.003  0.00  0.00    +0.145 HD
ATOM     21  H   LIG    1       -2.148  -0.123   0.021  0.00  0.00    +0.145 HD
ENDBRANCH   6  19
BRANCH  10  22
ATOM     22  N   LIG    1        2.219   5.406   0.010  0.00  0.00    -0.343 N 
ATOM     23  H   LIG    1        3.152   5.988   0.005  0.00  0.00    +0.144 HD
ATOM     24  H   LIG    1        1.248   5.924   0.021  0.00  0.00    +0.144 HD
ENDBRANCH  10  22
TORSDOF 3
