REMARK  Name = ZINC28523294
REMARK                            x       y       z     vdW  Elec       q    Type
REMARK                         _______ _______ _______ _____ _____    ______ ____
ROOT
ATOM      1  CA  LIG    1        2.829   8.369   0.181  0.00  0.00    +0.122 C 
ATOM      2  C   LIG    1        1.480   8.560   0.171  0.00  0.00    +0.076 C 
ENDROOT
BRANCH   2   3
ATOM      3  C   LIG    1        0.611   7.450   0.079  0.00  0.00    +0.131 A 
ATOM      4  C   LIG    1       -0.766   7.504  -0.041  0.00  0.00    +0.050 A 
ATOM      5  C   LIG    1       -1.217   6.182  -0.098  0.00  0.00    +0.050 A 
ATOM      6  C   LIG    1       -0.117   5.377  -0.013  0.00  0.00    +0.136 A 
ATOM      7  O   LIG    1        0.978   6.151   0.100  0.00  0.00    -0.455 OA
BRANCH   6   8
ATOM      8  C   LIG    1       -0.128   3.901  -0.034  0.00  0.00    +0.018 A 
ATOM      9  C   LIG    1       -1.342   3.209  -0.042  0.00  0.00    +0.011 A 
ATOM     10  C   LIG    1       -1.344   1.830  -0.067  0.00  0.00    +0.001 A 
ATOM     11  C   LIG    1       -0.149   1.132  -0.072  0.00  0.00    +0.012 A 
ATOM     12  C   LIG    1        1.056   1.812  -0.063  0.00  0.00    +0.055 A 
ATOM     13  C   LIG    1        1.074   3.191  -0.044  0.00  0.00    +0.024 A 
BRANCH  12  14
ATOM     14  C   LIG    1        2.353   1.043  -0.075  0.00  0.00    +0.417 C 
ATOM     15  F   LIG    1        3.091   1.357   1.072  0.00  0.00    -0.166 F 
ATOM     16  F   LIG    1        3.090   1.388  -1.213  0.00  0.00    -0.166 F 
ATOM     17  F   LIG    1        2.081  -0.329  -0.093  0.00  0.00    -0.166 F 
ENDBRANCH  12  14
ENDBRANCH   6   8
ENDBRANCH   2   3
BRANCH   1  19
ATOM     18  C   LIG    1        4.124   6.527   0.950  0.00  0.00    +0.248 C 
ATOM     19  N   LIG    1        3.356   7.087  -0.006  0.00  0.00    -0.276 N 
ATOM     20  H   LIG    1        3.144   6.535  -0.934  0.00  0.00    +0.155 HD
ATOM     21  O   LIG    1        4.277   7.093   2.015  0.00  0.00    -0.270 OA
BRANCH  18  25
ATOM     22  C   LIG    1        6.006   2.786   0.241  0.00  0.00    +0.000 A 
ATOM     23  C   LIG    1        6.095   3.376   1.490  0.00  0.00    +0.001 A 
ATOM     24  C   LIG    1        5.486   4.591   1.726  0.00  0.00    +0.013 A 
ATOM     25  C   LIG    1        4.779   5.225   0.703  0.00  0.00    +0.037 A 
ATOM     26  C   LIG    1        4.689   4.621  -0.552  0.00  0.00    +0.013 A 
ATOM     27  C   LIG    1        5.307   3.409  -0.777  0.00  0.00    +0.001 A 
ENDBRANCH  18  25
ENDBRANCH   1  19
BRANCH   1  28
ATOM     28  C   LIG    1        3.727   9.505   0.389  0.00  0.00    +0.351 C 
ATOM     29  O   LIG    1        3.275  10.633   0.463  0.00  0.00    -0.244 OA
BRANCH  28  30
ATOM     30  OXT LIG    1        5.057   9.303   0.499  0.00  0.00    -0.476 OA
ATOM     31  HXT LIG    1        5.405   8.435   0.442  0.00  0.00    +0.295 HD
ENDBRANCH  28  30
ENDBRANCH   1  28
TORSDOF 7
