REMARK  Name = ZINC20898522
REMARK                            x       y       z     vdW  Elec       q    Type
REMARK                         _______ _______ _______ _____ _____    ______ ____
ROOT
ATOM      1  C   LIG    1       -1.094   4.284   0.309  0.00  0.00    +0.154 C 
ATOM      2  N   LIG    1       -1.866   3.041   0.385  0.00  0.00    -0.294 N 
ATOM      3  C   LIG    1       -1.309   1.811   0.004  0.00  0.00    +0.082 A 
ATOM      4  C   LIG    1       -2.142   0.586   0.105  0.00  0.00    +0.089 A 
ATOM      5  C   LIG    1       -3.519   0.696   0.596  0.00  0.00    +0.266 A 
ATOM      6  N   LIG    1       -3.922   1.950   0.927  0.00  0.00    -0.263 N 
ATOM      7  C   LIG    1       -5.288   2.127   1.424  0.00  0.00    +0.157 C 
ATOM      8  O   LIG    1       -4.252  -0.271   0.700  0.00  0.00    -0.267 OA
ATOM      9  C   LIG    1       -1.358  -0.457  -0.323  0.00  0.00    +0.069 A 
ATOM     10  N   LIG    1       -0.141   0.054  -0.653  0.00  0.00    -0.306 N 
ATOM     11  C   LIG    1        0.996  -0.627  -1.112  0.00  0.00    +0.068 A 
ATOM     12  C   LIG    1        0.941  -1.951  -1.500  0.00  0.00    +0.028 A 
ATOM     13  C   LIG    1        2.085  -2.580  -1.961  0.00  0.00    +0.002 A 
ATOM     14  C   LIG    1        3.279  -1.887  -2.028  0.00  0.00    +0.002 A 
ATOM     15  C   LIG    1        3.345  -0.566  -1.624  0.00  0.00    +0.025 A 
ATOM     16  C   LIG    1        2.208   0.070  -1.152  0.00  0.00    +0.052 A 
ATOM     17  N   LIG    1        2.272   1.389  -0.690  0.00  0.00    -0.330 N 
ATOM     18  H   LIG    1        3.208   1.773  -0.257  0.00  0.00    +0.147 HD
ATOM     19  C   LIG    1        1.092   2.263  -0.784  0.00  0.00    +0.150 C 
ATOM     20  C   LIG    1       -0.129   1.429  -0.463  0.00  0.00    +0.073 A 
ATOM     21  C   LIG    1       -3.143   3.031   0.826  0.00  0.00    +0.332 A 
ATOM     22  O   LIG    1       -3.626   4.097   1.157  0.00  0.00    -0.246 OA
ENDROOT
BRANCH   9  23
ATOM     23  C   LIG    1       -1.761  -1.874  -0.408  0.00  0.00    -0.000 A 
ATOM     24  C   LIG    1       -2.859  -2.245  -1.187  0.00  0.00    +0.010 A 
ATOM     25  C   LIG    1       -3.227  -3.572  -1.267  0.00  0.00    +0.001 A 
ATOM     26  C   LIG    1       -2.518  -4.533  -0.568  0.00  0.00    +0.000 A 
ATOM     27  C   LIG    1       -1.433  -4.172   0.211  0.00  0.00    +0.001 A 
ATOM     28  C   LIG    1       -1.050  -2.849   0.296  0.00  0.00    +0.010 A 
ENDBRANCH   9  23
BRANCH  19  29
ATOM     29  C   LIG    1        0.978   2.818  -2.180  0.00  0.00    -0.021 A 
ATOM     30  C   LIG    1        1.290   2.023  -3.267  0.00  0.00    +0.009 A 
ATOM     31  C   LIG    1        1.180   2.528  -4.548  0.00  0.00    +0.046 A 
ATOM     32  C   LIG    1        0.769   3.838  -4.743  0.00  0.00    +0.117 A 
ATOM     33  C   LIG    1        0.463   4.636  -3.651  0.00  0.00    +0.046 A 
ATOM     34  C   LIG    1        0.568   4.125  -2.372  0.00  0.00    +0.009 A 
BRANCH  32  35
ATOM     35  O   LIG    1        0.667   4.339  -6.002  0.00  0.00    -0.507 OA
ATOM     36  H   LIG    1        0.341   5.379  -6.156  0.00  0.00    +0.292 HD
ENDBRANCH  32  35
ENDBRANCH  19  29
TORSDOF 3
