REMARK  Name = ZINC20330769
REMARK                            x       y       z     vdW  Elec       q    Type
REMARK                         _______ _______ _______ _____ _____    ______ ____
ROOT
ATOM      1  C   LIG    1        4.161   2.280   1.417  0.00  0.00    +0.271 C 
ENDROOT
BRANCH   1   2
ATOM      2  P   LIG    1        2.935   3.306   2.293  0.00  0.00    +0.371 P 
ATOM      3  O   LIG    1        2.792   4.666   1.573  0.00  0.00    -0.255 OA
BRANCH   2   4
ATOM      4  O   LIG    1        3.424   3.550   3.808  0.00  0.00    -0.322 OA
ATOM      5  H   LIG    1        2.818   4.090   4.334  0.00  0.00    +0.220 HD
ENDBRANCH   2   4
BRANCH   2   6
ATOM      6  O   LIG    1        1.570   2.582   2.303  0.00  0.00    -0.322 OA
ATOM      7  H   LIG    1        1.276   2.435   1.390  0.00  0.00    +0.220 HD
ENDBRANCH   2   6
ENDBRANCH   1   2
BRANCH   1   8
ATOM      8  P   LIG    1        5.771   3.135   1.405  0.00  0.00    +0.371 P 
ATOM      9  O   LIG    1        5.602   4.545   0.798  0.00  0.00    -0.255 OA
BRANCH   8  10
ATOM     10  O   LIG    1        6.777   2.326   0.556  0.00  0.00    -0.322 OA
ATOM     11  H   LIG    1        6.445   2.250  -0.353  0.00  0.00    +0.220 HD
ENDBRANCH   8  10
BRANCH   8  12
ATOM     12  O   LIG    1        6.322   3.262   2.913  0.00  0.00    -0.322 OA
ATOM     13  H   LIG    1        7.178   3.707   2.983  0.00  0.00    +0.220 HD
ENDBRANCH   8  12
ENDBRANCH   1   8
BRANCH   1  14
ATOM     14  O   LIG    1        4.293   1.023   2.083  0.00  0.00    -0.367 OA
ATOM     15  H   LIG    1        4.931   0.425   1.670  0.00  0.00    +0.212 HD
ENDBRANCH   1  14
BRANCH   1  16
ATOM     16  C   LIG    1        3.696   2.049  -0.023  0.00  0.00    +0.097 C 
BRANCH  16  19
ATOM     17  C   LIG    1       -0.017   1.378   0.010  0.00  0.00    +0.020 A 
ATOM     18  C   LIG    1        1.185   2.070   0.002  0.00  0.00    +0.007 A 
ATOM     19  C   LIG    1        2.365   1.343  -0.013  0.00  0.00    -0.025 A 
ATOM     20  C   LIG    1        2.305  -0.038  -0.020  0.00  0.00    +0.114 A 
ATOM     21  N   LIG    1        1.144  -0.663  -0.013  0.00  0.00    -0.263 NA
ATOM     22  C   LIG    1        0.002  -0.004   0.002  0.00  0.00    +0.111 A 
ENDBRANCH  16  19
ENDBRANCH   1  16
TORSDOF 9
