REMARK  Name = ZINC20025323
REMARK                            x       y       z     vdW  Elec       q    Type
REMARK                         _______ _______ _______ _____ _____    ______ ____
ROOT
ATOM      1  C   LIG    1        3.586   3.704   0.365  0.00  0.00    +0.229 C 
ATOM      2  N   LIG    1        3.514   2.424   0.779  0.00  0.00    -0.285 N 
ATOM      3  H   LIG    1        4.408   1.785   0.749  0.00  0.00    +0.155 HD
ATOM      4  O   LIG    1        2.624   4.434   0.478  0.00  0.00    -0.274 OA
ENDROOT
BRANCH   2   5
ATOM      5  C   LIG    1        2.300   1.908   1.248  0.00  0.00    +0.034 A 
ATOM      6  C   LIG    1        2.295   0.860   2.159  0.00  0.00    +0.035 A 
ATOM      7  C   LIG    1        1.095   0.354   2.620  0.00  0.00    +0.057 A 
ATOM      8  C   LIG    1       -0.099   0.889   2.175  0.00  0.00    +0.024 A 
ATOM      9  C   LIG    1       -0.098   1.932   1.266  0.00  0.00    +0.057 A 
ATOM     10  C   LIG    1        1.098   2.443   0.802  0.00  0.00    +0.035 A 
BRANCH   7  11
ATOM     11  C   LIG    1        1.089  -0.778   3.614  0.00  0.00    +0.417 C 
ATOM     12  F   LIG    1       -0.045  -0.679   4.427  0.00  0.00    -0.166 F 
ATOM     13  F   LIG    1        2.239  -0.709   4.407  0.00  0.00    -0.166 F 
ATOM     14  F   LIG    1        1.067  -1.999   2.930  0.00  0.00    -0.166 F 
ENDBRANCH   7  11
BRANCH   9  15
ATOM     15  C   LIG    1       -1.402   2.512   0.783  0.00  0.00    +0.417 C 
ATOM     16  F   LIG    1       -2.386   1.517   0.792  0.00  0.00    -0.166 F 
ATOM     17  F   LIG    1       -1.242   2.999  -0.518  0.00  0.00    -0.166 F 
ATOM     18  F   LIG    1       -1.789   3.557   1.629  0.00  0.00    -0.166 F 
ENDBRANCH   9  15
ENDBRANCH   2   5
BRANCH   1  19
ATOM     19  C   LIG    1        4.863   4.229  -0.240  0.00  0.00    +0.135 C 
BRANCH  19  23
ATOM     20  C   LIG    1        4.350   8.333  -1.308  0.00  0.00    +0.000 A 
ATOM     21  C   LIG    1        4.815   7.428  -2.244  0.00  0.00    +0.000 A 
ATOM     22  C   LIG    1        4.981   6.100  -1.898  0.00  0.00    +0.005 A 
ATOM     23  C   LIG    1        4.682   5.677  -0.617  0.00  0.00    -0.031 A 
ATOM     24  C   LIG    1        4.212   6.581   0.318  0.00  0.00    +0.005 A 
ATOM     25  C   LIG    1        4.051   7.910  -0.027  0.00  0.00    +0.000 A 
ENDBRANCH  19  23
BRANCH  19  26
ATOM     26  C   LIG    1        5.981   4.107   0.763  0.00  0.00    -0.031 A 
ATOM     27  C   LIG    1        5.833   4.637   2.031  0.00  0.00    +0.005 A 
ATOM     28  C   LIG    1        6.856   4.521   2.953  0.00  0.00    +0.000 A 
ATOM     29  C   LIG    1        8.032   3.884   2.604  0.00  0.00    +0.000 A 
ATOM     30  C   LIG    1        8.183   3.358   1.334  0.00  0.00    +0.000 A 
ATOM     31  C   LIG    1        7.157   3.470   0.414  0.00  0.00    +0.005 A 
ENDBRANCH  19  26
ENDBRANCH   1  19
TORSDOF 6
