REMARK  Name = ZINC34375693
REMARK                            x       y       z     vdW  Elec       q    Type
REMARK                         _______ _______ _______ _____ _____    ______ ____
ROOT
ATOM      1  N   LIG    1        0.027  -2.755  -2.442  0.00  0.00    -0.296 N 
ATOM      2  H   LIG    1        0.124  -3.720  -2.442  0.00  0.00    +0.151 HD
ATOM      3  C   LIG    1       -0.090  -2.088  -3.607  0.00  0.00    +0.300 C 
ATOM      4  N   LIG    1       -0.188  -2.770  -4.766  0.00  0.00    -0.301 N 
ATOM      5  H   LIG    1       -0.174  -3.740  -4.761  0.00  0.00    +0.150 HD
ATOM      6  O   LIG    1       -0.106  -0.873  -3.614  0.00  0.00    -0.253 OA
ENDROOT
BRANCH   1  10
ATOM      7  C   LIG    1       -1.281   1.194   0.173  0.00  0.00    +0.024 C 
ATOM      8  C   LIG    1       -0.607  -0.151   0.080  0.00  0.00    +0.053 C 
ATOM      9  C   LIG    1       -0.606  -0.822  -1.137  0.00  0.00    +0.041 C 
ATOM     10  C   LIG    1        0.010  -2.058  -1.238  0.00  0.00    +0.080 C 
ATOM     11  C   LIG    1        0.619  -2.591  -0.077  0.00  0.00    +0.026 C 
ATOM     12  C   LIG    1        1.263  -3.836  -0.098  0.00  0.00    +0.007 C 
ATOM     13  C   LIG    1        1.839  -4.316   1.040  0.00  0.00    +0.000 C 
ATOM     14  C   LIG    1        1.796  -3.584   2.224  0.00  0.00    +0.002 C 
ATOM     15  C   LIG    1        1.179  -2.372   2.278  0.00  0.00    +0.019 C 
ATOM     16  C   LIG    1        0.574  -1.845   1.124  0.00  0.00    +0.059 C 
ATOM     17  N   LIG    1       -0.034  -0.653   1.148  0.00  0.00    -0.310 NA
ATOM     18  H   LIG    1       -0.054  -0.149   1.976  0.00  0.00    +0.122 HD
ENDBRANCH   1  10
BRANCH   4  19
ATOM     19  C   LIG    1       -0.315  -2.045  -6.033  0.00  0.00    +0.087 C 
BRANCH  19  20
ATOM     20  C   LIG    1       -0.408  -3.047  -7.186  0.00  0.00    -0.060 C 
BRANCH  20  21
ATOM     21  N   LIG    1       -0.536  -2.321  -8.457  0.00  0.00    +0.381 N 
ATOM     22  H   LIG    1       -1.324  -1.693  -8.406  0.00  0.00    -0.082 HD
ATOM     23  C   LIG    1        0.688  -1.548  -8.701  0.00  0.00    -0.076 C 
ATOM     24  C   LIG    1        0.529  -0.726  -9.982  0.00  0.00    +0.016 C 
ATOM     25  C   LIG    1        0.276  -1.671 -11.160  0.00  0.00    +0.067 C 
ATOM     26  C   LIG    1       -0.960  -2.525 -10.861  0.00  0.00    +0.016 C 
ATOM     27  C   LIG    1       -0.745  -3.280  -9.548  0.00  0.00    -0.076 C 
BRANCH  25  28
ATOM     28  O   LIG    1        1.411  -2.520 -11.343  0.00  0.00    -0.388 OA
ATOM     29  H   LIG    1        1.320  -3.146 -12.075  0.00  0.00    +0.210 HD
ENDBRANCH  25  28
BRANCH  25  30
ATOM     30  C   LIG    1        0.037  -0.853 -12.431  0.00  0.00    +0.069 C 
BRANCH  30  31
ATOM     31  C   LIG    1       -0.332  -1.778 -13.562  0.00  0.00    -0.045 A 
ATOM     32  C   LIG    1        0.656  -2.316 -14.365  0.00  0.00    +0.004 A 
ATOM     33  C   LIG    1        0.318  -3.164 -15.403  0.00  0.00    +0.000 A 
ATOM     34  C   LIG    1       -1.009  -3.474 -15.637  0.00  0.00    +0.000 A 
ATOM     35  C   LIG    1       -1.996  -2.937 -14.833  0.00  0.00    +0.000 A 
ATOM     36  C   LIG    1       -1.658  -2.092 -13.793  0.00  0.00    +0.004 A 
ENDBRANCH  30  31
ENDBRANCH  25  30
ENDBRANCH  20  21
ENDBRANCH  19  20
ENDBRANCH   4  19
TORSDOF 7
