REMARK  Name = ZINC40899447
REMARK                            x       y       z     vdW  Elec       q    Type
REMARK                         _______ _______ _______ _____ _____    ______ ____
ROOT
ATOM      1  C   LIG    1        2.860  -1.502  -5.064  0.00  0.00    +0.250 C 
ATOM      2  N   LIG    1        2.171  -1.668  -6.211  0.00  0.00    -0.281 N 
ATOM      3  H   LIG    1        1.202  -1.627  -6.204  0.00  0.00    +0.155 HD
ATOM      4  O   LIG    1        4.069  -1.633  -5.057  0.00  0.00    -0.270 OA
ENDROOT
BRANCH   1   8
ATOM      5  C   LIG    1        0.809  -0.518  -1.477  0.00  0.00    +0.089 A 
ATOM      6  C   LIG    1        0.099  -0.688  -2.653  0.00  0.00    +0.028 A 
ATOM      7  C   LIG    1        0.759  -1.008  -3.821  0.00  0.00    +0.016 A 
ATOM      8  C   LIG    1        2.147  -1.159  -3.817  0.00  0.00    +0.055 A 
ATOM      9  C   LIG    1        2.858  -0.987  -2.627  0.00  0.00    +0.055 A 
ATOM     10 CL   LIG    1        4.584  -1.173  -2.609  0.00  0.00    -0.083 Cl
ATOM     11  C   LIG    1        2.184  -0.662  -1.465  0.00  0.00    +0.047 A 
BRANCH   5  13
ATOM     12  C   LIG    1       -0.087   1.703   0.039  0.00  0.00    +0.200 C 
ATOM     13  S   LIG    1       -0.043  -0.110   0.010  0.00  0.00    -0.006 S 
ATOM     14  O   LIG    1       -1.354  -0.629  -0.169  0.00  0.00    -0.170 OA
ATOM     15  O   LIG    1        0.793  -0.596   1.052  0.00  0.00    -0.170 OA
ENDBRANCH   5  13
ENDBRANCH   1   8
BRANCH   2  16
ATOM     16  C   LIG    1        2.853  -1.901  -7.410  0.00  0.00    +0.034 A 
ATOM     17  C   LIG    1        2.365  -1.375  -8.600  0.00  0.00    +0.025 A 
ATOM     18  C   LIG    1        3.036  -1.601  -9.787  0.00  0.00    +0.022 A 
ATOM     19  C   LIG    1        4.196  -2.353  -9.796  0.00  0.00    +0.050 A 
ATOM     20 CL   LIG    1        5.034  -2.636 -11.290  0.00  0.00    -0.083 Cl
ATOM     21  C   LIG    1        4.692  -2.885  -8.606  0.00  0.00    +0.020 A 
ATOM     22  C   LIG    1        4.019  -2.651  -7.410  0.00  0.00    +0.034 A 
BRANCH  21  23
ATOM     23  C   LIG    1        5.936  -3.692  -8.614  0.00  0.00    +0.072 A 
ATOM     24  C   LIG    1        5.959  -4.933  -7.980  0.00  0.00    +0.028 A 
ATOM     25  C   LIG    1        7.127  -5.675  -7.996  0.00  0.00    +0.004 A 
ATOM     26  C   LIG    1        8.236  -5.151  -8.647  0.00  0.00    +0.020 A 
ATOM     27  C   LIG    1        8.143  -3.914  -9.255  0.00  0.00    +0.111 A 
ATOM     28  N   LIG    1        7.017  -3.230  -9.230  0.00  0.00    -0.255 NA
ENDBRANCH  21  23
ENDBRANCH   2  16
TORSDOF 4
