REMARK  Name = ZINC29045635
REMARK                            x       y       z     vdW  Elec       q    Type
REMARK                         _______ _______ _______ _____ _____    ______ ____
ROOT
ATOM      1  N   LIG    1        1.653  -4.996   0.071  0.00  0.00    -0.174 NA
ATOM      2  C   LIG    1        2.333  -5.302  -1.195  0.00  0.00    +0.128 C 
ATOM      3  C   LIG    1        3.593  -4.433  -1.297  0.00  0.00    +0.123 C 
ATOM      4  N   LIG    1        4.347  -4.550  -0.041  0.00  0.00    -0.311 N 
ATOM      5  C   LIG    1        3.667  -4.244   1.225  0.00  0.00    +0.123 C 
ATOM      6  C   LIG    1        2.409  -5.107   1.327  0.00  0.00    +0.128 C 
ENDROOT
BRANCH   4   7
ATOM      7  C   LIG    1        5.681  -4.944  -0.051  0.00  0.00    +0.140 A 
ATOM      8  C   LIG    1        6.683  -3.983  -0.151  0.00  0.00    +0.081 A 
ATOM      9 CL   LIG    1        6.280  -2.299  -0.265  0.00  0.00    -0.080 Cl
ATOM     10  C   LIG    1        8.006  -4.390  -0.159  0.00  0.00    +0.025 A 
ATOM     11  C   LIG    1        8.282  -5.748  -0.066  0.00  0.00    +0.021 A 
ATOM     12  C   LIG    1        7.238  -6.645   0.031  0.00  0.00    +0.113 A 
ATOM     13  N   LIG    1        5.986  -6.229   0.041  0.00  0.00    -0.239 NA
ENDBRANCH   4   7
BRANCH   1  14
ATOM     14  S   LIG    1        0.065  -4.527   0.083  0.00  0.00    +0.061 S 
ATOM     15  O   LIG    1       -0.518  -5.037  -1.109  0.00  0.00    -0.153 OA
ATOM     16  O   LIG    1       -0.442  -4.840   1.373  0.00  0.00    -0.153 OA
BRANCH  14  21
ATOM     17  C   LIG    1       -0.026   1.487  -0.393  0.00  0.00    +0.044 C 
ATOM     18  C   LIG    1       -0.003  -0.015  -0.274  0.00  0.00    -0.050 A 
ATOM     19  C   LIG    1       -0.028  -0.799  -1.413  0.00  0.00    +0.005 A 
ATOM     20  C   LIG    1       -0.007  -2.176  -1.304  0.00  0.00    +0.029 A 
ATOM     21  C   LIG    1        0.039  -2.771  -0.056  0.00  0.00    +0.105 A 
ATOM     22  C   LIG    1        0.065  -1.987   1.082  0.00  0.00    +0.029 A 
ATOM     23  C   LIG    1        0.049  -0.609   0.973  0.00  0.00    +0.005 A 
ENDBRANCH  14  21
ENDBRANCH   1  14
TORSDOF 3
