REMARK  Name = ZINC19798521
REMARK                            x       y       z     vdW  Elec       q    Type
REMARK                         _______ _______ _______ _____ _____    ______ ____
ROOT
ATOM      1  C   LIG    1       -1.200  -2.272   1.300  0.00  0.00    +0.225 A 
ATOM      2  N   LIG    1       -2.285  -3.024   1.457  0.00  0.00    -0.181 NA
ATOM      3  C   LIG    1       -2.218  -4.337   1.262  0.00  0.00    +0.221 A 
ATOM      4  N   LIG    1       -1.065  -4.899   0.909  0.00  0.00    -0.181 NA
ATOM      5  C   LIG    1        0.019  -4.147   0.751  0.00  0.00    +0.225 A 
ATOM      6  N   LIG    1       -0.049  -2.833   0.941  0.00  0.00    -0.181 NA
ENDROOT
BRANCH   1   7
ATOM      7  N   LIG    1       -1.269  -0.907   1.503  0.00  0.00    -0.283 N 
ATOM      8  H   LIG    1       -0.514  -0.344   1.274  0.00  0.00    +0.155 HD
BRANCH   7  14
ATOM      9  C   LIG    1       -2.349   0.823   2.795  0.00  0.00    +0.025 A 
ATOM     10  C   LIG    1       -3.497   1.383   3.322  0.00  0.00    +0.034 A 
ATOM     11  C   LIG    1       -4.725   0.788   3.095  0.00  0.00    +0.122 A 
ATOM     12  C   LIG    1       -4.808  -0.368   2.341  0.00  0.00    +0.034 A 
ATOM     13  C   LIG    1       -3.664  -0.933   1.813  0.00  0.00    +0.025 A 
ATOM     14  C   LIG    1       -2.429  -0.338   2.038  0.00  0.00    +0.034 A 
BRANCH  11  15
ATOM     15  N   LIG    1       -5.953   1.391   3.661  0.00  0.00    +0.006 N 
ATOM     16  O   LIG    1       -5.882   2.401   4.320  0.00  0.00    -0.130 OA
BRANCH  15  17
ATOM     17  O   LIG    1       -7.027   0.872   3.464  0.00  0.00    -0.396 OA
ATOM     18  H   LIG    1       -7.082   0.088   2.953  0.00  0.00    +0.329 HD
ENDBRANCH  15  17
ENDBRANCH  11  15
ENDBRANCH   7  14
ENDBRANCH   1   7
BRANCH   3  19
ATOM     19  N   LIG    1       -3.344  -5.117   1.426  0.00  0.00    -0.312 N 
ATOM     20  H   LIG    1       -4.185  -4.708   1.683  0.00  0.00    +0.149 HD
BRANCH  19  21
ATOM     21  C   LIG    1       -3.270  -6.565   1.210  0.00  0.00    +0.119 C 
BRANCH  21  22
ATOM     22  C   LIG    1       -4.646  -7.188   1.456  0.00  0.00    +0.103 C 
BRANCH  22  23
ATOM     23  N   LIG    1       -4.572  -8.639   1.240  0.00  0.00    -0.297 NA
ATOM     24  C   LIG    1       -4.302  -8.948  -0.172  0.00  0.00    +0.112 C 
ATOM     25  C   LIG    1       -4.173 -10.464  -0.341  0.00  0.00    +0.175 C 
ATOM     26  O   LIG    1       -5.367 -11.095   0.133  0.00  0.00    -0.377 OA
ATOM     27  C   LIG    1       -5.660 -10.815   1.505  0.00  0.00    +0.175 C 
ATOM     28  C   LIG    1       -5.803  -9.302   1.692  0.00  0.00    +0.112 C 
ENDBRANCH  22  23
ENDBRANCH  21  22
ENDBRANCH  19  21
ENDBRANCH   3  19
BRANCH   5  29
ATOM     29  N   LIG    1        1.217  -4.730   0.385  0.00  0.00    -0.283 N 
ATOM     30  H   LIG    1        1.231  -5.643   0.056  0.00  0.00    +0.155 HD
BRANCH  29  31
ATOM     31  C   LIG    1        2.409  -4.005   0.488  0.00  0.00    +0.034 A 
ATOM     32  C   LIG    1        2.390  -2.619   0.397  0.00  0.00    +0.025 A 
ATOM     33  C   LIG    1        3.568  -1.906   0.499  0.00  0.00    +0.022 A 
ATOM     34  C   LIG    1        4.767  -2.571   0.691  0.00  0.00    +0.041 A 
ATOM     35 CL   LIG    1        6.246  -1.671   0.819  0.00  0.00    -0.084 Cl
ATOM     36  C   LIG    1        4.788  -3.952   0.782  0.00  0.00    +0.022 A 
ATOM     37  C   LIG    1        3.612  -4.670   0.687  0.00  0.00    +0.025 A 
ENDBRANCH  29  31
ENDBRANCH   5  29
TORSDOF 10
