REMARK  Name = ZINC22116612
REMARK                            x       y       z     vdW  Elec       q    Type
REMARK                         _______ _______ _______ _____ _____    ______ ____
ROOT
ATOM      1  C   LIG    1       -1.286  -0.769   0.011  0.00  0.00    +0.032 C 
ATOM      2  C   LIG    1       -1.576  -1.476  -1.292  0.00  0.00    -0.070 C 
ATOM      3  N   LIG    1       -0.494  -2.314  -1.802  0.00  0.00    +0.380 N 
ATOM      4  H   LIG    1        0.148  -1.751  -2.339  0.00  0.00    -0.086 HD
ATOM      5  H   LIG    1       -0.885  -3.023  -2.410  0.00  0.00    -0.086 HD
ATOM      6  C   LIG    1        0.244  -2.984  -0.719  0.00  0.00    -0.078 C 
ATOM      7  C   LIG    1       -0.799  -3.800   0.069  0.00  0.00    +0.018 C 
ATOM      8  C   LIG    1       -1.238  -2.991   1.268  0.00  0.00    -0.023 A 
ATOM      9  C   LIG    1       -1.441  -3.693   2.453  0.00  0.00    +0.089 A 
ATOM     10 CL   LIG    1       -1.218  -5.415   2.482  0.00  0.00    -0.079 Cl
ATOM     11  C   LIG    1       -1.821  -3.036   3.608  0.00  0.00    +0.177 A 
ATOM     12  C   LIG    1       -2.001  -1.657   3.582  0.00  0.00    +0.160 A 
ATOM     13  C   LIG    1       -1.808  -0.968   2.402  0.00  0.00    +0.053 A 
ATOM     14  C   LIG    1       -1.433  -1.631   1.233  0.00  0.00    -0.034 A 
ENDROOT
BRANCH   1  20
ATOM     15  C   LIG    1        0.142   1.102  -0.816  0.00  0.00    +0.008 A 
ATOM     16  C   LIG    1        1.329   1.810  -0.826  0.00  0.00    +0.045 A 
ATOM     17  C   LIG    1        2.380   1.410  -0.013  0.00  0.00    +0.117 A 
ATOM     18  C   LIG    1        2.237   0.300   0.807  0.00  0.00    +0.045 A 
ATOM     19  C   LIG    1        1.048  -0.404   0.812  0.00  0.00    +0.008 A 
ATOM     20  C   LIG    1        0.002  -0.004   0.002  0.00  0.00    -0.042 A 
BRANCH  17  21
ATOM     21  O   LIG    1        3.548   2.104  -0.021  0.00  0.00    -0.507 OA
ATOM     22  H   LIG    1        3.583   2.823   0.625  0.00  0.00    +0.292 HD
ENDBRANCH  17  21
ENDBRANCH   1  20
BRANCH  11  23
ATOM     23  O   LIG    1       -2.018  -3.731   4.760  0.00  0.00    -0.502 OA
ATOM     24  H   LIG    1       -2.276  -3.281   5.541  0.00  0.00    +0.292 HD
ENDBRANCH  11  23
BRANCH  12  25
ATOM     25  O   LIG    1       -2.365  -0.994   4.713  0.00  0.00    -0.503 OA
ATOM     26  H   LIG    1       -3.322  -0.918   4.833  0.00  0.00    +0.292 HD
ENDBRANCH  12  25
TORSDOF 4
