REMARK  Name = ZINC15684793
REMARK                            x       y       z     vdW  Elec       q    Type
REMARK                         _______ _______ _______ _____ _____    ______ ____
ROOT
ATOM      1  C   LIG    1       -0.018   1.503   0.010  0.00  0.00    +0.068 C 
ATOM      2  C   LIG    1        0.002  -0.004   0.002  0.00  0.00    +0.069 C 
ATOM      3  N   LIG    1        0.008  -0.766  -1.051  0.00  0.00    -0.177 NA
ATOM      4  N   LIG    1        0.028  -2.115  -0.699  0.00  0.00    -0.156 N 
ATOM      5  C   LIG    1        0.036  -2.243   0.643  0.00  0.00    +0.272 C 
ATOM      6  O   LIG    1        0.053  -3.283   1.281  0.00  0.00    -0.268 OA
ATOM      7  C   LIG    1        0.025  -0.877   1.182  0.00  0.00    +0.065 C 
ATOM      8  C   LIG    1        0.033  -0.493   2.522  0.00  0.00    +0.061 C 
ENDROOT
BRANCH   4   9
ATOM      9  C   LIG    1        0.039  -3.182  -1.607  0.00  0.00    +0.060 A 
ATOM     10  C   LIG    1        0.053  -4.490  -1.144  0.00  0.00    +0.026 A 
ATOM     11  C   LIG    1        0.064  -5.540  -2.041  0.00  0.00    +0.017 A 
ATOM     12  C   LIG    1        0.060  -5.288  -3.402  0.00  0.00    +0.018 A 
ATOM     13 BR   LIG    1        0.074  -6.728  -4.628  0.00  0.00    -0.050 Br
ATOM     14  C   LIG    1        0.047  -3.985  -3.867  0.00  0.00    +0.017 A 
ATOM     15  C   LIG    1        0.031  -2.932  -2.974  0.00  0.00    +0.026 A 
ENDBRANCH   4   9
BRANCH   8  16
ATOM     16  C   LIG    1        0.055  -1.466   3.529  0.00  0.00    +0.129 A 
ATOM     17  C   LIG    1        0.059  -1.224   4.898  0.00  0.00    +0.050 A 
ATOM     18  C   LIG    1        0.085  -2.466   5.526  0.00  0.00    +0.050 A 
ATOM     19  C   LIG    1        0.095  -3.423   4.532  0.00  0.00    +0.136 A 
ATOM     20  O   LIG    1        0.071  -2.804   3.339  0.00  0.00    -0.455 OA
BRANCH  19  21
ATOM     21  C   LIG    1        0.121  -4.883   4.742  0.00  0.00    +0.018 A 
ATOM     22  C   LIG    1        0.132  -5.404   6.040  0.00  0.00    +0.011 A 
ATOM     23  C   LIG    1        0.157  -6.770   6.239  0.00  0.00    +0.001 A 
ATOM     24  C   LIG    1        0.172  -7.632   5.161  0.00  0.00    +0.015 A 
ATOM     25  C   LIG    1        0.161  -7.126   3.857  0.00  0.00    +0.060 A 
ATOM     26  C   LIG    1        0.130  -5.747   3.648  0.00  0.00    +0.026 A 
BRANCH  25  27
ATOM     27  C   LIG    1        0.178  -8.048   2.706  0.00  0.00    +0.337 C 
ATOM     28  O   LIG    1        0.200  -9.257   2.891  0.00  0.00    -0.245 OA
BRANCH  27  29
ATOM     29  O   LIG    1        0.169  -7.604   1.566  0.00  0.00    -0.477 OA
ATOM     30  H   LIG    1        0.151  -6.678   1.424  0.00  0.00    +0.295 HD
ENDBRANCH  27  29
ENDBRANCH  25  27
ENDBRANCH  19  21
ENDBRANCH   8  16
TORSDOF 5
