REMARK  Name = ZINC14952228
REMARK                            x       y       z     vdW  Elec       q    Type
REMARK                         _______ _______ _______ _____ _____    ______ ____
ROOT
ATOM      1  C   LIG    1       -0.019   1.526   0.010  0.00  0.00    +0.012 C 
ATOM      2  C   LIG    1        0.002  -0.004   0.002  0.00  0.00    +0.021 C 
ENDROOT
BRANCH   2   3
ATOM      3  C   LIG    1        0.731  -0.503   1.223  0.00  0.00    +0.060 A 
ATOM      4  C   LIG    1        1.788   0.089   1.810  0.00  0.00    +0.107 A 
ATOM      5  N   LIG    1        2.135  -0.692   2.881  0.00  0.00    -0.351 N 
ATOM      6  H   LIG    1        2.861  -0.527   3.502  0.00  0.00    +0.166 HD
ATOM      7  C   LIG    1        1.276  -1.734   2.910  0.00  0.00    +0.196 A 
ATOM      8  N   LIG    1        0.437  -1.612   1.918  0.00  0.00    -0.241 NA
ENDBRANCH   2   3
BRANCH   2   9
ATOM      9  C   LIG    1        0.718  -0.497  -1.257  0.00  0.00    -0.070 C 
ATOM     10  C   LIG    1        0.739  -2.027  -1.265  0.00  0.00    -0.014 C 
BRANCH   9  11
ATOM     11  N   LIG    1        0.008  -0.011  -2.447  0.00  0.00    +0.380 N 
ATOM     12  H   LIG    1       -0.939  -0.360  -2.440  0.00  0.00    -0.090 HD
ATOM     13  H   LIG    1        0.480  -0.336  -3.277  0.00  0.00    -0.090 HD
ATOM     14  H   LIG    1       -0.006   0.998  -2.441  0.00  0.00    -0.090 HD
ENDBRANCH   9  11
ENDBRANCH   2   9
TORSDOF 3
