REMARK  Name = ZINC37866948
REMARK                            x       y       z     vdW  Elec       q    Type
REMARK                         _______ _______ _______ _____ _____    ______ ____
ROOT
ATOM      1  C   LIG    1        3.694  -0.682  -0.038  0.00  0.00    +0.180 A 
ATOM      2  C   LIG    1        3.864  -2.061  -0.053  0.00  0.00    +0.111 A 
ATOM      3  C   LIG    1        5.314  -2.301  -0.067  0.00  0.00    +0.126 A 
ATOM      4  N   LIG    1        5.899  -1.130  -0.060  0.00  0.00    -0.077 NA
ATOM      5  O   LIG    1        4.911  -0.119  -0.048  0.00  0.00    -0.353 OA
ENDROOT
BRANCH   1   9
ATOM      6  C   LIG    1       -0.017   1.380   0.010  0.00  0.00    +0.000 A 
ATOM      7  C   LIG    1        1.168   2.094   0.002  0.00  0.00    +0.001 A 
ATOM      8  C   LIG    1        2.377   1.431  -0.013  0.00  0.00    +0.011 A 
ATOM      9  C   LIG    1        2.404   0.034  -0.021  0.00  0.00    +0.021 A 
ATOM     10  C   LIG    1        1.204  -0.681  -0.013  0.00  0.00    +0.011 A 
ATOM     11  C   LIG    1        0.002  -0.004   0.002  0.00  0.00    +0.001 A 
ENDBRANCH   1   9
BRANCH   3  12
ATOM     12  C   LIG    1        5.987  -3.622  -0.084  0.00  0.00    +0.005 A 
ATOM     13  C   LIG    1        5.428  -4.702   0.597  0.00  0.00    +0.010 A 
ATOM     14  C   LIG    1        6.059  -5.929   0.577  0.00  0.00    +0.001 A 
ATOM     15  C   LIG    1        7.245  -6.088  -0.117  0.00  0.00    +0.004 A 
ATOM     16  C   LIG    1        7.805  -5.021  -0.795  0.00  0.00    -0.036 A 
ATOM     17  C   LIG    1        7.179  -3.790  -0.787  0.00  0.00    +0.014 A 
BRANCH  16  18
ATOM     18  C   LIG    1        9.097  -5.202  -1.548  0.00  0.00    +0.155 C 
BRANCH  18  19
ATOM     19  C   LIG    1        8.798  -5.620  -2.965  0.00  0.00    +0.309 C 
ATOM     20  O   LIG    1        7.643  -5.757  -3.329  0.00  0.00    -0.251 OA
BRANCH  19  21
ATOM     21  O   LIG    1        9.711  -5.820  -3.747  0.00  0.00    -0.480 OA
ATOM     22  H   LIG    1       10.600  -5.714  -3.468  0.00  0.00    +0.295 HD
ENDBRANCH  19  21
ENDBRANCH  18  19
ENDBRANCH  16  18
ENDBRANCH   3  12
BRANCH   2  23
ATOM     23  C   LIG    1        2.804  -3.079  -0.054  0.00  0.00    +0.250 C 
ATOM     24  N   LIG    1        2.327  -3.556   1.112  0.00  0.00    -0.308 N 
ATOM     25  H   LIG    1        2.684  -3.228   1.953  0.00  0.00    +0.149 HD
ATOM     26  O   LIG    1        2.357  -3.490  -1.108  0.00  0.00    -0.270 OA
BRANCH  24  27
ATOM     27  C   LIG    1        1.270  -4.571   1.111  0.00  0.00    +0.145 C 
BRANCH  27  28
ATOM     28  C   LIG    1        0.914  -4.937   2.553  0.00  0.00    +0.248 C 
BRANCH  28  29
ATOM     29  O   LIG    1        0.346  -3.800   3.208  0.00  0.00    -0.489 OA
BRANCH  29  30
ATOM     30  C   LIG    1       -0.028  -3.958   4.505  0.00  0.00    +0.139 A 
ATOM     31  C   LIG    1        0.152  -5.180   5.136  0.00  0.00    +0.048 A 
ATOM     32  C   LIG    1       -0.229  -5.338   6.455  0.00  0.00    +0.023 A 
ATOM     33  C   LIG    1       -0.790  -4.279   7.146  0.00  0.00    +0.043 A 
ATOM     34 CL   LIG    1       -1.269  -4.482   8.803  0.00  0.00    -0.083 Cl
ATOM     35  C   LIG    1       -0.972  -3.059   6.519  0.00  0.00    +0.043 A 
ATOM     36  C   LIG    1       -0.587  -2.895   5.201  0.00  0.00    +0.084 A 
ATOM     37 CL   LIG    1       -0.808  -1.363   4.416  0.00  0.00    -0.080 Cl
ENDBRANCH  29  30
ENDBRANCH  28  29
ENDBRANCH  27  28
ENDBRANCH  24  27
ENDBRANCH   2  23
TORSDOF 10
