REMARK  Name = ZINC22066510
REMARK                            x       y       z     vdW  Elec       q    Type
REMARK                         _______ _______ _______ _____ _____    ______ ____
ROOT
ATOM      1  C   LIG    1       -5.848  -2.593  -1.669  0.00  0.00    +0.117 C 
ENDROOT
BRANCH   1   2
ATOM      2  N   LIG    1       -6.835  -2.307  -2.719  0.00  0.00    -0.292 NA
ATOM      3  C   LIG    1       -8.033  -3.143  -2.557  0.00  0.00    +0.070 C 
ATOM      4  C   LIG    1       -9.009  -2.859  -3.701  0.00  0.00    -0.057 C 
ATOM      5  C   LIG    1      -10.266  -3.712  -3.524  0.00  0.00    -0.012 C 
ATOM      6  N   LIG    1       -9.377  -1.437  -3.689  0.00  0.00    +0.385 N 
ATOM      7  H   LIG    1       -9.805  -1.208  -2.805  0.00  0.00    -0.081 HD
ATOM      8  C   LIG    1       -8.173  -0.616  -3.877  0.00  0.00    -0.059 C 
ATOM      9  C   LIG    1       -7.191  -0.881  -2.734  0.00  0.00    +0.038 C 
ATOM     10  C   LIG    1       -5.929  -0.042  -2.940  0.00  0.00    +0.022 C 
BRANCH   6  11
ATOM     11  C   LIG    1      -10.327  -1.168  -4.777  0.00  0.00    -0.051 C 
BRANCH  11  12
ATOM     12  C   LIG    1      -10.799   0.260  -4.690  0.00  0.00    -0.053 C 
ATOM     13  C   LIG    1      -10.677   1.055  -5.724  0.00  0.00    +0.002 C 
ENDBRANCH  11  12
ENDBRANCH   6  11
ENDBRANCH   1   2
BRANCH   1  17
ATOM     14  C   LIG    1       -1.988  -1.264  -2.942  0.00  0.00    +0.037 A 
ATOM     15  C   LIG    1       -2.396  -1.070  -1.622  0.00  0.00    +0.013 A 
ATOM     16  C   LIG    1       -3.643  -1.500  -1.218  0.00  0.00    +0.006 A 
ATOM     17  C   LIG    1       -4.488  -2.124  -2.118  0.00  0.00    -0.026 A 
ATOM     18  C   LIG    1       -4.089  -2.321  -3.428  0.00  0.00    +0.006 A 
ATOM     19  C   LIG    1       -2.848  -1.889  -3.847  0.00  0.00    +0.013 A 
BRANCH  14  21
ATOM     20  N   LIG    1        0.430  -1.051  -2.619  0.00  0.00    -0.298 N 
ATOM     21  C   LIG    1       -0.653  -0.805  -3.382  0.00  0.00    +0.247 C 
ATOM     22  O   LIG    1       -0.533  -0.205  -4.433  0.00  0.00    -0.270 OA
BRANCH  20  24
ATOM     23  C   LIG    1        2.491  -1.608  -3.811  0.00  0.00    +0.024 C 
ATOM     24  C   LIG    1        1.741  -0.535  -3.020  0.00  0.00    +0.104 C 
ENDBRANCH  20  24
BRANCH  20  25
ATOM     25  C   LIG    1        0.296  -1.834  -1.388  0.00  0.00    +0.104 C 
ATOM     26  C   LIG    1        0.263  -0.890  -0.184  0.00  0.00    +0.024 C 
ENDBRANCH  20  25
ENDBRANCH  14  21
ENDBRANCH   1  17
BRANCH   1  27
ATOM     27  C   LIG    1       -5.808  -4.076  -1.408  0.00  0.00    -0.022 A 
ATOM     28  C   LIG    1       -5.686  -4.961  -2.464  0.00  0.00    +0.006 A 
ATOM     29  C   LIG    1       -5.649  -6.322  -2.227  0.00  0.00    +0.004 A 
ATOM     30  C   LIG    1       -5.733  -6.803  -0.934  0.00  0.00    +0.045 A 
ATOM     31  C   LIG    1       -5.854  -5.917   0.127  0.00  0.00    +0.120 A 
ATOM     32  C   LIG    1       -5.886  -4.551  -0.113  0.00  0.00    +0.051 A 
BRANCH  31  33
ATOM     33  O   LIG    1       -5.937  -6.387   1.399  0.00  0.00    -0.495 OA
ATOM     34  C   LIG    1       -5.893  -7.805   1.571  0.00  0.00    +0.277 C 
ENDBRANCH  31  33
ENDBRANCH   1  27
TORSDOF 9
