REMARK  Name = ZINC27632825
REMARK                            x       y       z     vdW  Elec       q    Type
REMARK                         _______ _______ _______ _____ _____    ______ ____
ROOT
ATOM      1  C   LIG    1        3.621   0.998  -0.067  0.00  0.00    +0.084 A 
ATOM      2  C   LIG    1        4.373   0.169  -0.851  0.00  0.00    +0.078 A 
ATOM      3  S   LIG    1        6.019   0.760  -0.480  0.00  0.00    -0.041 S 
ATOM      4  C   LIG    1        5.543   2.036   0.678  0.00  0.00    +0.233 A 
ATOM      5  N   LIG    1        4.222   1.910   0.681  0.00  0.00    -0.209 NA
ENDROOT
BRANCH   1   8
ATOM      6  C   LIG    1        1.593   3.345  -0.256  0.00  0.00    +0.064 C 
ATOM      7  C   LIG    1        1.245   1.884  -0.131  0.00  0.00    +0.023 A 
ATOM      8  C   LIG    1        2.143   0.873  -0.049  0.00  0.00    +0.029 A 
ATOM      9  C   LIG    1        1.368  -0.373   0.060  0.00  0.00    +0.009 A 
ATOM     10  C   LIG    1        1.712  -1.720   0.172  0.00  0.00    +0.010 A 
ATOM     11  C   LIG    1        0.731  -2.667   0.256  0.00  0.00    +0.001 A 
ATOM     12  C   LIG    1       -0.608  -2.298   0.232  0.00  0.00    +0.002 A 
ATOM     13  C   LIG    1       -0.969  -0.974   0.121  0.00  0.00    +0.026 A 
ATOM     14  C   LIG    1        0.015   0.006   0.034  0.00  0.00    +0.047 A 
ATOM     15  N   LIG    1       -0.025   1.379  -0.082  0.00  0.00    -0.358 N 
ATOM     16  H   LIG    1       -0.890   2.057  -0.136  0.00  0.00    +0.166 HD
ENDBRANCH   1   8
BRANCH   4  17
ATOM     17  N   LIG    1        6.327   2.904   1.371  0.00  0.00    -0.225 N 
ATOM     18  H   LIG    1        7.411   2.933   1.189  0.00  0.00    +0.267 HD
BRANCH  17  19
ATOM     19  C   LIG    1        5.788   3.709   2.262  0.00  0.00    +0.347 C 
ATOM     20  N   LIG    1        4.425   3.759   2.405  0.00  0.00    -0.292 N 
ATOM     21  H   LIG    1        3.783   3.126   1.776  0.00  0.00    +0.255 HD
ATOM     22  H   LIG    1        3.975   4.433   3.149  0.00  0.00    +0.255 HD
BRANCH  19  23
ATOM     23  N   LIG    1        6.588   4.499   3.045  0.00  0.00    -0.292 N 
ATOM     24  H   LIG    1        7.682   4.459   2.930  0.00  0.00    +0.255 HD
ATOM     25  H   LIG    1        6.138   5.172   3.789  0.00  0.00    +0.255 HD
ENDBRANCH  19  23
ENDBRANCH  17  19
ENDBRANCH   4  17
TORSDOF 4
