REMARK  Name = ZINC26479967
REMARK                            x       y       z     vdW  Elec       q    Type
REMARK                         _______ _______ _______ _____ _____    ______ ____
ROOT
ATOM      1  C   LIG    1       -0.017   1.379   0.010  0.00  0.00    +0.023 A 
ATOM      2  C   LIG    1        1.170   2.084   0.002  0.00  0.00    +0.047 A 
ATOM      3  C   LIG    1        2.385   1.409  -0.012  0.00  0.00    +0.128 A 
ATOM      4  C   LIG    1        2.402   0.024  -0.016  0.00  0.00    +0.048 A 
ATOM      5  C   LIG    1        3.698  -0.737  -0.018  0.00  0.00    +0.222 C 
ATOM      6  C   LIG    1        3.960  -1.335   1.344  0.00  0.00    +0.271 C 
ATOM      7  N   LIG    1        4.000  -2.670   1.149  0.00  0.00    -0.218 N 
ATOM      8  H   LIG    1        4.179  -3.345   1.998  0.00  0.00    +0.161 HD
ATOM      9  C   LIG    1        3.800  -2.978  -0.139  0.00  0.00    +0.408 C 
ATOM     10  O   LIG    1        3.791  -4.115  -0.568  0.00  0.00    -0.226 OA
ATOM     11  O   LIG    1        4.104  -0.742   2.392  0.00  0.00    -0.271 OA
ATOM     12  C   LIG    1        4.855   0.168  -0.432  0.00  0.00    +0.104 C 
ATOM     13  C   LIG    1        4.745   1.482   0.354  0.00  0.00    +0.234 C 
ATOM     14  O   LIG    1        3.611  -1.889  -0.903  0.00  0.00    -0.429 OA
ATOM     15  C   LIG    1        1.209  -0.678  -0.011  0.00  0.00    +0.031 A 
ATOM     16  O   LIG    1        3.533   2.135  -0.024  0.00  0.00    -0.491 OA
ATOM     17  C   LIG    1        0.002  -0.004   0.002  0.00  0.00    +0.042 A 
ATOM     18 CL   LIG    1       -1.489  -0.893   0.009  0.00  0.00    -0.084 Cl
ENDROOT
TORSDOF 0
