REMARK  Name = ZINC29044738
REMARK                            x       y       z     vdW  Elec       q    Type
REMARK                         _______ _______ _______ _____ _____    ______ ____
ROOT
ATOM      1  N   LIG    1        0.116  -0.397   1.421  0.00  0.00    +0.384 N 
ATOM      2  H   LIG    1       -0.688   0.112   1.973  0.00  0.00    -0.081 HD
ATOM      3  C   LIG    1        1.388  -0.098   2.093  0.00  0.00    -0.059 C 
ATOM      4  C   LIG    1        1.320  -0.581   3.544  0.00  0.00    +0.088 C 
ATOM      5  N   LIG    1        1.042  -2.023   3.566  0.00  0.00    -0.318 N 
ATOM      6  C   LIG    1       -0.230  -2.322   2.894  0.00  0.00    +0.088 C 
ATOM      7  C   LIG    1       -0.163  -1.840   1.443  0.00  0.00    -0.059 C 
ENDROOT
BRANCH   5   8
ATOM      8  C   LIG    1        1.044  -2.512   4.867  0.00  0.00    +0.133 A 
ATOM      9  C   LIG    1        1.954  -3.499   5.231  0.00  0.00    +0.095 A 
ATOM     10  C   LIG    1        1.945  -3.976   6.530  0.00  0.00    +0.017 A 
ATOM     11  C   LIG    1        1.024  -3.447   7.424  0.00  0.00    +0.020 A 
ATOM     12  C   LIG    1        0.150  -2.469   6.994  0.00  0.00    +0.113 A 
ATOM     13  N   LIG    1        0.185  -2.029   5.751  0.00  0.00    -0.240 NA
BRANCH   9  14
ATOM     14  C   LIG    1        2.935  -4.043   4.225  0.00  0.00    +0.421 C 
ATOM     15  F   LIG    1        3.801  -3.021   3.819  0.00  0.00    -0.166 F 
ATOM     16  F   LIG    1        2.240  -4.534   3.115  0.00  0.00    -0.166 F 
ATOM     17  F   LIG    1        3.676  -5.077   4.807  0.00  0.00    -0.166 F 
ENDBRANCH   9  14
ENDBRANCH   5   8
BRANCH   1  18
ATOM     18  C   LIG    1        0.113   0.119   0.045  0.00  0.00    -0.043 C 
BRANCH  18  22
ATOM     19  C   LIG    1        0.233   4.388   0.126  0.00  0.00    +0.000 A 
ATOM     20  C   LIG    1        1.410   3.664   0.098  0.00  0.00    +0.000 A 
ATOM     21  C   LIG    1        1.371   2.283   0.072  0.00  0.00    +0.002 A 
ATOM     22  C   LIG    1        0.155   1.625   0.074  0.00  0.00    -0.064 A 
ATOM     23  C   LIG    1       -1.022   2.349   0.096  0.00  0.00    +0.002 A 
ATOM     24  C   LIG    1       -0.984   3.731   0.127  0.00  0.00    +0.000 A 
ENDBRANCH  18  22
ENDBRANCH   1  18
TORSDOF 4
