REMARK  Name = ZINC13760709
REMARK                            x       y       z     vdW  Elec       q    Type
REMARK                         _______ _______ _______ _____ _____    ______ ____
ROOT
ATOM      1  C   LIG    1       -0.216  -3.288   5.557  0.00  0.00    -0.028 A 
ATOM      2  C   LIG    1       -1.500  -3.084   6.028  0.00  0.00    +0.006 A 
ATOM      3  C   LIG    1       -1.983  -3.841   7.076  0.00  0.00    +0.009 A 
ATOM      4  C   LIG    1       -1.173  -4.814   7.660  0.00  0.00    -0.017 A 
ATOM      5  C   LIG    1        0.121  -5.016   7.181  0.00  0.00    +0.009 A 
ATOM      6  C   LIG    1        0.591  -4.256   6.129  0.00  0.00    +0.006 A 
ENDROOT
BRANCH   4   7
ATOM      7  C   LIG    1       -1.684  -5.630   8.787  0.00  0.00    -0.007 A 
ATOM      8  C   LIG    1       -2.287  -5.015   9.880  0.00  0.00    +0.009 A 
ATOM      9  C   LIG    1       -2.761  -5.779  10.928  0.00  0.00    +0.001 A 
ATOM     10  C   LIG    1       -2.644  -7.158  10.898  0.00  0.00    +0.001 A 
ATOM     11  C   LIG    1       -2.050  -7.785   9.822  0.00  0.00    +0.012 A 
ATOM     12  C   LIG    1       -1.570  -7.030   8.754  0.00  0.00    +0.028 A 
BRANCH  12  13
ATOM     13  C   LIG    1       -0.938  -7.698   7.595  0.00  0.00    +0.183 A 
ATOM     14  N   LIG    1       -0.445  -7.100   6.550  0.00  0.00    -0.054 NA
ATOM     15  O   LIG    1        0.061  -8.098   5.680  0.00  0.00    -0.295 OA
ATOM     16  C   LIG    1       -0.159  -9.287   6.264  0.00  0.00    +0.440 A 
ATOM     17  O   LIG    1        0.142 -10.375   5.811  0.00  0.00    -0.221 OA
ATOM     18  N   LIG    1       -0.766  -9.060   7.445  0.00  0.00    -0.271 N 
ATOM     19  H   LIG    1       -1.040  -9.739   8.081  0.00  0.00    +0.174 HD
ENDBRANCH  12  13
ENDBRANCH   4   7
BRANCH   1  20
ATOM     20  C   LIG    1        0.305  -2.458   4.413  0.00  0.00    +0.162 C 
BRANCH  20  29
ATOM     21  C   LIG    1       -1.348  -1.952   2.571  0.00  0.00    +0.299 A 
ATOM     22  N   LIG    1       -1.831  -2.550   1.514  0.00  0.00    -0.195 NA
ATOM     23  C   LIG    1       -1.282  -3.789   1.402  0.00  0.00    +0.094 A 
ATOM     24  C   LIG    1       -1.438  -4.828   0.482  0.00  0.00    +0.030 A 
ATOM     25  C   LIG    1       -0.725  -6.000   0.634  0.00  0.00    +0.003 A 
ATOM     26  C   LIG    1        0.149  -6.162   1.692  0.00  0.00    +0.017 A 
ATOM     27  C   LIG    1        0.322  -5.139   2.625  0.00  0.00    +0.084 A 
ATOM     28  C   LIG    1       -0.396  -3.945   2.480  0.00  0.00    +0.086 A 
ATOM     29  N   LIG    1       -0.453  -2.770   3.199  0.00  0.00    -0.289 N 
BRANCH  27  30
ATOM     30  C   LIG    1        1.254  -5.314   3.753  0.00  0.00    +0.339 C 
ATOM     31  O   LIG    1        2.049  -4.436   4.026  0.00  0.00    -0.245 OA
BRANCH  30  32
ATOM     32  O   LIG    1        1.225  -6.446   4.483  0.00  0.00    -0.477 OA
ATOM     33  H   LIG    1        1.872  -6.469   5.201  0.00  0.00    +0.295 HD
ENDBRANCH  30  32
ENDBRANCH  27  30
BRANCH  21  34
ATOM     34  O   LIG    1       -1.681  -0.706   2.980  0.00  0.00    -0.464 OA
BRANCH  34  36
ATOM     35  C   LIG    1       -2.888   1.380   2.804  0.00  0.00    +0.048 C 
ATOM     36  C   LIG    1       -2.640   0.000   2.191  0.00  0.00    +0.229 C 
ENDBRANCH  34  36
ENDBRANCH  21  34
ENDBRANCH  20  29
ENDBRANCH   1  20
TORSDOF 8
