REMARK  Name = ZINC40423557
REMARK                            x       y       z     vdW  Elec       q    Type
REMARK                         _______ _______ _______ _____ _____    ______ ____
ROOT
ATOM      1  N   LIG    1       -5.043   1.129   4.739  0.00  0.00    -0.299 NA
ATOM      2  C   LIG    1       -5.994   0.014   4.833  0.00  0.00    +0.086 C 
ATOM      3  C   LIG    1       -7.421   0.562   4.899  0.00  0.00    +0.040 C 
ATOM      4  C   LIG    1       -7.555   1.476   6.121  0.00  0.00    +0.095 C 
ATOM      5  C   LIG    1       -6.522   2.602   6.022  0.00  0.00    +0.040 C 
ATOM      6  C   LIG    1       -5.121   1.994   5.923  0.00  0.00    +0.086 C 
ENDROOT
BRANCH   4   7
ATOM      7  N   LIG    1       -8.903   2.050   6.157  0.00  0.00    -0.289 N 
ATOM      8  C   LIG    1       -9.828   1.894   7.186  0.00  0.00    +0.070 A 
ATOM      9  C   LIG    1       -9.799   1.218   8.397  0.00  0.00    +0.028 A 
ATOM     10  C   LIG    1      -10.902   1.249   9.228  0.00  0.00    +0.002 A 
ATOM     11  C   LIG    1      -12.036   1.952   8.857  0.00  0.00    +0.002 A 
ATOM     12  C   LIG    1      -12.074   2.627   7.652  0.00  0.00    +0.028 A 
ATOM     13  C   LIG    1      -10.971   2.602   6.812  0.00  0.00    +0.067 A 
ATOM     14  N   LIG    1      -10.706   3.167   5.567  0.00  0.00    -0.306 N 
ATOM     15  H   LIG    1      -11.315   3.718   5.052  0.00  0.00    +0.170 HD
ATOM     16  C   LIG    1       -9.456   2.823   5.203  0.00  0.00    +0.328 A 
ATOM     17  O   LIG    1       -8.910   3.157   4.168  0.00  0.00    -0.247 OA
ENDBRANCH   4   7
BRANCH   1  22
ATOM     18  N   LIG    1       -1.342   0.478   2.824  0.00  0.00    +0.382 N 
ATOM     19  H   LIG    1       -1.711   1.018   2.055  0.00  0.00    -0.081 HD
ATOM     20  C   LIG    1       -2.189  -0.701   3.041  0.00  0.00    -0.077 C 
ATOM     21  C   LIG    1       -3.631  -0.258   3.294  0.00  0.00    +0.000 C 
ATOM     22  C   LIG    1       -3.674   0.639   4.535  0.00  0.00    +0.053 C 
ATOM     23  C   LIG    1       -2.730   1.826   4.327  0.00  0.00    +0.000 C 
ATOM     24  C   LIG    1       -1.321   1.306   4.035  0.00  0.00    -0.077 C 
BRANCH  18  25
ATOM     25  C   LIG    1        0.025   0.045   2.504  0.00  0.00    -0.043 C 
BRANCH  25  32
ATOM     26  C   LIG    1       -0.018   1.503   0.010  0.00  0.00    +0.044 C 
ATOM     27  C   LIG    1        0.002  -0.004   0.002  0.00  0.00    -0.049 A 
ATOM     28  C   LIG    1        0.006  -0.689  -1.199  0.00  0.00    +0.003 A 
ATOM     29  C   LIG    1        0.025  -2.071  -1.207  0.00  0.00    +0.000 A 
ATOM     30  C   LIG    1        0.040  -2.768  -0.013  0.00  0.00    +0.000 A 
ATOM     31  C   LIG    1        0.037  -2.084   1.188  0.00  0.00    +0.002 A 
ATOM     32  C   LIG    1        0.023  -0.702   1.195  0.00  0.00    -0.061 A 
ENDBRANCH  25  32
ENDBRANCH  18  25
ENDBRANCH   1  22
TORSDOF 4
