REMARK  Name = ZINC33966195
REMARK                            x       y       z     vdW  Elec       q    Type
REMARK                         _______ _______ _______ _____ _____    ______ ____
ROOT
ATOM      1  C   LIG    1        1.054  -0.849  -0.906  0.00  0.00    -0.011 C 
ATOM      2  C   LIG    1        0.177  -0.209  -2.011  0.00  0.00    +0.004 C 
ATOM      3  C   LIG    1        0.462  -1.064  -3.263  0.00  0.00    +0.006 C 
ATOM      4  C   LIG    1        0.950  -2.433  -2.758  0.00  0.00    -0.035 C 
ATOM      5  C   LIG    1        0.949  -2.363  -1.215  0.00  0.00    +0.009 C 
ENDROOT
BRANCH   1   7
ATOM      6  C   LIG    1        0.662   0.953   0.781  0.00  0.00    +0.004 C 
ATOM      7  C   LIG    1        0.489  -0.538   0.481  0.00  0.00    +0.000 C 
ENDBRANCH   1   7
BRANCH   4   8
ATOM      8  C   LIG    1        2.368  -2.704  -3.265  0.00  0.00    -0.079 C 
BRANCH   8   9
ATOM      9  N   LIG    1        2.350  -2.828  -4.729  0.00  0.00    +0.378 N 
ATOM     10  H   LIG    1        1.917  -2.010  -5.130  0.00  0.00    -0.090 HD
ATOM     11  H   LIG    1        1.825  -3.649  -4.989  0.00  0.00    -0.090 HD
ATOM     12  H   LIG    1        3.295  -2.911  -5.071  0.00  0.00    -0.090 HD
ENDBRANCH   8   9
ENDBRANCH   4   8
BRANCH   4  13
ATOM     13  C   LIG    1        0.003  -3.536  -3.235  0.00  0.00    +0.125 C 
BRANCH  13  14
ATOM     14  C   LIG    1        0.438  -4.857  -2.655  0.00  0.00    +0.305 C 
ATOM     15  O   LIG    1        1.359  -4.899  -1.858  0.00  0.00    -0.251 OA
BRANCH  14  16
ATOM     16  O   LIG    1       -0.132  -5.884  -2.983  0.00  0.00    -0.481 OA
ATOM     17  H   LIG    1       -0.840  -5.851  -3.596  0.00  0.00    +0.295 HD
ENDBRANCH  14  16
ENDBRANCH  13  14
ENDBRANCH   4  13
TORSDOF 6
