REMARK  Name = ZINC29747055
REMARK                            x       y       z     vdW  Elec       q    Type
REMARK                         _______ _______ _______ _____ _____    ______ ____
ROOT
ATOM      1  N   LIG    1        2.260   5.108   1.445  0.00  0.00    -0.315 N 
ATOM      2  H   LIG    1        2.475   5.549   0.608  0.00  0.00    +0.149 HD
ATOM      3  C   LIG    1        2.388   5.773   2.610  0.00  0.00    +0.211 C 
ATOM      4  O   LIG    1        2.119   5.221   3.656  0.00  0.00    -0.276 OA
ENDROOT
BRANCH   1   5
ATOM      5  C   LIG    1        1.798   3.718   1.442  0.00  0.00    +0.110 C 
BRANCH   5   6
ATOM      6  C   LIG    1        1.743   3.202   0.003  0.00  0.00    +0.073 C 
BRANCH   6   8
ATOM      7  C   LIG    1       -0.017   1.365   0.009  0.00  0.00    +0.105 A 
ATOM      8  C   LIG    1        1.267   1.772  -0.001  0.00  0.00    +0.035 A 
ATOM      9  N   LIG    1        2.048   0.681  -0.014  0.00  0.00    -0.350 N 
ATOM     10  H   LIG    1        3.018   0.686  -0.023  0.00  0.00    +0.166 HD
ATOM     11  C   LIG    1        1.297  -0.386  -0.012  0.00  0.00    +0.171 A 
ATOM     12  N   LIG    1        0.002  -0.004   0.002  0.00  0.00    -0.352 N 
ATOM     13  H   LIG    1       -0.771  -0.590   0.006  0.00  0.00    +0.166 HD
ENDBRANCH   6   8
ENDBRANCH   5   6
ENDBRANCH   1   5
BRANCH   3  14
ATOM     14  C   LIG    1        2.863   7.203   2.613  0.00  0.00    +0.076 C 
BRANCH  14  15
ATOM     15  C   LIG    1        2.918   7.719   4.053  0.00  0.00    -0.077 C 
BRANCH  15  16
ATOM     16  N   LIG    1        3.382   9.113   4.056  0.00  0.00    +0.378 N 
ATOM     17  H   LIG    1        3.418   9.453   5.005  0.00  0.00    -0.090 HD
ATOM     18  H   LIG    1        2.744   9.681   3.519  0.00  0.00    -0.090 HD
ATOM     19  H   LIG    1        4.302   9.162   3.645  0.00  0.00    -0.090 HD
ENDBRANCH  15  16
ENDBRANCH  14  15
ENDBRANCH   3  14
TORSDOF 6
