REMARK  Name = ZINC58534146
REMARK                            x       y       z     vdW  Elec       q    Type
REMARK                         _______ _______ _______ _____ _____    ______ ____
ROOT
ATOM      1  N   LIG    1        1.350   0.073  -2.925  0.00  0.00    +0.387 N 
ATOM      2  H   LIG    1        2.058  -0.579  -2.622  0.00  0.00    -0.081 HD
ATOM      3  C   LIG    1        1.667   1.476  -2.599  0.00  0.00    -0.035 C 
ATOM      4  C   LIG    1        2.425   1.557  -3.931  0.00  0.00    +0.141 C 
ATOM      5  C   LIG    1        1.460   0.438  -4.349  0.00  0.00    -0.035 C 
ENDROOT
BRANCH   1   6
ATOM      6  C   LIG    1       -0.006  -0.327  -2.527  0.00  0.00    -0.039 C 
BRANCH   6   9
ATOM      7  C   LIG    1       -0.018   1.503   0.010  0.00  0.00    +0.066 C 
ATOM      8  C   LIG    1        0.002  -0.004   0.002  0.00  0.00    +0.043 A 
ATOM      9  C   LIG    1        0.008  -0.796  -1.095  0.00  0.00    -0.023 A 
ATOM     10  C   LIG    1        0.029  -2.127  -0.665  0.00  0.00    +0.136 A 
ATOM     11  N   LIG    1        0.035  -2.135   0.644  0.00  0.00    -0.174 NA
ATOM     12  N   LIG    1        0.024  -0.807   1.090  0.00  0.00    -0.237 N 
BRANCH  12  13
ATOM     13  C   LIG    1        0.031  -0.386   2.426  0.00  0.00    +0.066 A 
ATOM     14  C   LIG    1        0.704   0.774   2.786  0.00  0.00    +0.028 A 
ATOM     15  C   LIG    1        0.709   1.187   4.104  0.00  0.00    +0.002 A 
ATOM     16  C   LIG    1        0.045   0.446   5.065  0.00  0.00    +0.000 A 
ATOM     17  C   LIG    1       -0.625  -0.710   4.710  0.00  0.00    +0.002 A 
ATOM     18  C   LIG    1       -0.638  -1.125   3.393  0.00  0.00    +0.028 A 
ENDBRANCH  12  13
ENDBRANCH   6   9
ENDBRANCH   1   6
BRANCH   4  19
ATOM     19  O   LIG    1        2.237   2.785  -4.637  0.00  0.00    -0.486 OA
BRANCH  19  20
ATOM     20  C   LIG    1        3.265   3.209  -5.422  0.00  0.00    +0.197 A 
ATOM     21  C   LIG    1        4.256   4.028  -4.891  0.00  0.00    +0.164 A 
ATOM     22  C   LIG    1        5.301   4.457  -5.694  0.00  0.00    +0.049 A 
ATOM     23  C   LIG    1        5.357   4.072  -7.021  0.00  0.00    +0.007 A 
ATOM     24  C   LIG    1        4.373   3.259  -7.550  0.00  0.00    +0.042 A 
ATOM     25  C   LIG    1        3.329   2.821  -6.752  0.00  0.00    +0.168 A 
ATOM     26  F   LIG    1        2.372   2.021  -7.270  0.00  0.00    -0.202 F 
BRANCH  21  27
ATOM     27  O   LIG    1        4.200   4.407  -3.586  0.00  0.00    -0.491 OA
ATOM     28  C   LIG    1        5.252   5.248  -3.109  0.00  0.00    +0.277 C 
ENDBRANCH  21  27
ENDBRANCH  19  20
ENDBRANCH   4  19
TORSDOF 6
