REMARK  Name = ZINC13776732
REMARK                            x       y       z     vdW  Elec       q    Type
REMARK                         _______ _______ _______ _____ _____    ______ ____
ROOT
ATOM      1  C   LIG    1        2.838  -0.944  -1.975  0.00  0.00    +0.020 C 
ATOM      2  C   LIG    1        2.334  -0.168  -0.757  0.00  0.00    +0.097 C 
ATOM      3  C   LIG    1        2.191   1.312  -1.122  0.00  0.00    +0.019 C 
ATOM      4  C   LIG    1        1.408   2.008  -0.001  0.00  0.00    +0.046 C 
ATOM      5  C   LIG    1       -0.018   1.453   0.010  0.00  0.00    +0.233 C 
ATOM      6  N   LIG    1        0.002  -0.004   0.002  0.00  0.00    -0.279 N 
ATOM      7  H   LIG    1       -0.938  -0.484   0.313  0.00  0.00    +0.303 HD
ATOM      8  C   LIG    1        1.004  -0.720  -0.331  0.00  0.00    +0.239 C 
ENDROOT
BRANCH   8   9
ATOM      9  N   LIG    1        0.858  -2.082  -0.296  0.00  0.00    -0.254 N 
ATOM     10  H   LIG    1        1.699  -2.733  -0.576  0.00  0.00    +0.288 HD
ATOM     11  H   LIG    1       -0.101  -2.524   0.011  0.00  0.00    +0.288 HD
ENDBRANCH   8   9
TORSDOF 1
