REMARK  Name = ZINC13833857
REMARK                            x       y       z     vdW  Elec       q    Type
REMARK                         _______ _______ _______ _____ _____    ______ ____
ROOT
ATOM      1  C   LIG    1        1.992   4.536  -0.477  0.00  0.00    +0.047 C 
ATOM      2  C   LIG    1        0.789   3.629  -0.457  0.00  0.00    -0.005 A 
ATOM      3  C   LIG    1        0.952   2.278  -0.243  0.00  0.00    +0.015 A 
ATOM      4  C   LIG    1       -0.167   1.433  -0.225  0.00  0.00    -0.019 A 
ATOM      5  C   LIG    1       -1.447   1.968  -0.431  0.00  0.00    +0.057 A 
ATOM      6  C   LIG    1       -1.599   3.323  -0.639  0.00  0.00    +0.159 A 
ATOM      7  C   LIG    1       -0.480   4.157  -0.655  0.00  0.00    +0.161 A 
ENDROOT
BRANCH   4   8
ATOM      8  C   LIG    1        0.002  -0.004   0.002  0.00  0.00    +0.038 C 
ATOM      9  C   LIG    1       -0.959  -0.710   0.692  0.00  0.00    +0.129 C 
BRANCH   9  10
ATOM     10  C   LIG    1       -0.878  -2.137   0.773  0.00  0.00    +0.110 C 
ATOM     11  N   LIG    1       -0.815  -3.269   0.838  0.00  0.00    -0.190 NA
ENDBRANCH   9  10
BRANCH   9  12
ATOM     12  C   LIG    1       -2.038  -0.016   1.327  0.00  0.00    +0.110 C 
ATOM     13  N   LIG    1       -2.895   0.535   1.831  0.00  0.00    -0.190 NA
ENDBRANCH   9  12
ENDBRANCH   4   8
BRANCH   6  14
ATOM     14  O   LIG    1       -2.839   3.846  -0.834  0.00  0.00    -0.503 OA
ATOM     15  H   LIG    1       -3.115   3.869  -1.760  0.00  0.00    +0.292 HD
ENDBRANCH   6  14
BRANCH   7  16
ATOM     16  O   LIG    1       -0.633   5.490  -0.865  0.00  0.00    -0.503 OA
ATOM     17  H   LIG    1       -0.594   5.748  -1.796  0.00  0.00    +0.292 HD
ENDBRANCH   7  16
TORSDOF 5
