REMARK  Name = ZINC13782181
REMARK                            x       y       z     vdW  Elec       q    Type
REMARK                         _______ _______ _______ _____ _____    ______ ____
ROOT
ATOM      1  C   LIG    1       -1.141   1.727   0.016  0.00  0.00    +0.058 A 
ATOM      2  C   LIG    1       -0.782   3.075   0.026  0.00  0.00    +0.047 A 
ATOM      3  C   LIG    1        0.692   3.108   0.012  0.00  0.00    +0.014 A 
ATOM      4  C   LIG    1        1.630   4.138   0.009  0.00  0.00    +0.056 A 
ATOM      5  C   LIG    1        2.979   3.835  -0.006  0.00  0.00    +0.121 A 
ATOM      6  C   LIG    1        3.397   2.508  -0.017  0.00  0.00    +0.047 A 
ATOM      7  C   LIG    1        2.476   1.483  -0.014  0.00  0.00    +0.030 A 
ATOM      8  C   LIG    1        1.115   1.770   0.001  0.00  0.00    +0.048 A 
ATOM      9  N   LIG    1       -0.011   0.966   0.007  0.00  0.00    -0.354 N 
ATOM     10  H   LIG    1        0.002  -0.004   0.002  0.00  0.00    +0.166 HD
ENDROOT
BRANCH   1  14
ATOM     11  C   LIG    1       -5.115   0.235   0.024  0.00  0.00    +0.120 A 
ATOM     12  C   LIG    1       -4.163  -0.324   0.869  0.00  0.00    +0.046 A 
ATOM     13  C   LIG    1       -2.873   0.156   0.870  0.00  0.00    +0.013 A 
ATOM     14  C   LIG    1       -2.520   1.208   0.019  0.00  0.00    -0.001 A 
ATOM     15  C   LIG    1       -3.482   1.771  -0.826  0.00  0.00    +0.013 A 
ATOM     16  C   LIG    1       -4.769   1.281  -0.823  0.00  0.00    +0.046 A 
BRANCH  11  18
ATOM     17  C   LIG    1       -7.314   0.379  -0.866  0.00  0.00    +0.277 C 
ATOM     18  O   LIG    1       -6.386  -0.241   0.027  0.00  0.00    -0.495 OA
ENDBRANCH  11  18
ENDBRANCH   1  14
BRANCH   2  19
ATOM     19  C   LIG    1       -1.655   4.183   0.040  0.00  0.00    +0.261 C 
ATOM     20  O   LIG    1       -2.858   4.010   0.050  0.00  0.00    -0.296 OA
ENDBRANCH   2  19
BRANCH   5  21
ATOM     21  O   LIG    1        3.899   4.837  -0.010  0.00  0.00    -0.495 OA
ATOM     22  C   LIG    1        5.275   4.453  -0.025  0.00  0.00    +0.277 C 
ENDBRANCH   5  21
TORSDOF 4
