REMARK  Name = ZINC26843314
REMARK                            x       y       z     vdW  Elec       q    Type
REMARK                         _______ _______ _______ _____ _____    ______ ____
ROOT
ATOM      1  C   LIG    1        3.775   6.263  -0.616  0.00  0.00    +0.068 C 
ATOM      2  C   LIG    1        2.692   6.204   0.430  0.00  0.00    +0.071 A 
ATOM      3  C   LIG    1        2.619   6.950   1.561  0.00  0.00    +0.064 A 
ATOM      4  C   LIG    1        1.428   6.518   2.190  0.00  0.00    +0.363 A 
ATOM      5  O   LIG    1        0.904   5.574   1.391  0.00  0.00    -0.326 OA
ATOM      6  O   LIG    1        0.967   6.923   3.243  0.00  0.00    -0.243 OA
ATOM      7  N   LIG    1        1.601   5.394   0.419  0.00  0.00    -0.125 N 
ATOM      8  C   LIG    1        1.328   4.504  -0.556  0.00  0.00    +0.350 C 
ATOM      9  N   LIG    1        0.158   3.834  -0.547  0.00  0.00    -0.281 N 
ATOM     10  C   LIG    1       -0.126   2.894  -1.649  0.00  0.00    +0.109 C 
ATOM     11  C   LIG    1       -0.763   1.586  -1.146  0.00  0.00    +0.019 C 
ATOM     12  C   LIG    1       -0.097   1.143   0.133  0.00  0.00    +0.002 C 
ATOM     13  C   LIG    1       -0.859   1.716   1.325  0.00  0.00    +0.002 C 
ATOM     14  C   LIG    1       -0.462   3.081   1.698  0.00  0.00    +0.019 C 
ATOM     15  C   LIG    1       -0.765   4.065   0.541  0.00  0.00    +0.109 C 
ATOM     16  O   LIG    1        2.135   4.306  -1.442  0.00  0.00    -0.246 OA
ENDROOT
BRANCH   3  17
ATOM     17  C   LIG    1        3.588   8.001   2.039  0.00  0.00    +0.022 C 
ATOM     18  C   LIG    1        4.150   7.593   3.403  0.00  0.00    +0.012 C 
ATOM     19  C   LIG    1        2.864   9.342   2.166  0.00  0.00    +0.012 C 
ENDBRANCH   3  17
TORSDOF 1
