REMARK  Name = ZINC28260029
REMARK                            x       y       z     vdW  Elec       q    Type
REMARK                         _______ _______ _______ _____ _____    ______ ____
ROOT
ATOM      1  C   LIG    1       -1.260  -0.760   0.011  0.00  0.00    +0.171 C 
ATOM      2  O   LIG    1       -2.319  -0.171   0.024  0.00  0.00    -0.292 OA
ENDROOT
BRANCH   1  10
ATOM      3  C   LIG    1       -0.017   1.395   0.010  0.00  0.00    +0.013 A 
ATOM      4  C   LIG    1        1.169   2.097   0.002  0.00  0.00    +0.022 A 
ATOM      5  C   LIG    1        2.378   1.422  -0.013  0.00  0.00    +0.059 A 
ATOM      6 CL   LIG    1        3.867   2.315  -0.023  0.00  0.00    -0.082 Cl
ATOM      7  C   LIG    1        2.405   0.035  -0.021  0.00  0.00    +0.060 A 
ATOM      8 CL   LIG    1        3.926  -0.801  -0.040  0.00  0.00    -0.082 Cl
ATOM      9  C   LIG    1        1.227  -0.681  -0.013  0.00  0.00    +0.032 A 
ATOM     10  C   LIG    1        0.002  -0.004   0.002  0.00  0.00    +0.019 A 
ENDBRANCH   1  10
BRANCH   1  11
ATOM     11  C   LIG    1       -1.235  -2.267   0.002  0.00  0.00    +0.166 C 
BRANCH  11  12
ATOM     12  C   LIG    1       -2.648  -2.792   0.013  0.00  0.00    +0.246 C 
ATOM     13  O   LIG    1       -3.578  -2.022   0.027  0.00  0.00    -0.285 OA
BRANCH  12  14
ATOM     14  C   LIG    1       -2.897  -4.265   0.008  0.00  0.00    +0.373 C 
ATOM     15  O   LIG    1       -4.040  -4.690   0.017  0.00  0.00    -0.242 OA
BRANCH  14  16
ATOM     16  O   LIG    1       -1.956  -5.043  -0.006  0.00  0.00    -0.475 OA
ATOM     17  H   LIG    1       -1.078  -4.716  -0.013  0.00  0.00    +0.295 HD
ENDBRANCH  14  16
ENDBRANCH  12  14
ENDBRANCH  11  12
ENDBRANCH   1  11
TORSDOF 5
