REMARK  Name = ZINC20653201
REMARK                            x       y       z     vdW  Elec       q    Type
REMARK                         _______ _______ _______ _____ _____    ______ ____
ROOT
ATOM      1  C   LIG    1        4.374  -1.006   1.317  0.00  0.00    -0.043 A 
ATOM      2  C   LIG    1        5.239  -0.130   1.946  0.00  0.00    +0.007 A 
ATOM      3  C   LIG    1        5.628  -0.360   3.252  0.00  0.00    +0.046 A 
ATOM      4  C   LIG    1        5.150  -1.471   3.931  0.00  0.00    +0.121 A 
ATOM      5  C   LIG    1        4.282  -2.348   3.298  0.00  0.00    +0.046 A 
ATOM      6  C   LIG    1        3.891  -2.111   1.994  0.00  0.00    +0.007 A 
ENDROOT
BRANCH   1   7
ATOM      7  C   LIG    1        3.951  -0.753  -0.107  0.00  0.00    +0.070 C 
BRANCH   7  11
ATOM      8  C   LIG    1        0.425   1.658  -0.141  0.00  0.00    +0.000 A 
ATOM      9  C   LIG    1        1.671   2.256  -0.159  0.00  0.00    +0.000 A 
ATOM     10  C   LIG    1        2.812   1.476  -0.148  0.00  0.00    +0.004 A 
ATOM     11  C   LIG    1        2.707   0.098  -0.118  0.00  0.00    -0.043 A 
ATOM     12  C   LIG    1        1.461  -0.500  -0.099  0.00  0.00    +0.004 A 
ATOM     13  C   LIG    1        0.320   0.280  -0.111  0.00  0.00    +0.000 A 
ENDBRANCH   7  11
ENDBRANCH   1   7
BRANCH   4  14
ATOM     14  O   LIG    1        5.532  -1.700   5.215  0.00  0.00    -0.491 OA
BRANCH  14  15
ATOM     15  C   LIG    1        5.000  -2.863   5.853  0.00  0.00    +0.244 C 
BRANCH  15  16
ATOM     16  C   LIG    1        5.539  -2.952   7.282  0.00  0.00    +0.125 C 
BRANCH  16  17
ATOM     17  N   LIG    1        5.037  -1.817   8.067  0.00  0.00    -0.295 NA
ATOM     18  C   LIG    1        5.861  -1.598   9.264  0.00  0.00    +0.112 C 
ATOM     19  C   LIG    1        5.340  -0.372  10.019  0.00  0.00    +0.175 C 
ATOM     20  O   LIG    1        3.960  -0.567  10.340  0.00  0.00    -0.377 OA
ATOM     21  C   LIG    1        3.128  -0.782   9.197  0.00  0.00    +0.175 C 
ATOM     22  C   LIG    1        3.627  -2.012   8.434  0.00  0.00    +0.112 C 
ENDBRANCH  16  17
ENDBRANCH  15  16
ENDBRANCH  14  15
ENDBRANCH   4  14
TORSDOF 6
