REMARK  Name = ZINC19796087
REMARK                            x       y       z     vdW  Elec       q    Type
REMARK                         _______ _______ _______ _____ _____    ______ ____
ROOT
ATOM      1  C   LIG    1        0.257   1.415  -0.052  0.00  0.00    +0.066 C 
ATOM      2  C   LIG    1       -0.218   0.050  -0.479  0.00  0.00    +0.049 C 
ATOM      3  C   LIG    1       -1.553  -0.146  -0.687  0.00  0.00    +0.069 C 
ATOM      4  C   LIG    1       -2.001  -1.531  -1.117  0.00  0.00    +0.096 C 
ATOM      5  C   LIG    1       -0.899  -2.564  -1.272  0.00  0.00    +0.065 C 
ATOM      6  C   LIG    1        0.407  -2.146  -1.007  0.00  0.00    +0.049 C 
ATOM      7  C   LIG    1        1.536  -3.134  -1.147  0.00  0.00    +0.066 C 
ATOM      8  C   LIG    1       -1.175  -3.858  -1.658  0.00  0.00    +0.285 C 
ATOM      9  N   LIG    1        0.676  -0.913  -0.644  0.00  0.00    -0.256 NA
ENDROOT
BRANCH   4  10
ATOM     10  C   LIG    1       -2.983  -2.046  -0.097  0.00  0.00    -0.033 A 
ATOM     11  C   LIG    1       -2.668  -2.006   1.248  0.00  0.00    +0.005 A 
ATOM     12  C   LIG    1       -3.570  -2.478   2.184  0.00  0.00    +0.003 A 
ATOM     13  C   LIG    1       -4.787  -2.990   1.774  0.00  0.00    +0.032 A 
ATOM     14  C   LIG    1       -5.102  -3.029   0.428  0.00  0.00    +0.122 A 
ATOM     15  C   LIG    1       -4.202  -2.553  -0.507  0.00  0.00    +0.037 A 
BRANCH  14  16
ATOM     16  N   LIG    1       -6.405  -3.578  -0.011  0.00  0.00    +0.006 N 
ATOM     17  O   LIG    1       -7.208  -3.958   0.809  0.00  0.00    -0.130 OA
BRANCH  16  18
ATOM     18  O   LIG    1       -6.666  -3.645  -1.189  0.00  0.00    -0.396 OA
ATOM     19  H   LIG    1       -6.044  -3.350  -1.824  0.00  0.00    +0.329 HD
ENDBRANCH  16  18
ENDBRANCH  14  16
ENDBRANCH   4  10
BRANCH   3  20
ATOM     20  C   LIG    1       -2.479   0.896  -0.508  0.00  0.00    +0.338 C 
ATOM     21  O   LIG    1       -2.087   2.028  -0.286  0.00  0.00    -0.245 OA
BRANCH  20  22
ATOM     22  O   LIG    1       -3.804   0.643  -0.583  0.00  0.00    -0.460 OA
BRANCH  22  23
ATOM     23  C   LIG    1       -4.684   1.767  -0.516  0.00  0.00    +0.248 C 
BRANCH  23  24
ATOM     24  C   LIG    1       -6.134   1.279  -0.513  0.00  0.00    +0.125 C 
BRANCH  24  25
ATOM     25  N   LIG    1       -6.499   0.839   0.840  0.00  0.00    -0.298 NA
ATOM     26  C   LIG    1       -6.571   1.978   1.764  0.00  0.00    +0.105 C 
BRANCH  25  27
ATOM     27  C   LIG    1       -7.763   0.091   0.827  0.00  0.00    +0.119 C 
BRANCH  27  28
ATOM     28  C   LIG    1       -8.062  -0.415   2.215  0.00  0.00    -0.033 A 
ATOM     29  C   LIG    1       -7.489  -1.592   2.660  0.00  0.00    +0.005 A 
ATOM     30  C   LIG    1       -7.764  -2.056   3.933  0.00  0.00    +0.000 A 
ATOM     31  C   LIG    1       -8.610  -1.343   4.761  0.00  0.00    +0.000 A 
ATOM     32  C   LIG    1       -9.182  -0.166   4.316  0.00  0.00    +0.000 A 
ATOM     33  C   LIG    1       -8.905   0.301   3.045  0.00  0.00    +0.005 A 
ENDBRANCH  27  28
ENDBRANCH  25  27
ENDBRANCH  24  25
ENDBRANCH  23  24
ENDBRANCH  22  23
ENDBRANCH  20  22
ENDBRANCH   3  20
BRANCH   8  34
ATOM     34  O   LIG    1       -0.196  -4.783  -1.663  0.00  0.00    -0.467 OA
ATOM     35  C   LIG    1       -0.554  -6.104  -2.074  0.00  0.00    +0.280 C 
ENDBRANCH   8  34
BRANCH   8  36
ATOM     36  O   LIG    1       -2.425  -4.197  -2.031  0.00  0.00    -0.480 OA
ATOM     37  H   LIG    1       -3.106  -3.553  -2.028  0.00  0.00    +0.295 HD
ENDBRANCH   8  36
TORSDOF 12
