REMARK  Name = ZINC13834248
REMARK                            x       y       z     vdW  Elec       q    Type
REMARK                         _______ _______ _______ _____ _____    ______ ____
ROOT
ATOM      1  C   LIG    1        3.123   2.397   1.185  0.00  0.00    +0.051 A 
ATOM      2  C   LIG    1        3.741   2.695  -0.017  0.00  0.00    +0.021 A 
ATOM      3  C   LIG    1        3.105   2.413  -1.213  0.00  0.00    +0.174 A 
ATOM      4  F   LIG    1        3.711   2.704  -2.385  0.00  0.00    -0.201 F 
ATOM      5  C   LIG    1        1.845   1.831  -1.209  0.00  0.00    +0.197 A 
ATOM      6  C   LIG    1        1.224   1.533  -0.001  0.00  0.00    +0.197 A 
ATOM      7  C   LIG    1        1.865   1.823   1.195  0.00  0.00    +0.169 A 
ATOM      8  F   LIG    1        1.261   1.540   2.370  0.00  0.00    -0.202 F 
ENDROOT
BRANCH   5   9
ATOM      9  O   LIG    1        1.219   1.553  -2.384  0.00  0.00    -0.501 OA
ATOM     10  H   LIG    1        0.667   2.275  -2.716  0.00  0.00    +0.292 HD
ENDBRANCH   5   9
BRANCH   6  11
ATOM     11  O   LIG    1       -0.011   0.963   0.007  0.00  0.00    -0.501 OA
ATOM     12  H   LIG    1        0.002  -0.004   0.002  0.00  0.00    +0.292 HD
ENDBRANCH   6  11
BRANCH   2  13
ATOM     13  C   LIG    1        5.109   3.326  -0.023  0.00  0.00    +0.130 C 
BRANCH  13  14
ATOM     14  O   LIG    1        5.312   4.035   1.201  0.00  0.00    -0.389 OA
ATOM     15  H   LIG    1        5.258   3.480   1.991  0.00  0.00    +0.210 HD
ENDBRANCH  13  14
BRANCH  13  16
ATOM     16  C   LIG    1        6.173   2.236  -0.163  0.00  0.00    -0.050 C 
BRANCH  16  17
ATOM     17  N   LIG    1        7.505   2.866  -0.190  0.00  0.00    +0.380 N 
ATOM     18  H   LIG    1        7.568   3.488  -1.004  0.00  0.00    -0.090 HD
ATOM     19  H   LIG    1        8.228   2.152  -0.261  0.00  0.00    -0.090 HD
ATOM     20  H   LIG    1        7.651   3.412   0.657  0.00  0.00    -0.090 HD
ENDBRANCH  16  17
ENDBRANCH  13  16
ENDBRANCH   2  13
TORSDOF 6
