REMARK  Name = ZINC40861882
REMARK                            x       y       z     vdW  Elec       q    Type
REMARK                         _______ _______ _______ _____ _____    ______ ____
ROOT
ATOM      1  C   LIG    1        2.517  -4.404   6.531  0.00  0.00    +0.192 A 
ATOM      2  N   LIG    1        2.105  -4.228   7.778  0.00  0.00    -0.207 NA
ATOM      3  C   LIG    1        2.742  -4.808   8.791  0.00  0.00    +0.129 A 
ATOM      4  C   LIG    1        3.854  -5.608   8.523  0.00  0.00    +0.084 A 
ATOM      5  C   LIG    1        4.251  -5.766   7.207  0.00  0.00    +0.135 A 
ATOM      6 CL   LIG    1        5.628  -6.750   6.819  0.00  0.00    -0.062 Cl
ATOM      7  N   LIG    1        3.566  -5.162   6.246  0.00  0.00    -0.210 NA
ENDROOT
BRANCH   3   8
ATOM      8  N   LIG    1        2.308  -4.621  10.094  0.00  0.00    -0.299 N 
ATOM      9  H   LIG    1        2.826  -4.975  10.834  0.00  0.00    +0.154 HD
BRANCH   8  10
ATOM     10  C   LIG    1        1.123  -3.923  10.343  0.00  0.00    +0.032 A 
ATOM     11  C   LIG    1        0.044  -4.057   9.476  0.00  0.00    +0.024 A 
ATOM     12  C   LIG    1       -1.125  -3.369   9.720  0.00  0.00    +0.010 A 
ATOM     13  C   LIG    1       -1.226  -2.540  10.836  0.00  0.00    -0.018 A 
ATOM     14  C   LIG    1       -0.143  -2.408  11.704  0.00  0.00    +0.010 A 
ATOM     15  C   LIG    1        1.023  -3.101  11.459  0.00  0.00    +0.024 A 
BRANCH  13  16
ATOM     16  C   LIG    1       -2.484  -1.798  11.099  0.00  0.00    -0.018 A 
ATOM     17  C   LIG    1       -3.569  -1.933  10.236  0.00  0.00    +0.008 A 
ATOM     18  C   LIG    1       -4.737  -1.241  10.486  0.00  0.00    +0.001 A 
ATOM     19  C   LIG    1       -4.830  -0.415  11.591  0.00  0.00    +0.000 A 
ATOM     20  C   LIG    1       -3.756  -0.277  12.451  0.00  0.00    +0.001 A 
ATOM     21  C   LIG    1       -2.586  -0.969  12.214  0.00  0.00    +0.008 A 
ENDBRANCH  13  16
ENDBRANCH   8  10
ENDBRANCH   3   8
BRANCH   1  22
ATOM     22  S   LIG    1        1.643  -3.618   5.219  0.00  0.00    -0.071 S 
BRANCH  22  23
ATOM     23  C   LIG    1        2.535  -4.135   3.726  0.00  0.00    +0.162 C 
BRANCH  23  24
ATOM     24  C   LIG    1        2.393  -5.625   3.547  0.00  0.00    +0.318 C 
ATOM     25  O   LIG    1        3.235  -6.247   2.922  0.00  0.00    -0.250 OA
BRANCH  24  26
ATOM     26  O   LIG    1        1.435  -6.208   4.027  0.00  0.00    -0.480 OA
ATOM     27  H   LIG    1        0.788  -5.730   4.507  0.00  0.00    +0.295 HD
ENDBRANCH  24  26
ENDBRANCH  23  24
BRANCH  23  28
ATOM     28  C   LIG    1        1.951  -3.417   2.508  0.00  0.00    +0.026 C 
BRANCH  28  29
ATOM     29  C   LIG    1        2.206  -1.913   2.631  0.00  0.00    +0.002 C 
BRANCH  29  30
ATOM     30  C   LIG    1        1.622  -1.195   1.413  0.00  0.00    +0.000 C 
BRANCH  30  31
ATOM     31  C   LIG    1        1.878   0.308   1.537  0.00  0.00    -0.000 C 
BRANCH  31  33
ATOM     32  C   LIG    1        1.549   2.530   0.442  0.00  0.00    +0.004 C 
ATOM     33  C   LIG    1        1.293   1.026   0.319  0.00  0.00    -0.003 C 
ENDBRANCH  31  33
ENDBRANCH  30  31
ENDBRANCH  29  30
ENDBRANCH  28  29
ENDBRANCH  23  28
ENDBRANCH  22  23
ENDBRANCH   1  22
TORSDOF 12
