REMARK  Name = ZINC14163155
REMARK                            x       y       z     vdW  Elec       q    Type
REMARK                         _______ _______ _______ _____ _____    ______ ____
ROOT
ATOM      1  C   LIG    1       -1.979   2.442   6.002  0.00  0.00    -0.004 C 
ENDROOT
BRANCH   1   2
ATOM      2  C   LIG    1       -2.718   2.950   4.762  0.00  0.00    +0.034 C 
BRANCH   2   6
ATOM      3  C   LIG    1       -0.718   1.572   1.248  0.00  0.00    -0.047 A 
ATOM      4  C   LIG    1       -0.360   2.779   1.819  0.00  0.00    +0.004 A 
ATOM      5  C   LIG    1       -1.010   3.227   2.953  0.00  0.00    +0.004 A 
ATOM      6  C   LIG    1       -2.012   2.463   3.523  0.00  0.00    -0.047 A 
ATOM      7  C   LIG    1       -2.366   1.254   2.955  0.00  0.00    +0.004 A 
ATOM      8  C   LIG    1       -1.719   0.808   1.818  0.00  0.00    +0.004 A 
BRANCH   3   9
ATOM      9  C   LIG    1       -0.013   1.086   0.008  0.00  0.00    +0.035 C 
BRANCH   9  10
ATOM     10  C   LIG    1       -0.753   1.593  -1.232  0.00  0.00    +0.005 C 
BRANCH  10  11
ATOM     11  C   LIG    1       -0.037   1.099  -2.490  0.00  0.00    +0.000 C 
BRANCH  11  12
ATOM     12  C   LIG    1       -0.777   1.606  -3.730  0.00  0.00    +0.000 C 
BRANCH  12  13
ATOM     13  C   LIG    1       -0.060   1.113  -4.989  0.00  0.00    -0.000 C 
BRANCH  13  14
ATOM     14  C   LIG    1       -0.800   1.619  -6.228  0.00  0.00    -0.000 C 
BRANCH  14  16
ATOM     15  C   LIG    1       -0.824   1.633  -8.726  0.00  0.00    +0.004 C 
ATOM     16  C   LIG    1       -0.084   1.126  -7.487  0.00  0.00    -0.003 C 
ENDBRANCH  14  16
ENDBRANCH  13  14
ENDBRANCH  12  13
ENDBRANCH  11  12
ENDBRANCH  10  11
ENDBRANCH   9  10
ENDBRANCH   3   9
ENDBRANCH   2   6
ENDBRANCH   1   2
BRANCH   1  17
ATOM     17  C   LIG    1       -2.696   2.936   7.260  0.00  0.00    -0.023 C 
BRANCH  17  18
ATOM     18  N   LIG    1       -2.834   4.402   7.189  0.00  0.00    +0.385 N 
ATOM     19  H   LIG    1       -3.348   4.651   6.336  0.00  0.00    -0.089 HD
ATOM     20  H   LIG    1       -1.914   4.838   7.162  0.00  0.00    -0.089 HD
ATOM     21  H   LIG    1       -3.348   4.744   7.999  0.00  0.00    -0.089 HD
ENDBRANCH  17  18
BRANCH  17  22
ATOM     22  C   LIG    1       -1.890   2.535   8.497  0.00  0.00    +0.162 C 
BRANCH  22  23
ATOM     23  O   LIG    1       -2.559   2.997   9.672  0.00  0.00    -0.288 OA
BRANCH  23  24
ATOM     24  P   LIG    1       -1.992   2.750  11.159  0.00  0.00    +0.472 P 
ATOM     25  O   LIG    1       -1.766   1.302  11.367  0.00  0.00    -0.228 OA
BRANCH  24  26
ATOM     26  O   LIG    1       -0.602   3.542  11.341  0.00  0.00    -0.303 OA
ATOM     27  H   LIG    1        0.042   3.219  10.691  0.00  0.00    +0.222 HD
ENDBRANCH  24  26
BRANCH  24  28
ATOM     28  O   LIG    1       -3.061   3.286  12.237  0.00  0.00    -0.303 OA
ATOM     29  H   LIG    1       -3.898   2.809  12.127  0.00  0.00    +0.222 HD
ENDBRANCH  24  28
ENDBRANCH  23  24
ENDBRANCH  22  23
ENDBRANCH  17  22
BRANCH  17  30
ATOM     30  C   LIG    1       -4.089   2.308   7.334  0.00  0.00    +0.145 C 
BRANCH  30  31
ATOM     31  O   LIG    1       -3.968   0.885   7.382  0.00  0.00    -0.396 OA
ATOM     32  H   LIG    1       -4.814   0.419   7.430  0.00  0.00    +0.209 HD
ENDBRANCH  30  31
ENDBRANCH  17  30
ENDBRANCH   1  17
TORSDOF 18
