REMARK  Name = ZINC13806636
REMARK                            x       y       z     vdW  Elec       q    Type
REMARK                         _______ _______ _______ _____ _____    ______ ____
ROOT
ATOM      1  C   LIG    1       -5.540  -1.309   0.043  0.00  0.00    -0.096 C 
ATOM      2  N   LIG    1       -4.190  -0.708   0.034  0.00  0.00    +0.378 N 
ATOM      3  H   LIG    1       -4.281   0.315   0.038  0.00  0.00    -0.082 HD
ATOM      4  C   LIG    1       -3.442  -1.127   1.238  0.00  0.00    -0.064 C 
ATOM      5  C   LIG    1       -2.097  -0.400   1.266  0.00  0.00    +0.089 C 
ATOM      6  C   LIG    1       -1.299  -0.764   0.010  0.00  0.00    +0.029 C 
ATOM      7  C   LIG    1       -2.117  -0.392  -1.230  0.00  0.00    -0.010 C 
ATOM      8  C   LIG    1       -3.462  -1.120  -1.185  0.00  0.00    -0.079 C 
ENDROOT
BRANCH   6   9
ATOM      9  C   LIG    1        0.002  -0.004   0.002  0.00  0.00    -0.043 A 
ATOM     10  C   LIG    1       -0.017   1.390   0.010  0.00  0.00    +0.004 A 
ATOM     11  C   LIG    1        1.140   2.106   0.003  0.00  0.00    +0.009 A 
ATOM     12  C   LIG    1        2.374   1.434  -0.013  0.00  0.00    -0.018 A 
ATOM     13  C   LIG    1        3.590   2.139  -0.021  0.00  0.00    +0.008 A 
ATOM     14  C   LIG    1        4.766   1.455  -0.036  0.00  0.00    +0.001 A 
ATOM     15  C   LIG    1        4.785   0.061  -0.044  0.00  0.00    +0.001 A 
ATOM     16  C   LIG    1        3.628  -0.655  -0.037  0.00  0.00    +0.008 A 
ATOM     17  C   LIG    1        2.393   0.017  -0.021  0.00  0.00    -0.018 A 
ATOM     18  C   LIG    1        1.178  -0.689  -0.013  0.00  0.00    +0.012 A 
ENDBRANCH   6   9
BRANCH   5  19
ATOM     19  C   LIG    1       -1.324  -0.816   2.491  0.00  0.00    +0.309 C 
ATOM     20  O   LIG    1       -0.246  -1.350   2.373  0.00  0.00    -0.251 OA
BRANCH  19  21
ATOM     21  O   LIG    1       -1.833  -0.595   3.713  0.00  0.00    -0.468 OA
ATOM     22  C   LIG    1       -1.034  -1.022   4.847  0.00  0.00    +0.280 C 
ENDBRANCH  19  21
ENDBRANCH   5  19
TORSDOF 3
