REMARK  Name = ZINC72177305
REMARK                            x       y       z     vdW  Elec       q    Type
REMARK                         _______ _______ _______ _____ _____    ______ ____
ROOT
ATOM      1  C   LIG    1        4.931  -2.707   0.273  0.00  0.00    +0.156 A 
ATOM      2  C   LIG    1        5.119  -4.163   0.342  0.00  0.00    +0.033 A 
ATOM      3  C   LIG    1        4.245  -5.250   0.391  0.00  0.00    +0.012 A 
ATOM      4  C   LIG    1        4.743  -6.521   0.453  0.00  0.00    +0.001 A 
ATOM      5  C   LIG    1        6.114  -6.741   0.469  0.00  0.00    +0.002 A 
ATOM      6  C   LIG    1        6.994  -5.683   0.421  0.00  0.00    +0.028 A 
ATOM      7  C   LIG    1        6.507  -4.382   0.357  0.00  0.00    +0.079 A 
ATOM      8  N   LIG    1        7.108  -3.143   0.301  0.00  0.00    -0.195 N 
ATOM      9  C   LIG    1        8.437  -2.920   0.295  0.00  0.00    +0.279 C 
ATOM     10  O   LIG    1        9.210  -3.856   0.257  0.00  0.00    -0.265 OA
ATOM     11  N   LIG    1        6.120  -2.154   0.246  0.00  0.00    -0.158 NA
ENDROOT
BRANCH   9  12
ATOM     12  C   LIG    1        8.954  -1.537   0.336  0.00  0.00    +0.043 A 
ATOM     13  C   LIG    1        8.074  -0.456   0.239  0.00  0.00    +0.013 A 
ATOM     14  C   LIG    1        8.563   0.833   0.278  0.00  0.00    +0.002 A 
ATOM     15  C   LIG    1        9.922   1.058   0.412  0.00  0.00    +0.020 A 
ATOM     16  C   LIG    1       10.800  -0.009   0.509  0.00  0.00    +0.042 A 
ATOM     17 CL   LIG    1       12.503   0.284   0.677  0.00  0.00    -0.084 Cl
ATOM     18  C   LIG    1       10.323  -1.304   0.477  0.00  0.00    +0.033 A 
ENDBRANCH   9  12
BRANCH   1  21
ATOM     19  N   LIG    1        3.611  -0.651   0.164  0.00  0.00    -0.280 N 
ATOM     20  H   LIG    1        4.438  -0.153   0.063  0.00  0.00    +0.155 HD
ATOM     21  C   LIG    1        3.638  -1.996   0.234  0.00  0.00    +0.269 C 
ATOM     22  O   LIG    1        2.598  -2.625   0.264  0.00  0.00    -0.268 OA
BRANCH  19  26
ATOM     23  C   LIG    1       -0.023   1.373   0.387  0.00  0.00    +0.000 A 
ATOM     24  C   LIG    1        0.154   0.194   1.087  0.00  0.00    +0.002 A 
ATOM     25  C   LIG    1        1.358  -0.479   1.015  0.00  0.00    +0.023 A 
ATOM     26  C   LIG    1        2.391   0.029   0.239  0.00  0.00    +0.034 A 
ATOM     27  C   LIG    1        2.210   1.213  -0.464  0.00  0.00    +0.023 A 
ATOM     28  C   LIG    1        1.004   1.882  -0.388  0.00  0.00    +0.002 A 
ENDBRANCH  19  26
ENDBRANCH   1  21
TORSDOF 3
