REMARK  Name = ZINC13800629
REMARK                            x       y       z     vdW  Elec       q    Type
REMARK                         _______ _______ _______ _____ _____    ______ ____
ROOT
ATOM      1  N   LIG    1       -1.726  -1.018  -1.368  0.00  0.00    -0.310 N 
ATOM      2  H   LIG    1       -1.192  -0.691  -2.108  0.00  0.00    +0.149 HD
ATOM      3  C   LIG    1       -2.867  -1.694  -1.606  0.00  0.00    +0.230 C 
ATOM      4  O   LIG    1       -3.535  -2.103  -0.680  0.00  0.00    -0.274 OA
ENDROOT
BRANCH   1   5
ATOM      5  C   LIG    1       -1.293  -0.775   0.011  0.00  0.00    +0.139 C 
BRANCH   5  11
ATOM      6  C   LIG    1       -0.017   1.378   0.010  0.00  0.00    +0.007 A 
ATOM      7  C   LIG    1        1.171   2.086   0.002  0.00  0.00    +0.029 A 
ATOM      8  C   LIG    1        2.377   1.411  -0.013  0.00  0.00    +0.105 A 
ATOM      9  C   LIG    1        2.396   0.029  -0.020  0.00  0.00    +0.029 A 
ATOM     10  C   LIG    1        1.208  -0.679  -0.012  0.00  0.00    +0.007 A 
ATOM     11  C   LIG    1        0.002  -0.004   0.002  0.00  0.00    -0.030 A 
BRANCH   8  12
ATOM     12  S   LIG    1        3.891   2.312  -0.024  0.00  0.00    +0.056 S 
ATOM     13  O   LIG    1        3.597   3.593  -0.566  0.00  0.00    -0.153 OA
ATOM     14  O   LIG    1        4.872   1.453  -0.588  0.00  0.00    -0.153 OA
BRANCH  12  15
ATOM     15  N   LIG    1        4.327   2.556   1.555  0.00  0.00    -0.204 NA
ATOM     16  H   LIG    1        5.142   3.039   1.764  0.00  0.00    +0.144 HD
ATOM     17  H   LIG    1        3.768   2.215   2.271  0.00  0.00    +0.144 HD
ENDBRANCH  12  15
ENDBRANCH   8  12
ENDBRANCH   5  11
ENDBRANCH   1   5
BRANCH   3  18
ATOM     18  C   LIG    1       -3.312  -1.944  -3.024  0.00  0.00    +0.200 C 
BRANCH  18  19
ATOM     19  N   LIG    1       -4.571  -2.694  -3.016  0.00  0.00    -0.308 N 
ATOM     20  H   LIG    1       -4.979  -2.946  -2.173  0.00  0.00    +0.149 HD
ATOM     21  C   LIG    1       -5.161  -3.032  -4.179  0.00  0.00    +0.196 C 
ATOM     22  O   LIG    1       -4.651  -2.716  -5.233  0.00  0.00    -0.278 OA
BRANCH  21  23
ATOM     23  C   LIG    1       -6.456  -3.803  -4.170  0.00  0.00    +0.011 C 
BRANCH  23  24
ATOM     24  N   LIG    1       -6.891  -4.047  -5.552  0.00  0.00    +0.384 N 
ATOM     25  H   LIG    1       -7.757  -4.563  -5.546  0.00  0.00    -0.089 HD
ATOM     26  H   LIG    1       -6.185  -4.580  -6.038  0.00  0.00    -0.089 HD
ATOM     27  H   LIG    1       -7.028  -3.164  -6.022  0.00  0.00    -0.089 HD
ENDBRANCH  23  24
ENDBRANCH  21  23
ENDBRANCH  18  19
ENDBRANCH   3  18
TORSDOF 8
