REMARK  Name = ZINC00020226
REMARK                            x       y       z     vdW  Elec       q    Type
REMARK                         _______ _______ _______ _____ _____    ______ ____
ROOT
ATOM      1  C   LIG    1        0.620  -0.432  -1.304  0.00  0.00    +0.220 C 
ATOM      2  N   LIG    1        0.102   0.004  -2.470  0.00  0.00    -0.288 N 
ATOM      3  C   LIG    1       -0.990   0.983  -2.611  0.00  0.00    +0.109 C 
ATOM      4  C   LIG    1       -0.794   1.595  -4.021  0.00  0.00    +0.021 C 
ATOM      5  C   LIG    1       -0.320   0.360  -4.833  0.00  0.00    +0.035 C 
ATOM      6  C   LIG    1        0.537  -0.415  -3.810  0.00  0.00    +0.184 C 
ATOM      7  O   LIG    1        1.584  -1.168  -1.306  0.00  0.00    -0.275 OA
ENDROOT
BRANCH   1   9
ATOM      8  C   LIG    1        0.737   1.226   0.536  0.00  0.00    +0.018 C 
ATOM      9  C   LIG    1        0.001  -0.005   0.002  0.00  0.00    +0.082 C 
BRANCH   9  10
ATOM     10  C   LIG    1        0.113  -1.145   1.016  0.00  0.00    +0.078 C 
BRANCH  10  11
ATOM     11  S   LIG    1       -0.761  -0.688   2.539  0.00  0.00    -0.178 S 
ATOM     12  H   LIG    1       -0.595  -1.753   3.342  0.00  0.00    +0.102 HD
ENDBRANCH  10  11
ENDBRANCH   9  10
ENDBRANCH   1   9
BRANCH   6  13
ATOM     13  C   LIG    1        0.319  -1.896  -3.981  0.00  0.00    +0.325 C 
ATOM     14  O   LIG    1       -0.590  -2.451  -3.387  0.00  0.00    -0.249 OA
BRANCH  13  15
ATOM     15  O   LIG    1        1.052  -2.540  -4.713  0.00  0.00    -0.479 OA
ATOM     16  H   LIG    1        1.750  -2.114  -5.169  0.00  0.00    +0.295 HD
ENDBRANCH  13  15
ENDBRANCH   6  13
TORSDOF 5
