REMARK  Name = ZINC19227928
REMARK                            x       y       z     vdW  Elec       q    Type
REMARK                         _______ _______ _______ _____ _____    ______ ____
ROOT
ATOM      1  C   LIG    1        0.209   1.497   0.119  0.00  0.00    +0.061 C 
ATOM      2  C   LIG    1        0.113  -0.006   0.057  0.00  0.00    +0.016 C 
ATOM      3  C   LIG    1       -1.091  -0.599   0.143  0.00  0.00    +0.065 C 
ATOM      4  C   LIG    1       -1.233  -2.093   0.095  0.00  0.00    +0.096 C 
ATOM      5  C   LIG    1        0.019  -2.730  -0.439  0.00  0.00    +0.065 C 
ATOM      6  C   LIG    1        1.178  -2.052  -0.502  0.00  0.00    +0.016 C 
ATOM      7  C   LIG    1        2.411  -2.734  -1.037  0.00  0.00    +0.061 C 
ATOM      8  N   LIG    1        1.251  -0.750  -0.092  0.00  0.00    -0.321 N 
ATOM      9  H   LIG    1        2.116  -0.353   0.097  0.00  0.00    +0.152 HD
ENDROOT
BRANCH   4  10
ATOM     10  C   LIG    1       -1.499  -2.612   1.485  0.00  0.00    -0.033 A 
ATOM     11  C   LIG    1       -0.581  -2.388   2.494  0.00  0.00    +0.005 A 
ATOM     12  C   LIG    1       -0.825  -2.864   3.768  0.00  0.00    +0.003 A 
ATOM     13  C   LIG    1       -1.988  -3.563   4.034  0.00  0.00    +0.032 A 
ATOM     14  C   LIG    1       -2.906  -3.786   3.026  0.00  0.00    +0.122 A 
ATOM     15  C   LIG    1       -2.664  -3.306   1.752  0.00  0.00    +0.037 A 
BRANCH  14  16
ATOM     16  N   LIG    1       -4.151  -4.535   3.311  0.00  0.00    +0.006 N 
ATOM     17  O   LIG    1       -4.364  -4.951   4.425  0.00  0.00    -0.130 OA
BRANCH  16  18
ATOM     18  O   LIG    1       -4.954  -4.730   2.429  0.00  0.00    -0.396 OA
ATOM     19  H   LIG    1       -4.789  -4.407   1.565  0.00  0.00    +0.329 HD
ENDBRANCH  16  18
ENDBRANCH  14  16
ENDBRANCH   4  10
BRANCH   3  20
ATOM     20  C   LIG    1       -2.248   0.203   0.284  0.00  0.00    +0.337 C 
ATOM     21  O   LIG    1       -2.147   1.415   0.325  0.00  0.00    -0.245 OA
BRANCH  20  22
ATOM     22  O   LIG    1       -3.463  -0.377   0.372  0.00  0.00    -0.465 OA
ATOM     23  C   LIG    1       -4.588   0.492   0.512  0.00  0.00    +0.280 C 
ENDBRANCH  20  22
ENDBRANCH   3  20
BRANCH   5  24
ATOM     24  C   LIG    1       -0.024  -4.071  -0.885  0.00  0.00    +0.337 C 
ATOM     25  O   LIG    1       -0.452  -4.331  -1.994  0.00  0.00    -0.245 OA
BRANCH  24  26
ATOM     26  O   LIG    1        0.412  -5.064  -0.081  0.00  0.00    -0.465 OA
ATOM     27  C   LIG    1        0.340  -6.395  -0.595  0.00  0.00    +0.280 C 
ENDBRANCH  24  26
ENDBRANCH   5  24
TORSDOF 7
