REMARK  Name = ZINC13981528
REMARK                            x       y       z     vdW  Elec       q    Type
REMARK                         _______ _______ _______ _____ _____    ______ ____
ROOT
ATOM      1  C   LIG    1        2.290   1.408  -0.012  0.00  0.00    +0.166 A 
ATOM      2  N   LIG    1        2.345   0.081  -0.020  0.00  0.00    -0.230 NA
ATOM      3  C   LIG    1        1.244  -0.648  -0.013  0.00  0.00    +0.066 A 
ATOM      4  C   LIG    1        0.002  -0.004   0.002  0.00  0.00    +0.113 A 
ATOM      5  C   LIG    1       -0.017   1.408   0.010  0.00  0.00    +0.138 A 
ATOM      6  N   LIG    1        1.137   2.063   0.002  0.00  0.00    -0.212 NA
ENDROOT
BRANCH   3   7
ATOM      7  C   LIG    1        1.324  -2.153  -0.023  0.00  0.00    +0.022 C 
ATOM      8  C   LIG    1        2.064  -2.618  -1.280  0.00  0.00    +0.006 C 
ATOM      9  C   LIG    1        2.194  -4.143  -1.252  0.00  0.00    -0.018 C 
ATOM     10  C   LIG    1        2.928  -4.564   0.024  0.00  0.00    -0.083 C 
ATOM     11  N   LIG    1        2.175  -4.104   1.206  0.00  0.00    +0.379 N 
ATOM     12  H   LIG    1        1.229  -4.502   1.180  0.00  0.00    -0.086 HD
ATOM     13  H   LIG    1        2.655  -4.420   2.057  0.00  0.00    -0.086 HD
ATOM     14  C   LIG    1        2.083  -2.632   1.217  0.00  0.00    -0.073 C 
ENDBRANCH   3   7
BRANCH   1  18
ATOM     15  C   LIG    1        5.921   3.628  -0.035  0.00  0.00    +0.049 A 
ATOM     16  C   LIG    1        4.710   4.293  -0.020  0.00  0.00    +0.050 A 
ATOM     17  C   LIG    1        3.523   3.578  -0.012  0.00  0.00    +0.128 A 
ATOM     18  C   LIG    1        3.553   2.179  -0.020  0.00  0.00    +0.064 A 
ATOM     19  C   LIG    1        4.779   1.514  -0.030  0.00  0.00    +0.060 A 
ATOM     20  C   LIG    1        5.957   2.240  -0.042  0.00  0.00    +0.118 A 
BRANCH  17  21
ATOM     21  O   LIG    1        2.333   4.233   0.002  0.00  0.00    -0.506 OA
ATOM     22  H   LIG    1        1.997   4.418   0.890  0.00  0.00    +0.292 HD
ENDBRANCH  17  21
BRANCH  20  23
ATOM     23  O   LIG    1        7.153   1.593  -0.057  0.00  0.00    -0.507 OA
ATOM     24  H   LIG    1        7.507   1.401   0.822  0.00  0.00    +0.292 HD
ENDBRANCH  20  23
ENDBRANCH   1  18
BRANCH   5  25
ATOM     25  N   LIG    1       -1.215   2.094   0.019  0.00  0.00    -0.342 N 
ATOM     26  H   LIG    1       -1.218   3.064   0.025  0.00  0.00    +0.144 HD
ATOM     27  H   LIG    1       -2.053   1.606   0.021  0.00  0.00    +0.144 HD
ENDBRANCH   5  25
BRANCH   4  28
ATOM     28  C   LIG    1       -1.216  -0.756   0.010  0.00  0.00    +0.104 C 
ATOM     29  N   LIG    1       -2.183  -1.353   0.017  0.00  0.00    -0.191 NA
ENDBRANCH   4  28
TORSDOF 6
