REMARK  Name = ZINC38816494
REMARK                            x       y       z     vdW  Elec       q    Type
REMARK                         _______ _______ _______ _____ _____    ______ ____
ROOT
ATOM      1  C   LIG    1       -2.552  -4.129   0.004  0.00  0.00    +0.154 A 
ATOM      2  C   LIG    1       -3.722  -5.009   0.005  0.00  0.00    +0.042 A 
ATOM      3  C   LIG    1       -5.102  -4.787   0.013  0.00  0.00    +0.014 A 
ATOM      4  C   LIG    1       -5.960  -5.849   0.011  0.00  0.00    +0.016 A 
ATOM      5  C   LIG    1       -5.473  -7.152   0.002  0.00  0.00    +0.020 A 
ATOM      6 BR   LIG    1       -6.686  -8.603   0.000  0.00  0.00    -0.050 Br
ATOM      7  C   LIG    1       -4.119  -7.395  -0.005  0.00  0.00    +0.043 A 
ATOM      8  C   LIG    1       -3.225  -6.326  -0.005  0.00  0.00    +0.069 A 
ATOM      9  N   LIG    1       -1.857  -6.235  -0.010  0.00  0.00    -0.275 N 
ATOM     10  H   LIG    1       -1.244  -6.986  -0.017  0.00  0.00    +0.189 HD
ATOM     11  N   LIG    1       -1.487  -4.886  -0.010  0.00  0.00    -0.157 NA
ENDROOT
BRANCH   1  13
ATOM     12  C   LIG    1       -1.413  -2.041   0.005  0.00  0.00    +0.218 C 
ATOM     13  N   LIG    1       -2.571  -2.730   0.012  0.00  0.00    -0.268 N 
ATOM     14  H   LIG    1       -3.417  -2.257   0.023  0.00  0.00    +0.156 HD
ATOM     15  O   LIG    1       -0.354  -2.633  -0.009  0.00  0.00    -0.275 OA
BRANCH  12  16
ATOM     16  C   LIG    1       -1.433  -0.534   0.013  0.00  0.00    +0.096 C 
BRANCH  16  18
ATOM     17  C   LIG    1       -0.019   1.526   0.010  0.00  0.00    +0.004 C 
ATOM     18  C   LIG    1        0.002  -0.004   0.002  0.00  0.00    +0.006 C 
ENDBRANCH  16  18
ENDBRANCH  12  16
ENDBRANCH   1  13
TORSDOF 3
