REMARK  Name = ZINC43013490
REMARK                            x       y       z     vdW  Elec       q    Type
REMARK                         _______ _______ _______ _____ _____    ______ ____
ROOT
ATOM      1  C   LIG    1        2.790  -4.647  -5.593  0.00  0.00    +0.164 A 
ATOM      2  N   LIG    1        3.349  -3.937  -6.559  0.00  0.00    -0.208 NA
ATOM      3  C   LIG    1        3.864  -4.535  -7.630  0.00  0.00    +0.164 A 
ATOM      4  C   LIG    1        3.805  -5.941  -7.720  0.00  0.00    +0.078 A 
ATOM      5  C   LIG    1        3.200  -6.655  -6.667  0.00  0.00    +0.136 A 
ATOM      6  C   LIG    1        4.415  -6.302  -8.940  0.00  0.00    +0.148 A 
ATOM      7  N   LIG    1        4.812  -5.217  -9.541  0.00  0.00    -0.177 NA
ATOM      8  N   LIG    1        4.488  -4.099  -8.761  0.00  0.00    -0.243 N 
ATOM      9  N   LIG    1        2.717  -5.975  -5.635  0.00  0.00    -0.212 NA
ENDROOT
BRANCH   8  10
ATOM     10  C   LIG    1        4.772  -2.703  -9.102  0.00  0.00    +0.112 C 
ATOM     11  C   LIG    1        4.071  -2.346 -10.415  0.00  0.00    +0.046 C 
ATOM     12  C   LIG    1        4.341  -0.876 -10.751  0.00  0.00    +0.113 C 
ATOM     13  N   LIG    1        5.793  -0.653 -10.762  0.00  0.00    -0.267 N 
ATOM     14  C   LIG    1        6.394  -0.099 -11.833  0.00  0.00    +0.403 C 
ATOM     15  O   LIG    1        5.735   0.221 -12.802  0.00  0.00    -0.226 OA
ATOM     16  C   LIG    1        6.577  -1.045  -9.583  0.00  0.00    +0.113 C 
ATOM     17  C   LIG    1        6.282  -2.513  -9.261  0.00  0.00    +0.046 C 
BRANCH  14  18
ATOM     18  O   LIG    1        7.726   0.100 -11.830  0.00  0.00    -0.454 OA
ATOM     19  C   LIG    1        8.296   0.691 -12.999  0.00  0.00    +0.282 C 
ENDBRANCH  14  18
ENDBRANCH   8  10
BRANCH   1  23
ATOM     20  C   LIG    1        1.181  -2.614  -2.223  0.00  0.00    +0.036 A 
ATOM     21  C   LIG    1        1.769  -1.891  -3.254  0.00  0.00    +0.024 A 
ATOM     22  C   LIG    1        2.292  -2.547  -4.347  0.00  0.00    +0.013 A 
ATOM     23  C   LIG    1        2.229  -3.939  -4.418  0.00  0.00    +0.019 A 
ATOM     24  C   LIG    1        1.639  -4.663  -3.382  0.00  0.00    +0.013 A 
ATOM     25  C   LIG    1        1.123  -4.002  -2.289  0.00  0.00    +0.024 A 
BRANCH  20  27
ATOM     26  C   LIG    1        0.056  -0.748  -1.273  0.00  0.00    +0.404 C 
ATOM     27  N   LIG    1        0.651  -1.946  -1.116  0.00  0.00    -0.251 N 
ATOM     28  H   LIG    1        0.713  -2.345  -0.234  0.00  0.00    +0.158 HD
ATOM     29  O   LIG    1        0.052  -0.210  -2.363  0.00  0.00    -0.226 OA
BRANCH  26  31
ATOM     30  C   LIG    1       -1.148   1.122  -0.463  0.00  0.00    +0.282 C 
ATOM     31  O   LIG    1       -0.536  -0.147  -0.224  0.00  0.00    -0.453 OA
ENDBRANCH  26  31
ENDBRANCH  20  27
ENDBRANCH   1  23
BRANCH   5  32
ATOM     32  N   LIG    1        3.115  -8.033  -6.705  0.00  0.00    -0.310 N 
ATOM     33  C   LIG    1        4.126  -8.873  -6.043  0.00  0.00    +0.134 C 
ATOM     34  C   LIG    1        3.402  -9.897  -5.161  0.00  0.00    +0.178 C 
ATOM     35  O   LIG    1        2.422 -10.582  -5.944  0.00  0.00    -0.377 OA
ATOM     36  C   LIG    1        1.391  -9.738  -6.461  0.00  0.00    +0.178 C 
ATOM     37  C   LIG    1        2.009  -8.706  -7.405  0.00  0.00    +0.134 C 
ENDBRANCH   5  32
TORSDOF 6
