REMARK  Name = ZINC13759798
REMARK                            x       y       z     vdW  Elec       q    Type
REMARK                         _______ _______ _______ _____ _____    ______ ____
ROOT
ATOM      1  C   LIG    1        3.203   2.021  -3.682  0.00  0.00    -0.067 C 
ATOM      2  C   LIG    1        1.687   2.249  -3.669  0.00  0.00    -0.011 C 
ATOM      3  C   LIG    1        1.097   1.491  -2.481  0.00  0.00    +0.037 C 
ATOM      4  C   LIG    1        1.840   1.829  -1.215  0.00  0.00    -0.003 A 
ATOM      5  C   LIG    1        3.089   2.407  -1.221  0.00  0.00    -0.042 A 
ATOM      6  C   LIG    1        3.724   2.685  -0.017  0.00  0.00    +0.004 A 
ATOM      7  C   LIG    1        3.114   2.392   1.185  0.00  0.00    +0.004 A 
ATOM      8  C   LIG    1        1.857   1.819   1.196  0.00  0.00    +0.046 A 
ATOM      9  C   LIG    1        1.223   1.532  -0.001  0.00  0.00    +0.120 A 
ATOM     10  C   LIG    1        3.811   2.763  -2.494  0.00  0.00    +0.020 C 
ENDROOT
BRANCH   1  11
ATOM     11  N   LIG    1        3.766   2.550  -4.939  0.00  0.00    +0.381 N 
ATOM     12  H   LIG    1        3.947   3.555  -4.833  0.00  0.00    -0.086 HD
ATOM     13  H   LIG    1        3.092   2.402  -5.700  0.00  0.00    -0.086 HD
BRANCH  11  14
ATOM     14  C   LIG    1        5.027   1.859  -5.266  0.00  0.00    -0.082 C 
BRANCH  14  16
ATOM     15  C   LIG    1        6.896   1.715  -6.918  0.00  0.00    +0.002 C 
ATOM     16  C   LIG    1        5.587   2.427  -6.572  0.00  0.00    -0.022 C 
ENDBRANCH  14  16
ENDBRANCH  11  14
ENDBRANCH   1  11
BRANCH   9  17
ATOM     17  O   LIG    1       -0.011   0.963   0.007  0.00  0.00    -0.506 OA
ATOM     18  H   LIG    1        0.002  -0.004   0.002  0.00  0.00    +0.292 HD
ENDBRANCH   9  17
TORSDOF 4
