REMARK  Name = ZINC19362650
REMARK                            x       y       z     vdW  Elec       q    Type
REMARK                         _______ _______ _______ _____ _____    ______ ____
ROOT
ATOM      1  C   LIG    1       -0.568  -4.068   1.006  0.00  0.00    +0.092 C 
ATOM      2  C   LIG    1        0.333  -4.524   2.107  0.00  0.00    +0.060 C 
ATOM      3  C   LIG    1        0.705  -5.966   1.989  0.00  0.00    -0.032 A 
ATOM      4  C   LIG    1        1.962  -6.308   1.506  0.00  0.00    +0.005 A 
ATOM      5  C   LIG    1        2.300  -7.640   1.361  0.00  0.00    +0.000 A 
ATOM      6  C   LIG    1        1.396  -8.634   1.689  0.00  0.00    +0.001 A 
ATOM      7  C   LIG    1        0.149  -8.294   2.182  0.00  0.00    +0.015 A 
ATOM      8  C   LIG    1       -0.171  -6.950   2.341  0.00  0.00    +0.016 A 
ATOM      9  S   LIG    1       -1.708  -6.479   3.052  0.00  0.00    -0.089 S 
ATOM     10  C   LIG    1       -2.549  -5.538   1.830  0.00  0.00    +0.017 A 
ATOM     11  C   LIG    1       -3.911  -5.852   1.671  0.00  0.00    +0.016 A 
ATOM     12  C   LIG    1       -4.709  -5.188   0.777  0.00  0.00    +0.016 A 
ATOM     13  C   LIG    1       -4.155  -4.172   0.007  0.00  0.00    +0.008 A 
ATOM     14  C   LIG    1       -2.818  -3.870   0.152  0.00  0.00    +0.021 A 
ATOM     15  C   LIG    1       -1.990  -4.553   1.055  0.00  0.00    -0.015 A 
ENDROOT
BRANCH   1  20
ATOM     16  C   LIG    1        0.160   1.457   1.930  0.00  0.00    +0.105 C 
ATOM     17  N   LIG    1        0.180  -0.012   1.922  0.00  0.00    -0.303 NA
ATOM     18  C   LIG    1        0.655  -0.525   0.629  0.00  0.00    +0.099 C 
ATOM     19  C   LIG    1        0.737  -2.053   0.689  0.00  0.00    +0.100 C 
ATOM     20  N   LIG    1       -0.588  -2.599   1.014  0.00  0.00    -0.293 NA
ATOM     21  C   LIG    1       -1.064  -2.086   2.306  0.00  0.00    +0.100 C 
ATOM     22  C   LIG    1       -1.145  -0.559   2.247  0.00  0.00    +0.099 C 
ENDBRANCH   1  20
BRANCH  13  23
ATOM     23  S   LIG    1       -5.151  -3.281  -1.141  0.00  0.00    -0.129 S 
ATOM     24  C   LIG    1       -6.795  -4.028  -0.968  0.00  0.00    +0.090 C 
ENDBRANCH  13  23
TORSDOF 2
