REMARK  Name = ZINC14727558
REMARK                            x       y       z     vdW  Elec       q    Type
REMARK                         _______ _______ _______ _____ _____    ______ ____
ROOT
ATOM      1  C   LIG    1       -1.021  -2.020   2.825  0.00  0.00    +0.041 A 
ATOM      2  C   LIG    1       -2.404  -2.051   2.731  0.00  0.00    +0.127 A 
ATOM      3  C   LIG    1       -3.162  -2.743   3.669  0.00  0.00    +0.092 A 
ATOM      4  C   LIG    1       -2.541  -3.410   4.709  0.00  0.00    +0.135 A 
ATOM      5  C   LIG    1       -1.145  -3.383   4.809  0.00  0.00    +0.106 A 
ATOM      6  C   LIG    1       -0.443  -4.079   5.902  0.00  0.00    +0.200 A 
ATOM      7  O   LIG    1       -1.056  -4.701   6.754  0.00  0.00    -0.287 OA
ATOM      8  C   LIG    1        0.969  -4.011   5.915  0.00  0.00    +0.047 A 
ATOM      9  C   LIG    1        1.617  -3.305   4.948  0.00  0.00    +0.146 A 
ATOM     10  O   LIG    1        0.965  -2.670   3.960  0.00  0.00    -0.454 OA
ATOM     11  C   LIG    1       -0.381  -2.687   3.857  0.00  0.00    +0.150 A 
ENDROOT
BRANCH   9  12
ATOM     12  C   LIG    1        3.087  -3.235   4.986  0.00  0.00    +0.059 A 
ATOM     13  C   LIG    1        3.726  -2.018   5.243  0.00  0.00    +0.019 A 
ATOM     14  C   LIG    1        5.101  -1.958   5.278  0.00  0.00    +0.046 A 
ATOM     15  C   LIG    1        5.858  -3.104   5.059  0.00  0.00    +0.120 A 
ATOM     16  C   LIG    1        5.235  -4.316   4.803  0.00  0.00    +0.091 A 
ATOM     17  C   LIG    1        3.853  -4.391   4.771  0.00  0.00    +0.131 A 
BRANCH  15  18
ATOM     18  O   LIG    1        7.214  -3.035   5.094  0.00  0.00    -0.507 OA
ATOM     19  H   LIG    1        7.592  -3.190   5.971  0.00  0.00    +0.292 HD
ENDBRANCH  15  18
BRANCH  17  20
ATOM     20  O   LIG    1        3.241  -5.578   4.526  0.00  0.00    -0.506 OA
ATOM     21  H   LIG    1        3.147  -5.785   3.586  0.00  0.00    +0.292 HD
ENDBRANCH  17  20
ENDBRANCH   9  12
BRANCH   2  22
ATOM     22  O   LIG    1       -3.024  -1.400   1.714  0.00  0.00    -0.506 OA
ATOM     23  H   LIG    1       -3.153  -1.940   0.922  0.00  0.00    +0.292 HD
ENDBRANCH   2  22
BRANCH   4  24
ATOM     24  O   LIG    1       -3.280  -4.085   5.626  0.00  0.00    -0.506 OA
ATOM     25  H   LIG    1       -3.444  -5.010   5.395  0.00  0.00    +0.292 HD
ENDBRANCH   4  24
BRANCH   1  26
ATOM     26  C   LIG    1       -0.214  -1.265   1.800  0.00  0.00    +0.069 C 
BRANCH  26  30
ATOM     27  C   LIG    1       -0.852  -0.528  -0.846  0.00  0.00    +0.038 C 
ATOM     28  C   LIG    1       -0.217  -1.866  -0.566  0.00  0.00    -0.079 C 
ATOM     29  C   LIG    1        0.018  -2.839  -1.693  0.00  0.00    +0.038 C 
ATOM     30  C   LIG    1        0.131  -2.184   0.656  0.00  0.00    -0.023 C 
ENDBRANCH  26  30
ENDBRANCH   1  26
BRANCH   8  31
ATOM     31  C   LIG    1        1.751  -4.705   7.000  0.00  0.00    +0.070 C 
BRANCH  31  32
ATOM     32  C   LIG    1        1.807  -3.823   8.222  0.00  0.00    -0.023 C 
ATOM     33  C   LIG    1        1.317  -4.249   9.360  0.00  0.00    -0.079 C 
ATOM     34  C   LIG    1        1.389  -3.374  10.585  0.00  0.00    +0.038 C 
ATOM     35  C   LIG    1        0.683  -5.613   9.444  0.00  0.00    +0.038 C 
ENDBRANCH  31  32
ENDBRANCH   8  31
TORSDOF 9
