REMARK  Name = ZINC53230618
REMARK                            x       y       z     vdW  Elec       q    Type
REMARK                         _______ _______ _______ _____ _____    ______ ____
ROOT
ATOM      1  N   ALA A  1       -2.771  -3.878   0.012  0.00  0.00    -0.294 NA
ATOM      2  H   ALA A  1       -1.999  -4.179   0.588  0.00  0.00    +0.123 HD
ENDROOT
BRANCH   1   3
ATOM      3  CA  ALA A  1       -2.642  -4.399  -1.356  0.00  0.00    +0.138 C 
ATOM      4  CB  ALA A  1       -4.032  -4.575  -1.968  0.00  0.00    +0.034 C 
BRANCH   3   5
ATOM      5  C   ALA A  1       -1.936  -5.730  -1.322  0.00  0.00    +0.233 C 
ATOM      6  N   PRO A  2       -1.254  -6.159  -2.403  0.00  0.00    -0.287 N 
ATOM      7  CD  PRO A  2       -1.030  -5.388  -3.639  0.00  0.00    +0.109 C 
ATOM      8  CG  PRO A  2       -0.785  -6.456  -4.734  0.00  0.00    +0.021 C 
ATOM      9  CB  PRO A  2        0.021  -7.526  -3.951  0.00  0.00    +0.035 C 
ATOM     10  CA  PRO A  2       -0.607  -7.472  -2.542  0.00  0.00    +0.184 C 
ATOM     11  O   ALA A  1       -1.980  -6.415  -0.322  0.00  0.00    -0.274 OA
BRANCH  10  12
ATOM     12  C   PRO A  2        0.465  -7.628  -1.494  0.00  0.00    +0.325 C 
ATOM     13  O   PRO A  2        0.995  -8.712  -1.322  0.00  0.00    -0.249 OA
BRANCH  12  14
ATOM     14  OXT PRO A  2        0.802  -6.670  -0.819  0.00  0.00    -0.479 OA
ATOM     15  HXT PRO A  2        0.394  -5.837  -0.952  0.00  0.00    +0.295 HD
ENDBRANCH  12  14
ENDBRANCH  10  12
ENDBRANCH   3   5
ENDBRANCH   1   3
BRANCH   1  16
ATOM     16  C   UNK A  0       -2.885  -2.414   0.009  0.00  0.00    +0.164 C 
BRANCH  16  17
ATOM     17  C   UNK A  0       -1.508  -1.802  -0.025  0.00  0.00    +0.324 C 
ATOM     18  O   UNK A  0       -0.532  -2.513  -0.044  0.00  0.00    -0.249 OA
BRANCH  17  19
ATOM     19  O   UNK A  0       -1.367  -0.467  -0.033  0.00  0.00    -0.464 OA
BRANCH  19  21
ATOM     20  C   UNK A  0       -0.072   1.573  -0.070  0.00  0.00    +0.048 C 
ATOM     21  C   UNK A  0       -0.033   0.044  -0.065  0.00  0.00    +0.229 C 
ENDBRANCH  19  21
ENDBRANCH  17  19
ENDBRANCH  16  17
BRANCH  16  22
ATOM     22  C   UNK A  0       -3.616  -1.957   1.273  0.00  0.00    +0.035 C 
BRANCH  22  23
ATOM     23  C   UNK A  0       -5.055  -2.476   1.247  0.00  0.00    +0.037 C 
BRANCH  23  24
ATOM     24  C   UNK A  0       -5.774  -2.026   2.492  0.00  0.00    -0.047 A 
ATOM     25  C   UNK A  0       -5.750  -2.814   3.627  0.00  0.00    +0.003 A 
ATOM     26  C   UNK A  0       -6.410  -2.402   4.770  0.00  0.00    +0.000 A 
ATOM     27  C   UNK A  0       -7.093  -1.200   4.777  0.00  0.00    +0.000 A 
ATOM     28  C   UNK A  0       -7.117  -0.411   3.642  0.00  0.00    +0.000 A 
ATOM     29  C   UNK A  0       -6.453  -0.822   2.501  0.00  0.00    +0.003 A 
ENDBRANCH  23  24
ENDBRANCH  22  23
ENDBRANCH  16  22
ENDBRANCH   1  16
TORSDOF 11
