REMARK  Name = ZINC38204050
REMARK                            x       y       z     vdW  Elec       q    Type
REMARK                         _______ _______ _______ _____ _____    ______ ____
ROOT
ATOM      1  C   LIG    1        3.515  -1.994   0.064  0.00  0.00    +0.128 A 
ATOM      2  C   LIG    1        2.272  -2.573   0.294  0.00  0.00    +0.047 A 
ATOM      3  C   LIG    1        2.119  -3.938   0.210  0.00  0.00    +0.011 A 
ATOM      4  C   LIG    1        3.219  -4.745  -0.109  0.00  0.00    -0.024 A 
ATOM      5  C   LIG    1        4.470  -4.156  -0.341  0.00  0.00    +0.011 A 
ATOM      6  C   LIG    1        4.610  -2.790  -0.259  0.00  0.00    +0.047 A 
ENDROOT
BRANCH   4   7
ATOM      7  C   LIG    1        3.063  -6.200  -0.200  0.00  0.00    +0.028 C 
ATOM      8  C   LIG    1        4.084  -6.967  -0.676  0.00  0.00    +0.074 C 
ATOM      9  C   LIG    1        4.210  -8.389  -0.727  0.00  0.00    +0.217 C 
ATOM     10  N   LIG    1        5.291  -8.892  -1.233  0.00  0.00    -0.165 NA
ATOM     11  C   LIG    1        6.281  -8.114  -1.703  0.00  0.00    +0.139 C 
ATOM     12  S   LIG    1        7.773  -8.576  -2.403  0.00  0.00    -0.026 S 
ATOM     13  S   LIG    1        5.635  -6.472  -1.417  0.00  0.00    -0.060 S 
BRANCH   9  14
ATOM     14  O   LIG    1        3.226  -9.189  -0.260  0.00  0.00    -0.493 OA
ATOM     15  H   LIG    1        2.449  -8.813   0.104  0.00  0.00    +0.294 HD
ENDBRANCH   9  14
ENDBRANCH   4   7
BRANCH   1  16
ATOM     16  O   LIG    1        3.660  -0.647   0.148  0.00  0.00    -0.456 OA
BRANCH  16  20
ATOM     17  C   LIG    1        3.649   1.525  -3.359  0.00  0.00    +0.000 A 
ATOM     18  C   LIG    1        3.556   0.146  -3.401  0.00  0.00    +0.004 A 
ATOM     19  C   LIG    1        3.560  -0.584  -2.228  0.00  0.00    +0.046 A 
ATOM     20  C   LIG    1        3.657   0.068  -1.007  0.00  0.00    +0.128 A 
ATOM     21  C   LIG    1        3.750   1.452  -0.968  0.00  0.00    +0.046 A 
ATOM     22  C   LIG    1        3.746   2.177  -2.143  0.00  0.00    +0.004 A 
ENDBRANCH  16  20
ENDBRANCH   1  16
TORSDOF 4
