REMARK  Name = ZINC19370042
REMARK                            x       y       z     vdW  Elec       q    Type
REMARK                         _______ _______ _______ _____ _____    ______ ____
ROOT
ATOM      1  C   LIG    1        3.711  -0.707  -0.038  0.00  0.00    +0.115 C 
ATOM      2  C   LIG    1        4.045  -1.164   1.359  0.00  0.00    -0.023 A 
ATOM      3  C   LIG    1        3.818  -0.289   2.411  0.00  0.00    +0.006 A 
ATOM      4  C   LIG    1        4.113  -0.664   3.706  0.00  0.00    +0.000 A 
ATOM      5  C   LIG    1        4.638  -1.919   3.957  0.00  0.00    +0.000 A 
ATOM      6  C   LIG    1        4.862  -2.791   2.911  0.00  0.00    +0.004 A 
ATOM      7  C   LIG    1        4.564  -2.415   1.610  0.00  0.00    -0.041 A 
ATOM      8  C   LIG    1        4.816  -3.405   0.501  0.00  0.00    +0.050 C 
ATOM      9  C   LIG    1        4.823  -2.686  -0.849  0.00  0.00    +0.086 C 
ATOM     10  N   LIG    1        3.610  -1.859  -0.940  0.00  0.00    -0.305 NA
ATOM     11  H   LIG    1        2.784  -2.402  -0.741  0.00  0.00    +0.123 HD
ENDROOT
BRANCH   1  15
ATOM     12  C   LIG    1       -0.017   1.378   0.010  0.00  0.00    +0.000 A 
ATOM     13  C   LIG    1        1.171   2.086   0.002  0.00  0.00    +0.000 A 
ATOM     14  C   LIG    1        2.377   1.411  -0.013  0.00  0.00    +0.005 A 
ATOM     15  C   LIG    1        2.396   0.029  -0.020  0.00  0.00    -0.026 A 
ATOM     16  C   LIG    1        1.208  -0.679  -0.012  0.00  0.00    +0.005 A 
ATOM     17  C   LIG    1        0.002  -0.004   0.002  0.00  0.00    +0.000 A 
ENDBRANCH   1  15
TORSDOF 1
