REMARK  Name = ZINC49087983
REMARK                            x       y       z     vdW  Elec       q    Type
REMARK                         _______ _______ _______ _____ _____    ______ ____
ROOT
ATOM      1  C   LIG    1       -0.017   1.385   0.010  0.00  0.00    +0.001 A 
ATOM      2  C   LIG    1        1.118   2.132   0.003  0.00  0.00    +0.011 A 
ATOM      3  C   LIG    1        2.383   1.513  -0.013  0.00  0.00    +0.021 A 
ATOM      4  C   LIG    1        3.691   1.965  -0.023  0.00  0.00    +0.123 A 
ATOM      5  N   LIG    1        4.496   0.892  -0.036  0.00  0.00    -0.239 N 
ATOM      6  N   LIG    1        3.729  -0.279  -0.035  0.00  0.00    -0.166 NA
ATOM      7  C   LIG    1        2.454   0.043  -0.021  0.00  0.00    +0.105 A 
ATOM      8  C   LIG    1        1.195  -0.709  -0.013  0.00  0.00    +0.064 A 
ATOM      9  C   LIG    1        0.002  -0.004   0.002  0.00  0.00    +0.015 A 
ENDROOT
BRANCH   5  10
ATOM     10  C   LIG    1        5.896   0.936  -0.049  0.00  0.00    +0.065 A 
ATOM     11  C   LIG    1        6.553   2.160  -0.043  0.00  0.00    +0.028 A 
ATOM     12  C   LIG    1        7.933   2.200  -0.056  0.00  0.00    +0.006 A 
ATOM     13  C   LIG    1        8.661   1.025  -0.076  0.00  0.00    -0.046 A 
ATOM     14  C   LIG    1        8.010  -0.195  -0.082  0.00  0.00    +0.006 A 
ATOM     15  C   LIG    1        6.630  -0.243  -0.063  0.00  0.00    +0.028 A 
BRANCH  13  16
ATOM     16  C   LIG    1       10.167   1.073  -0.091  0.00  0.00    +0.002 C 
ATOM     17  C   LIG    1       10.714   0.353   1.145  0.00  0.00    +0.004 C 
ATOM     18  C   LIG    1       12.244   0.339   1.080  0.00  0.00    -0.019 C 
ATOM     19  C   LIG    1       12.688  -0.328  -0.223  0.00  0.00    -0.083 C 
ATOM     20  N   LIG    1       12.155   0.421  -1.367  0.00  0.00    +0.379 N 
ATOM     21  H   LIG    1       12.493   0.010  -2.224  0.00  0.00    -0.086 HD
ATOM     22  H   LIG    1       12.463   1.381  -1.312  0.00  0.00    -0.086 HD
ATOM     23  C   LIG    1       10.688   0.379  -1.352  0.00  0.00    -0.075 C 
ENDBRANCH  13  16
ENDBRANCH   5  10
BRANCH   8  24
ATOM     24  C   LIG    1        1.199  -2.181  -0.022  0.00  0.00    +0.244 C 
ATOM     25  N   LIG    1        0.033  -2.858  -0.014  0.00  0.00    -0.325 N 
ATOM     26  H   LIG    1        0.036  -3.828  -0.020  0.00  0.00    +0.145 HD
ATOM     27  H   LIG    1       -0.808  -2.375  -0.003  0.00  0.00    +0.145 HD
ATOM     28  O   LIG    1        2.254  -2.787  -0.035  0.00  0.00    -0.270 OA
ENDBRANCH   8  24
TORSDOF 3
