REMARK  Name = ZINC29312777
REMARK                            x       y       z     vdW  Elec       q    Type
REMARK                         _______ _______ _______ _____ _____    ______ ____
ROOT
ATOM      1  C   LIG    1       -2.329  -0.454  -1.371  0.00  0.00    -0.004 C 
ATOM      2  C   LIG    1       -1.708  -0.635   0.015  0.00  0.00    +0.008 C 
ENDROOT
BRANCH   2   3
ATOM      3  N   LIG    1       -1.701  -2.062   0.366  0.00  0.00    +0.386 N 
ATOM      4  H   LIG    1       -2.733  -2.442   0.373  0.00  0.00    -0.089 HD
ATOM      5  H   LIG    1       -1.110  -2.619  -0.376  0.00  0.00    -0.089 HD
ATOM      6  H   LIG    1       -1.255  -2.192   1.363  0.00  0.00    -0.089 HD
ENDBRANCH   2   3
BRANCH   2   7
ATOM      7  P   LIG    1        0.002  -0.004   0.002  0.00  0.00    +0.177 P 
ATOM      8  O   LIG    1        0.695  -0.481  -1.216  0.00  0.00    -0.296 OA
ATOM      9  H   LIG    1        0.690  -0.336   0.793  0.00  0.00    +0.126 HD
BRANCH   7  10
ATOM     10  O   LIG    1       -0.020   1.606   0.011  0.00  0.00    -0.347 OA
ATOM     11  H   LIG    1       -0.474   1.919   0.809  0.00  0.00    +0.217 HD
ENDBRANCH   7  10
ENDBRANCH   2   7
TORSDOF 3
