REMARK  Name = ZINC40166166
REMARK                            x       y       z     vdW  Elec       q    Type
REMARK                         _______ _______ _______ _____ _____    ______ ____
ROOT
ATOM      1  C   LIG    1       -0.394   1.486   0.021  0.00  0.00    +0.063 C 
ATOM      2  C   LIG    1       -0.264  -0.015   0.008  0.00  0.00    +0.014 A 
ATOM      3  C   LIG    1       -0.345  -0.786  -1.087  0.00  0.00    +0.030 A 
ATOM      4  C   LIG    1       -0.163  -2.172  -0.650  0.00  0.00    +0.002 A 
ATOM      5  C   LIG    1       -0.146  -3.402  -1.312  0.00  0.00    +0.033 A 
ATOM      6  C   LIG    1        0.055  -4.563  -0.589  0.00  0.00    +0.034 A 
ATOM      7  C   LIG    1        0.238  -4.507   0.792  0.00  0.00    +0.025 A 
ATOM      8  C   LIG    1        0.222  -3.300   1.453  0.00  0.00    +0.028 A 
ATOM      9  C   LIG    1        0.022  -2.120   0.743  0.00  0.00    +0.047 A 
ATOM     10  N   LIG    1       -0.038  -0.793   1.111  0.00  0.00    -0.358 N 
ATOM     11  H   LIG    1        0.061  -0.461   2.017  0.00  0.00    +0.166 HD
ENDROOT
BRANCH   6  12
ATOM     12  N   LIG    1        0.074  -5.800  -1.246  0.00  0.00    -0.281 N 
ATOM     13  H   LIG    1       -0.265  -6.591  -0.799  0.00  0.00    +0.155 HD
ATOM     14  C   LIG    1        0.563  -5.890  -2.499  0.00  0.00    +0.248 C 
ATOM     15  O   LIG    1        1.075  -4.920  -3.022  0.00  0.00    -0.270 OA
BRANCH  14  16
ATOM     16  C   LIG    1        0.476  -7.168  -3.236  0.00  0.00    +0.038 A 
ATOM     17  C   LIG    1       -0.117  -8.283  -2.639  0.00  0.00    +0.013 A 
ATOM     18  C   LIG    1       -0.195  -9.473  -3.331  0.00  0.00    +0.002 A 
ATOM     19  C   LIG    1        0.313  -9.565  -4.615  0.00  0.00    +0.020 A 
ATOM     20  C   LIG    1        0.902  -8.464  -5.213  0.00  0.00    +0.042 A 
ATOM     21 CL   LIG    1        1.536  -8.589  -6.824  0.00  0.00    -0.084 Cl
ATOM     22  C   LIG    1        0.981  -7.265  -4.533  0.00  0.00    +0.033 A 
ENDBRANCH  14  16
ENDBRANCH   6  12
TORSDOF 2
