REMARK  Name = ZINC16505229
REMARK                            x       y       z     vdW  Elec       q    Type
REMARK                         _______ _______ _______ _____ _____    ______ ____
ROOT
ATOM      1  C   LIG    1       -6.824   1.842   4.987  0.00  0.00    +0.039 A 
ATOM      2  C   LIG    1       -6.199   2.629   5.960  0.00  0.00    +0.015 A 
ATOM      3  C   LIG    1       -6.924   3.103   7.029  0.00  0.00    +0.026 A 
ATOM      4  C   LIG    1       -8.276   2.791   7.148  0.00  0.00    +0.055 A 
ATOM      5  C   LIG    1       -8.899   2.003   6.185  0.00  0.00    +0.143 A 
ATOM      6  C   LIG    1       -8.181   1.530   5.110  0.00  0.00    +0.047 A 
ENDROOT
BRANCH   1   9
ATOM      7  N   LIG    1       -4.742   1.637   3.720  0.00  0.00    -0.281 N 
ATOM      8  H   LIG    1       -4.291   2.122   4.429  0.00  0.00    +0.155 HD
ATOM      9  C   LIG    1       -6.051   1.336   3.837  0.00  0.00    +0.248 C 
ATOM     10  O   LIG    1       -6.594   0.647   2.995  0.00  0.00    -0.270 OA
BRANCH   7  15
ATOM     11  C   LIG    1       -3.970   0.824   0.216  0.00  0.00    +0.122 A 
ATOM     12  C   LIG    1       -2.628   0.484   0.317  0.00  0.00    +0.046 A 
ATOM     13  C   LIG    1       -1.994   0.526   1.544  0.00  0.00    +0.005 A 
ATOM     14  C   LIG    1       -2.692   0.908   2.673  0.00  0.00    +0.023 A 
ATOM     15  C   LIG    1       -4.035   1.250   2.578  0.00  0.00    +0.037 A 
ATOM     16  C   LIG    1       -4.673   1.213   1.345  0.00  0.00    +0.069 A 
BRANCH  11  18
ATOM     17  C   LIG    1       -3.806   0.378  -2.114  0.00  0.00    +0.277 C 
ATOM     18  O   LIG    1       -4.593   0.782  -0.992  0.00  0.00    -0.495 OA
ENDBRANCH  11  18
ENDBRANCH   7  15
ENDBRANCH   1   9
BRANCH   4  19
ATOM     19  N   LIG    1       -9.004   3.268   8.232  0.00  0.00    -0.356 N 
ATOM     20  H   LIG    1       -8.717   4.070   8.695  0.00  0.00    +0.142 HD
ATOM     21  H   LIG    1       -9.800   2.797   8.526  0.00  0.00    +0.142 HD
ENDBRANCH   4  19
BRANCH   5  22
ATOM     22  N   LIG    1      -10.337   1.675   6.315  0.00  0.00    +0.008 N 
ATOM     23  O   LIG    1      -10.856   0.894   5.538  0.00  0.00    -0.130 OA
BRANCH  22  24
ATOM     24  O   LIG    1      -11.000   2.185   7.200  0.00  0.00    -0.396 OA
ATOM     25  H   LIG    1      -10.600   2.785   7.798  0.00  0.00    +0.329 HD
ENDBRANCH  22  24
ENDBRANCH   5  22
TORSDOF 6
