REMARK  Name = ZINC30430198
REMARK                            x       y       z     vdW  Elec       q    Type
REMARK                         _______ _______ _______ _____ _____    ______ ____
ROOT
ATOM      1  C   LIG    1        1.419  -2.000  -0.396  0.00  0.00    -0.038 A 
ATOM      2  C   LIG    1        1.841  -2.684   0.703  0.00  0.00    +0.004 A 
ATOM      3  C   LIG    1        1.867  -4.077   0.714  0.00  0.00    +0.001 A 
ATOM      4  C   LIG    1        1.470  -4.794  -0.373  0.00  0.00    +0.008 A 
ATOM      5  C   LIG    1        1.028  -4.123  -1.526  0.00  0.00    -0.018 A 
ATOM      6  C   LIG    1        0.611  -4.829  -2.667  0.00  0.00    +0.008 A 
ATOM      7  C   LIG    1        0.189  -4.144  -3.765  0.00  0.00    +0.001 A 
ATOM      8  C   LIG    1        0.162  -2.751  -3.776  0.00  0.00    +0.001 A 
ATOM      9  C   LIG    1        0.558  -2.034  -2.689  0.00  0.00    +0.009 A 
ATOM     10  C   LIG    1        0.997  -2.706  -1.535  0.00  0.00    -0.015 A 
ENDROOT
BRANCH   1  11
ATOM     11  C   LIG    1        1.399  -0.493  -0.387  0.00  0.00    +0.052 C 
BRANCH  11  12
ATOM     12  C   LIG    1        0.002  -0.004   0.002  0.00  0.00    +0.110 C 
BRANCH  12  13
ATOM     13  N   LIG    1       -0.018   1.461   0.010  0.00  0.00    -0.194 NA
ATOM     14  H   LIG    1        0.914   2.023   0.174  0.00  0.00    +0.148 HD
BRANCH  13  16
ATOM     15  C   LIG    1       -2.224   1.841   1.611  0.00  0.00    +0.214 C 
ATOM     16  S   LIG    1       -1.463   2.269   0.021  0.00  0.00    +0.027 S 
ATOM     17  O   LIG    1       -2.206   1.698  -1.046  0.00  0.00    -0.158 OA
ATOM     18  O   LIG    1       -1.109   3.645   0.003  0.00  0.00    -0.158 OA
ENDBRANCH  13  16
ENDBRANCH  12  13
ENDBRANCH  11  12
ENDBRANCH   1  11
TORSDOF 4
