REMARK  Name = ZINC15894680
REMARK                            x       y       z     vdW  Elec       q    Type
REMARK                         _______ _______ _______ _____ _____    ______ ____
ROOT
ATOM      1  C   LIG    1        0.060  -2.916  -0.013  0.00  0.00    +0.029 A 
ATOM      2  C   LIG    1       -0.364  -3.778   1.016  0.00  0.00    +0.143 A 
ATOM      3  N   LIG    1       -1.495  -4.325   0.660  0.00  0.00    -0.181 NA
ATOM      4  N   LIG    1       -1.857  -3.849  -0.605  0.00  0.00    -0.275 N 
ATOM      5  H   LIG    1       -2.654  -4.096  -1.100  0.00  0.00    +0.189 HD
ATOM      6  C   LIG    1       -0.900  -2.973  -1.019  0.00  0.00    +0.092 A 
ENDROOT
BRANCH   1  12
ATOM      7  C   LIG    1       -0.016   1.359   0.009  0.00  0.00    +0.001 A 
ATOM      8  C   LIG    1        1.170   2.088   0.002  0.00  0.00    +0.002 A 
ATOM      9  C   LIG    1        2.379   1.462  -0.013  0.00  0.00    +0.028 A 
ATOM     10  C   LIG    1        2.437   0.058  -0.021  0.00  0.00    +0.072 A 
ATOM     11  C   LIG    1        1.229  -0.680  -0.013  0.00  0.00    +0.008 A 
ATOM     12  C   LIG    1        1.291  -2.097  -0.021  0.00  0.00    -0.004 A 
ATOM     13  C   LIG    1        2.548  -2.691  -0.036  0.00  0.00    +0.029 A 
ATOM     14  C   LIG    1        3.684  -1.893  -0.043  0.00  0.00    +0.112 A 
ATOM     15  N   LIG    1        3.611  -0.582  -0.035  0.00  0.00    -0.255 NA
ATOM     16  C   LIG    1        0.002  -0.004   0.002  0.00  0.00    +0.010 A 
ENDBRANCH   1  12
BRANCH   6  17
ATOM     17  C   LIG    1       -0.881  -2.229  -2.295  0.00  0.00    +0.089 A 
ATOM     18  C   LIG    1       -1.575  -2.729  -3.398  0.00  0.00    +0.030 A 
ATOM     19  C   LIG    1       -1.549  -2.019  -4.585  0.00  0.00    +0.004 A 
ATOM     20  C   LIG    1       -0.830  -0.833  -4.633  0.00  0.00    +0.020 A 
ATOM     21  C   LIG    1       -0.165  -0.395  -3.502  0.00  0.00    +0.111 A 
ATOM     22  N   LIG    1       -0.209  -1.086  -2.381  0.00  0.00    -0.253 NA
ENDBRANCH   6  17
TORSDOF 2
