REMARK  Name = ZINC00024727
REMARK                            x       y       z     vdW  Elec       q    Type
REMARK                         _______ _______ _______ _____ _____    ______ ____
ROOT
ATOM      1  N   LIG    1        4.101   0.607   1.347  0.00  0.00    -0.319 N 
ATOM      2  C   LIG    1        4.400   1.718   2.120  0.00  0.00    +0.106 A 
ATOM      3  C   LIG    1        4.825   1.290   3.304  0.00  0.00    +0.102 A 
ATOM      4  N   LIG    1        4.799  -0.096   3.291  0.00  0.00    -0.340 N 
ATOM      5  H   LIG    1        5.056  -0.678   4.023  0.00  0.00    +0.167 HD
ATOM      6  C   LIG    1        4.346  -0.494   2.085  0.00  0.00    +0.158 A 
ATOM      7  S   LIG    1        4.127  -2.114   1.579  0.00  0.00    -0.013 S 
ENDROOT
BRANCH   1   8
ATOM      8  C   LIG    1        3.599   0.625  -0.029  0.00  0.00    +0.198 C 
BRANCH   8  11
ATOM      9  C   LIG    1       -0.016   1.341   0.009  0.00  0.00    +0.041 A 
ATOM     10  C   LIG    1        1.331   1.769  -0.001  0.00  0.00    +0.046 A 
ATOM     11  C   LIG    1        2.092   0.660  -0.014  0.00  0.00    +0.124 A 
ATOM     12  O   LIG    1        1.282  -0.411  -0.012  0.00  0.00    -0.466 OA
ATOM     13  C   LIG    1        0.002  -0.004   0.002  0.00  0.00    +0.195 A 
ENDBRANCH   8  11
ENDBRANCH   1   8
TORSDOF 2
