REMARK  Name = ZINC53172846
REMARK                            x       y       z     vdW  Elec       q    Type
REMARK                         _______ _______ _______ _____ _____    ______ ____
ROOT
ATOM      1  N   LIG    1        0.033  -4.107  -2.630  0.00  0.00    -0.298 NA
ATOM      2  C   LIG    1       -1.204  -4.654  -2.057  0.00  0.00    +0.103 C 
ATOM      3  C   LIG    1       -1.070  -6.174  -1.917  0.00  0.00    +0.120 C 
ATOM      4  N   LIG    1       -0.691  -6.732  -3.223  0.00  0.00    -0.325 N 
ATOM      5  C   LIG    1        0.459  -6.142  -3.925  0.00  0.00    +0.120 C 
ATOM      6  C   LIG    1        0.265  -4.623  -3.986  0.00  0.00    +0.103 C 
ENDROOT
BRANCH   4   7
ATOM      7  C   LIG    1       -1.405  -7.797  -3.784  0.00  0.00    +0.072 A 
ATOM      8  C   LIG    1       -2.489  -7.547  -4.613  0.00  0.00    +0.027 A 
ATOM      9  C   LIG    1       -3.193  -8.601  -5.166  0.00  0.00    +0.002 A 
ATOM     10  C   LIG    1       -2.819  -9.904  -4.896  0.00  0.00    +0.004 A 
ATOM     11  C   LIG    1       -1.740 -10.161  -4.071  0.00  0.00    +0.047 A 
ATOM     12  C   LIG    1       -1.026  -9.111  -3.517  0.00  0.00    +0.141 A 
BRANCH  12  13
ATOM     13  O   LIG    1        0.039  -9.361  -2.709  0.00  0.00    -0.493 OA
ATOM     14  C   LIG    1        0.370 -10.732  -2.479  0.00  0.00    +0.277 C 
ENDBRANCH  12  13
ENDBRANCH   4   7
BRANCH   1  15
ATOM     15  C   LIG    1        0.013  -2.639  -2.622  0.00  0.00    +0.103 C 
BRANCH  15  16
ATOM     16  C   LIG    1        0.020  -2.136  -1.177  0.00  0.00    +0.119 C 
BRANCH  16  19
ATOM     17  C   LIG    1       -0.018   1.503   0.010  0.00  0.00    +0.109 C 
ATOM     18  C   LIG    1        0.002  -0.004   0.002  0.00  0.00    +0.210 C 
ATOM     19  N   LIG    1        0.000  -0.672  -1.169  0.00  0.00    -0.314 N 
ATOM     20  H   LIG    1       -0.015  -0.182  -2.006  0.00  0.00    +0.149 HD
ATOM     21  O   LIG    1        0.020  -0.616   1.049  0.00  0.00    -0.276 OA
ENDBRANCH  16  19
ENDBRANCH  15  16
ENDBRANCH   1  15
TORSDOF 5
