REMARK  Name = ZINC36741071
REMARK                            x       y       z     vdW  Elec       q    Type
REMARK                         _______ _______ _______ _____ _____    ______ ____
ROOT
ATOM      1  C   LIG    1       -4.373  -0.318   0.590  0.00  0.00    +0.067 A 
ATOM      2  C   LIG    1       -4.457   0.133  -0.725  0.00  0.00    +0.028 A 
ATOM      3  C   LIG    1       -5.574  -0.113  -1.470  0.00  0.00    +0.017 A 
ATOM      4  C   LIG    1       -6.645  -0.821  -0.916  0.00  0.00    +0.057 A 
ATOM      5  C   LIG    1       -6.566  -1.279   0.409  0.00  0.00    +0.042 A 
ATOM      6  C   LIG    1       -5.423  -1.027   1.154  0.00  0.00    +0.051 A 
ENDROOT
BRANCH   1  17
ATOM      7  C   LIG    1       -2.751   3.761   2.707  0.00  0.00    +0.011 C 
ATOM      8  C   LIG    1       -2.093   3.527   1.345  0.00  0.00    -0.022 C 
ATOM      9  C   LIG    1       -2.211   4.798   0.503  0.00  0.00    +0.011 C 
ATOM     10  C   LIG    1       -2.812   2.379   0.629  0.00  0.00    +0.063 C 
ATOM     11  C   LIG    1       -2.548   1.092   1.365  0.00  0.00    +0.056 A 
ATOM     12  C   LIG    1       -1.476   0.921   2.237  0.00  0.00    +0.070 A 
ATOM     13  C   LIG    1       -0.513   2.003   2.494  0.00  0.00    +0.167 C 
ATOM     14  O   LIG    1        0.301   1.950   3.391  0.00  0.00    -0.292 OA
ATOM     15  C   LIG    1       -1.542  -0.385   2.740  0.00  0.00    +0.176 A 
ATOM     16  N   LIG    1       -2.586  -0.965   2.203  0.00  0.00    -0.161 NA
ATOM     17  N   LIG    1       -3.224  -0.059   1.343  0.00  0.00    -0.235 N 
ATOM     18  C   LIG    1       -0.613   3.193   1.551  0.00  0.00    +0.086 C 
BRANCH  15  19
ATOM     19  C   LIG    1       -0.584  -1.010   3.721  0.00  0.00    +0.437 C 
ATOM     20  F   LIG    1        0.684  -0.441   3.561  0.00  0.00    -0.164 F 
ATOM     21  F   LIG    1       -0.510  -2.387   3.489  0.00  0.00    -0.164 F 
ATOM     22  F   LIG    1       -1.037  -0.780   5.025  0.00  0.00    -0.164 F 
ENDBRANCH  15  19
ENDBRANCH   1  17
BRANCH   4  23
ATOM     23  C   LIG    1       -7.851  -1.086  -1.720  0.00  0.00    +0.243 C 
ATOM     24  N   LIG    1       -7.878  -0.753  -3.025  0.00  0.00    -0.325 N 
ATOM     25  H   LIG    1       -8.672  -0.928  -3.554  0.00  0.00    +0.145 HD
ATOM     26  H   LIG    1       -7.103  -0.339  -3.436  0.00  0.00    +0.145 HD
ATOM     27  O   LIG    1       -8.822  -1.606  -1.205  0.00  0.00    -0.270 OA
ENDBRANCH   4  23
BRANCH   5  28
ATOM     28  N   LIG    1       -7.624  -1.983   0.970  0.00  0.00    -0.340 N 
ATOM     29  H   LIG    1       -8.381  -2.239   0.420  0.00  0.00    +0.146 HD
BRANCH  28  30
ATOM     30  C   LIG    1       -7.596  -2.339   2.391  0.00  0.00    +0.071 C 
ATOM     31  C   LIG    1       -6.822  -3.645   2.575  0.00  0.00    +0.025 C 
ATOM     32  C   LIG    1       -7.507  -4.760   1.783  0.00  0.00    +0.033 C 
ATOM     33  C   LIG    1       -8.939  -4.941   2.291  0.00  0.00    +0.115 C 
ATOM     34  C   LIG    1       -9.714  -3.634   2.108  0.00  0.00    +0.033 C 
ATOM     35  C   LIG    1       -9.028  -2.519   2.899  0.00  0.00    +0.025 C 
BRANCH  33  36
ATOM     36  O   LIG    1       -9.579  -5.982   1.552  0.00  0.00    -0.392 OA
ATOM     37  H   LIG    1      -10.492  -6.152   1.822  0.00  0.00    +0.210 HD
ENDBRANCH  33  36
ENDBRANCH  28  30
ENDBRANCH   5  28
TORSDOF 6
