REMARK  Name = ZINC44125480
REMARK                            x       y       z     vdW  Elec       q    Type
REMARK                         _______ _______ _______ _____ _____    ______ ____
ROOT
ATOM      1  C   LIG    1       -0.019   1.526   0.010  0.00  0.00    +0.013 C 
ATOM      2  C   LIG    1        0.002  -0.004   0.002  0.00  0.00    +0.028 C 
ENDROOT
BRANCH   2   3
ATOM      3  C   LIG    1        0.707  -0.490  -1.238  0.00  0.00    -0.043 A 
ATOM      4  C   LIG    1        0.222  -0.151  -2.487  0.00  0.00    +0.004 A 
ATOM      5  C   LIG    1        0.869  -0.597  -3.624  0.00  0.00    +0.000 A 
ATOM      6  C   LIG    1        2.002  -1.381  -3.513  0.00  0.00    +0.000 A 
ATOM      7  C   LIG    1        2.488  -1.720  -2.263  0.00  0.00    +0.000 A 
ATOM      8  C   LIG    1        1.843  -1.270  -1.126  0.00  0.00    +0.004 A 
ENDBRANCH   2   3
BRANCH   2   9
ATOM      9  C   LIG    1       -1.433  -0.534   0.013  0.00  0.00    +0.073 C 
BRANCH   9  10
ATOM     10  N   LIG    1       -2.083  -0.161   1.276  0.00  0.00    -0.358 NA
ATOM     11  C   LIG    1       -3.520  -0.464   1.239  0.00  0.00    +0.084 C 
BRANCH  10  12
ATOM     12  N   LIG    1       -1.442  -0.815   2.405  0.00  0.00    +0.389 N 
ATOM     13  H   LIG    1       -1.503  -1.816   2.293  0.00  0.00    -0.065 HD
ATOM     14  H   LIG    1       -1.905  -0.544   3.259  0.00  0.00    -0.065 HD
ATOM     15  H   LIG    1       -0.472  -0.540   2.447  0.00  0.00    -0.065 HD
ENDBRANCH  10  12
ENDBRANCH   9  10
ENDBRANCH   2   9
TORSDOF 4
