REMARK  Name = ZINC38167261
REMARK                            x       y       z     vdW  Elec       q    Type
REMARK                         _______ _______ _______ _____ _____    ______ ____
ROOT
ATOM      1  C   LIG    1        3.652   2.164  -0.022  0.00  0.00    +0.171 C 
ATOM      2  O   LIG    1        4.710   1.573  -0.035  0.00  0.00    -0.292 OA
ENDROOT
BRANCH   1   5
ATOM      3  C   LIG    1       -0.017   1.379   0.010  0.00  0.00    +0.004 A 
ATOM      4  C   LIG    1        1.165   2.089   0.002  0.00  0.00    +0.011 A 
ATOM      5  C   LIG    1        2.388   1.410  -0.013  0.00  0.00    +0.021 A 
ATOM      6  C   LIG    1        2.404   0.013  -0.021  0.00  0.00    +0.056 A 
ATOM      7  C   LIG    1        1.211  -0.688  -0.013  0.00  0.00    +0.118 A 
ATOM      8  C   LIG    1        0.002  -0.004   0.002  0.00  0.00    +0.045 A 
BRANCH   7   9
ATOM      9  O   LIG    1        1.221  -2.047  -0.021  0.00  0.00    -0.507 OA
ATOM     10  H   LIG    1        1.233  -2.445   0.861  0.00  0.00    +0.292 HD
ENDBRANCH   7   9
ENDBRANCH   1   5
BRANCH   1  11
ATOM     11  C   LIG    1        3.631   3.671  -0.014  0.00  0.00    +0.166 C 
BRANCH  11  12
ATOM     12  C   LIG    1        5.044   4.193  -0.025  0.00  0.00    +0.246 C 
ATOM     13  O   LIG    1        5.973   3.421  -0.038  0.00  0.00    -0.285 OA
BRANCH  12  14
ATOM     14  C   LIG    1        5.297   5.665  -0.020  0.00  0.00    +0.373 C 
ATOM     15  O   LIG    1        6.441   6.088  -0.029  0.00  0.00    -0.242 OA
BRANCH  14  16
ATOM     16  O   LIG    1        4.358   6.445  -0.007  0.00  0.00    -0.475 OA
ATOM     17  H   LIG    1        3.479   6.121   0.000  0.00  0.00    +0.295 HD
ENDBRANCH  14  16
ENDBRANCH  12  14
ENDBRANCH  11  12
ENDBRANCH   1  11
TORSDOF 6
