REMARK  Name = ZINC22061171
REMARK                            x       y       z     vdW  Elec       q    Type
REMARK                         _______ _______ _______ _____ _____    ______ ____
ROOT
ATOM      1  C   LIG    1       -1.700  -2.558   1.315  0.00  0.00    +0.001 A 
ATOM      2  C   LIG    1       -1.049  -3.498   0.536  0.00  0.00    +0.001 A 
ATOM      3  C   LIG    1       -0.165  -3.092  -0.448  0.00  0.00    +0.016 A 
ATOM      4  C   LIG    1        0.069  -1.743  -0.653  0.00  0.00    +0.028 A 
ATOM      5  C   LIG    1       -0.581  -0.782   0.133  0.00  0.00    +0.079 A 
ATOM      6  C   LIG    1       -0.347   0.650  -0.057  0.00  0.00    +0.322 C 
ATOM      7  N   LIG    1        0.744   1.271  -0.239  0.00  0.00    -0.040 NA
ATOM      8  C   LIG    1        2.027   0.830  -0.289  0.00  0.00    +0.190 A 
ATOM      9  C   LIG    1        3.008   1.535   0.418  0.00  0.00    +0.060 A 
ATOM     10  C   LIG    1        4.324   1.122   0.386  0.00  0.00    +0.050 A 
ATOM     11  C   LIG    1        4.689   0.002  -0.347  0.00  0.00    +0.118 A 
ATOM     12  C   LIG    1        3.724  -0.708  -1.051  0.00  0.00    +0.064 A 
ATOM     13  C   LIG    1        2.402  -0.300  -1.021  0.00  0.00    +0.067 A 
ATOM     14  S   LIG    1        1.190  -1.221  -1.911  0.00  0.00    -0.084 S 
ATOM     15  C   LIG    1       -1.473  -1.211   1.122  0.00  0.00    +0.017 A 
ENDROOT
BRANCH   6  16
ATOM     16  N   LIG    1       -1.476   1.440  -0.029  0.00  0.00    -0.218 N 
ATOM     17  C   LIG    1       -1.371   2.907  -0.046  0.00  0.00    +0.241 C 
ATOM     18  C   LIG    1       -2.284   3.442  -1.161  0.00  0.00    +0.128 C 
ATOM     19  N   LIG    1       -3.643   2.919  -0.967  0.00  0.00    -0.293 NA
ATOM     20  C   LIG    1       -3.672   1.455  -1.086  0.00  0.00    +0.128 C 
ATOM     21  C   LIG    1       -2.817   0.839   0.026  0.00  0.00    +0.241 C 
BRANCH  19  22
ATOM     22  C   LIG    1       -4.586   3.542  -1.906  0.00  0.00    +0.112 C 
BRANCH  22  23
ATOM     23  C   LIG    1       -4.003   3.496  -3.320  0.00  0.00    +0.175 C 
BRANCH  23  24
ATOM     24  O   LIG    1       -3.918   2.138  -3.756  0.00  0.00    -0.376 OA
BRANCH  24  25
ATOM     25  C   LIG    1       -3.384   1.983  -5.072  0.00  0.00    +0.187 C 
BRANCH  25  26
ATOM     26  C   LIG    1       -3.339   0.496  -5.432  0.00  0.00    +0.184 C 
BRANCH  26  27
ATOM     27  O   LIG    1       -4.671  -0.017  -5.502  0.00  0.00    -0.393 OA
ATOM     28  H   LIG    1       -4.840  -1.075  -5.750  0.00  0.00    +0.209 HD
ENDBRANCH  26  27
ENDBRANCH  25  26
ENDBRANCH  24  25
ENDBRANCH  23  24
ENDBRANCH  22  23
ENDBRANCH  19  22
ENDBRANCH   6  16
BRANCH  11  29
ATOM     29  O   LIG    1        5.987  -0.400  -0.376  0.00  0.00    -0.507 OA
ATOM     30  H   LIG    1        6.275  -1.288  -0.958  0.00  0.00    +0.292 HD
ENDBRANCH  11  29
TORSDOF 8
