REMARK  Name = ZINC13815393
REMARK                            x       y       z     vdW  Elec       q    Type
REMARK                         _______ _______ _______ _____ _____    ______ ____
ROOT
ATOM      1  C   LIG    1        1.446   9.983   0.030  0.00  0.00    +0.039 C 
ATOM      2  C   LIG    1        2.372   9.910  -1.221  0.00  0.00    +0.123 C 
ATOM      3  C   LIG    1        1.453  10.248  -2.433  0.00  0.00    +0.034 C 
ATOM      4  C   LIG    1        1.216  11.771  -2.270  0.00  0.00    +0.034 C 
ATOM      5  C   LIG    1        2.029  12.111  -0.985  0.00  0.00    +0.122 C 
ATOM      6  O   LIG    1        3.134  11.154  -1.085  0.00  0.00    -0.373 OA
ATOM      7  C   LIG    1        1.208  11.506   0.194  0.00  0.00    +0.028 C 
ENDROOT
BRANCH   1   8
ATOM      8  C   LIG    1        0.126   9.253  -0.229  0.00  0.00    +0.108 C 
BRANCH   8   9
ATOM      9  N   LIG    1       -0.716   9.323   0.973  0.00  0.00    -0.239 NA
ATOM     10  H   LIG    1       -0.232   8.950   1.776  0.00  0.00    +0.144 HD
BRANCH   9  14
ATOM     11  N   LIG    1       -2.559   9.221   2.950  0.00  0.00    -0.268 N 
ATOM     12  H   LIG    1       -1.745   9.736   3.068  0.00  0.00    +0.156 HD
ATOM     13  C   LIG    1       -2.818   8.633   1.765  0.00  0.00    +0.318 C 
ATOM     14  N   LIG    1       -1.905   8.680   0.775  0.00  0.00    -0.234 N 
ATOM     15  H   LIG    1       -2.092   8.257  -0.077  0.00  0.00    +0.171 HD
ATOM     16  O   LIG    1       -3.877   8.061   1.590  0.00  0.00    -0.251 OA
BRANCH  11  20
ATOM     17  C   LIG    1       -5.252   8.829   6.105  0.00  0.00    +0.000 A 
ATOM     18  C   LIG    1       -3.893   8.869   6.359  0.00  0.00    +0.002 A 
ATOM     19  C   LIG    1       -2.997   8.994   5.315  0.00  0.00    +0.023 A 
ATOM     20  C   LIG    1       -3.463   9.089   4.010  0.00  0.00    +0.035 A 
ATOM     21  C   LIG    1       -4.829   9.053   3.759  0.00  0.00    +0.023 A 
ATOM     22  C   LIG    1       -5.719   8.923   4.807  0.00  0.00    +0.002 A 
ENDBRANCH  11  20
ENDBRANCH   9  14
ENDBRANCH   8   9
ENDBRANCH   1   8
BRANCH   7  23
ATOM     23  C   LIG    1        1.748  11.997   1.538  0.00  0.00    +0.033 C 
BRANCH  23  24
ATOM     24  C   LIG    1        1.395  13.451   1.721  0.00  0.00    -0.031 C 
ATOM     25  C   LIG    1        0.779  13.844   2.808  0.00  0.00    -0.031 C 
BRANCH  25  26
ATOM     26  C   LIG    1        0.584  12.883   3.952  0.00  0.00    +0.027 C 
BRANCH  26  27
ATOM     27  C   LIG    1        1.128  13.505   5.240  0.00  0.00    +0.015 C 
BRANCH  27  28
ATOM     28  C   LIG    1        0.929  12.530   6.402  0.00  0.00    +0.121 C 
BRANCH  28  29
ATOM     29  C   LIG    1        1.465  13.143   7.670  0.00  0.00    +0.305 C 
ATOM     30  O   LIG    1        1.956  14.246   7.647  0.00  0.00    -0.251 OA
BRANCH  29  31
ATOM     31  O   LIG    1        1.397  12.462   8.825  0.00  0.00    -0.481 OA
ATOM     32  H   LIG    1        1.017  11.606   8.843  0.00  0.00    +0.295 HD
ENDBRANCH  29  31
ENDBRANCH  28  29
ENDBRANCH  27  28
ENDBRANCH  26  27
ENDBRANCH  25  26
ENDBRANCH  23  24
ENDBRANCH   7  23
TORSDOF 11
