REMARK  Name = ZINC20108635
REMARK                            x       y       z     vdW  Elec       q    Type
REMARK                         _______ _______ _______ _____ _____    ______ ____
ROOT
ATOM      1  C   LIG    1        2.439  14.470  -0.397  0.00  0.00    +0.122 A 
ATOM      2  C   LIG    1        3.750  13.972  -0.425  0.00  0.00    +0.047 A 
ATOM      3  C   LIG    1        3.967  12.630  -0.348  0.00  0.00    -0.038 A 
ATOM      4  C   LIG    1        5.366  12.070  -0.376  0.00  0.00    +0.044 C 
ATOM      5  C   LIG    1        2.849  11.776  -0.243  0.00  0.00    +0.005 A 
ATOM      6  C   LIG    1        3.004  10.385  -0.156  0.00  0.00    +0.033 A 
ATOM      7  C   LIG    1        1.887   9.583  -0.060  0.00  0.00    +0.034 A 
ATOM      8  C   LIG    1        0.607  10.146  -0.038  0.00  0.00    +0.025 A 
ATOM      9  C   LIG    1        0.434  11.493  -0.116  0.00  0.00    +0.030 A 
ATOM     10  C   LIG    1        1.550  12.341  -0.220  0.00  0.00    +0.073 A 
ATOM     11  N   LIG    1        1.399  13.668  -0.299  0.00  0.00    -0.232 NA
ENDROOT
BRANCH   1  15
ATOM     12  N   LIG    1        1.339  18.373   0.467  0.00  0.00    -0.300 NA
ATOM     13  C   LIG    1        0.611  17.670  -0.599  0.00  0.00    +0.103 C 
ATOM     14  C   LIG    1        0.799  16.160  -0.430  0.00  0.00    +0.122 C 
ATOM     15  N   LIG    1        2.233  15.840  -0.475  0.00  0.00    -0.313 N 
ATOM     16  C   LIG    1        2.961  16.544   0.590  0.00  0.00    +0.122 C 
ATOM     17  C   LIG    1        2.772  18.053   0.422  0.00  0.00    +0.103 C 
BRANCH  12  19
ATOM     18  C   LIG    1        1.680  20.496   1.640  0.00  0.00    +0.020 C 
ATOM     19  C   LIG    1        1.121  19.824   0.385  0.00  0.00    +0.081 C 
ENDBRANCH  12  19
ENDBRANCH   1  15
BRANCH   7  20
ATOM     20  N   LIG    1        2.036   8.194   0.022  0.00  0.00    -0.283 N 
ATOM     21  H   LIG    1        2.892   7.763   0.562  0.00  0.00    +0.155 HD
ATOM     22  C   LIG    1        1.129   7.383  -0.559  0.00  0.00    +0.255 C 
ATOM     23  O   LIG    1        0.141   7.855  -1.082  0.00  0.00    -0.272 OA
BRANCH  22  24
ATOM     24  C   LIG    1        1.342   5.891  -0.559  0.00  0.00    +0.324 C 
BRANCH  24  25
ATOM     25  O   LIG    1        0.253   5.255  -1.230  0.00  0.00    -0.483 OA
BRANCH  25  26
ATOM     26  C   LIG    1        0.290   3.899  -1.319  0.00  0.00    +0.121 A 
ATOM     27  C   LIG    1        1.354   3.196  -0.772  0.00  0.00    +0.045 A 
ATOM     28  C   LIG    1        1.390   1.819  -0.864  0.00  0.00    +0.004 A 
ATOM     29  C   LIG    1        0.368   1.140  -1.502  0.00  0.00    +0.003 A 
ATOM     30  C   LIG    1       -0.690   1.839  -2.053  0.00  0.00    -0.047 A 
ATOM     31  C   LIG    1       -1.800   1.096  -2.752  0.00  0.00    +0.044 C 
ATOM     32  C   LIG    1       -0.734   3.216  -1.958  0.00  0.00    +0.049 A 
ENDBRANCH  25  26
ENDBRANCH  24  25
ENDBRANCH  22  24
ENDBRANCH   7  20
TORSDOF 6
