REMARK  Name = ZINC36459331
REMARK                            x       y       z     vdW  Elec       q    Type
REMARK                         _______ _______ _______ _____ _____    ______ ____
ROOT
ATOM      1  C   LIG    1        1.416  -2.494  -2.455  0.00  0.00    -0.024 A 
ATOM      2  C   LIG    1        0.840  -2.844  -3.615  0.00  0.00    +0.087 A 
ATOM      3  N   LIG    1        1.797  -3.233  -4.513  0.00  0.00    -0.360 N 
ATOM      4  C   LIG    1        3.045  -3.140  -3.936  0.00  0.00    +0.047 A 
ATOM      5  C   LIG    1        4.331  -3.405  -4.393  0.00  0.00    +0.029 A 
ATOM      6  C   LIG    1        5.412  -3.196  -3.566  0.00  0.00    +0.040 A 
ATOM      7  C   LIG    1        5.231  -2.732  -2.268  0.00  0.00    +0.124 A 
ATOM      8  F   LIG    1        6.303  -2.540  -1.467  0.00  0.00    -0.205 F 
ATOM      9  C   LIG    1        3.965  -2.467  -1.793  0.00  0.00    +0.048 A 
ATOM     10  H   LIG    1        1.623  -3.530  -5.420  0.00  0.00    +0.165 HD
ATOM     11  C   LIG    1        2.861  -2.667  -2.624  0.00  0.00    +0.005 A 
ENDROOT
BRANCH   1  12
ATOM     12  C   LIG    1        0.710  -2.008  -1.215  0.00  0.00    +0.018 C 
BRANCH  12  13
ATOM     13  C   LIG    1        0.690  -0.478  -1.207  0.00  0.00    -0.078 C 
BRANCH  13  15
ATOM     14  C   LIG    1       -0.018   1.465   0.010  0.00  0.00    -0.100 C 
ATOM     15  N   LIG    1        0.002  -0.004   0.002  0.00  0.00    +0.377 N 
ATOM     16  H   LIG    1       -0.945  -0.353   0.009  0.00  0.00    -0.086 HD
ATOM     17  H   LIG    1        0.490  -0.338   0.820  0.00  0.00    -0.086 HD
ENDBRANCH  13  15
ENDBRANCH  12  13
ENDBRANCH   1  12
TORSDOF 3
