REMARK  Name = ZINC28392681
REMARK                            x       y       z     vdW  Elec       q    Type
REMARK                         _______ _______ _______ _____ _____    ______ ____
ROOT
ATOM      1  C   LIG    1        2.128   0.539  -2.271  0.00  0.00    +0.056 C 
ATOM      2  C   LIG    1        0.691   0.038  -2.303  0.00  0.00    +0.234 C 
ATOM      3  N   LIG    1        0.353  -0.644  -1.042  0.00  0.00    -0.279 N 
ATOM      4  H   LIG    1        0.412  -1.742  -1.021  0.00  0.00    +0.303 HD
ATOM      5  C   LIG    1        0.002  -0.004   0.002  0.00  0.00    +0.246 C 
ATOM      6  C   LIG    1       -0.018   1.506   0.010  0.00  0.00    +0.192 C 
ATOM      7  S   LIG    1        1.712   2.074  -0.003  0.00  0.00    -0.149 S 
ATOM      8  C   LIG    1        2.197   1.970  -1.736  0.00  0.00    +0.073 C 
ENDROOT
BRANCH   5   9
ATOM      9  N   LIG    1       -0.361  -0.693   1.129  0.00  0.00    -0.253 N 
ATOM     10  H   LIG    1       -0.349  -1.793   1.129  0.00  0.00    +0.288 HD
ATOM     11  H   LIG    1       -0.666  -0.147   2.034  0.00  0.00    +0.288 HD
ENDBRANCH   5   9
TORSDOF 1
