REMARK  Name = ZINC28098979
REMARK                            x       y       z     vdW  Elec       q    Type
REMARK                         _______ _______ _______ _____ _____    ______ ____
ROOT
ATOM      1  N   LIG    1       -4.916   1.195   0.031  0.00  0.00    -0.285 N 
ATOM      2  H   LIG    1       -4.910   0.098  -0.051  0.00  0.00    +0.155 HD
ATOM      3  C   LIG    1       -6.086   1.856   0.142  0.00  0.00    +0.224 C 
ATOM      4  O   LIG    1       -6.099   3.068   0.149  0.00  0.00    -0.275 OA
ENDROOT
BRANCH   3   5
ATOM      5  C   LIG    1       -7.377   1.087   0.257  0.00  0.00    +0.120 C 
ATOM      6  C   LIG    1       -7.434   0.302   1.602  0.00  0.00    +0.131 C 
ATOM      7  C   LIG    1       -6.963   1.313   2.690  0.00  0.00    +0.035 C 
ATOM      8  C   LIG    1       -8.169   2.280   2.805  0.00  0.00    +0.035 C 
ATOM      9  C   LIG    1       -9.177   1.699   1.769  0.00  0.00    +0.133 C 
ATOM     10  O   LIG    1       -8.878   0.267   1.851  0.00  0.00    -0.372 OA
ATOM     11  C   LIG    1       -8.583   2.054   0.373  0.00  0.00    +0.140 C 
BRANCH  11  12
ATOM     12  C   LIG    1       -9.588   1.788  -0.718  0.00  0.00    +0.311 C 
ATOM     13  O   LIG    1       -9.384   0.912  -1.526  0.00  0.00    -0.251 OA
BRANCH  12  14
ATOM     14  O   LIG    1      -10.709   2.522  -0.793  0.00  0.00    -0.480 OA
ATOM     15  H   LIG    1      -10.867   3.201  -0.166  0.00  0.00    +0.295 HD
ENDBRANCH  12  14
ENDBRANCH  11  12
ENDBRANCH   3   5
BRANCH   1  20
ATOM     16  C   LIG    1       -1.381   2.072   0.603  0.00  0.00    +0.061 A 
ATOM     17  C   LIG    1       -1.327   3.330  -0.003  0.00  0.00    +0.015 A 
ATOM     18  C   LIG    1       -2.454   3.859  -0.596  0.00  0.00    +0.003 A 
ATOM     19  C   LIG    1       -3.644   3.154  -0.583  0.00  0.00    +0.023 A 
ATOM     20  C   LIG    1       -3.710   1.905   0.022  0.00  0.00    +0.034 A 
ATOM     21  C   LIG    1       -2.581   1.361   0.615  0.00  0.00    +0.038 A 
BRANCH  16  22
ATOM     22  C   LIG    1       -0.174   1.500   1.233  0.00  0.00    +0.339 C 
ATOM     23  O   LIG    1       -0.225   0.408   1.763  0.00  0.00    -0.245 OA
BRANCH  22  25
ATOM     24  C   LIG    1        2.132   1.560   1.847  0.00  0.00    +0.280 C 
ATOM     25  O   LIG    1        0.985   2.187   1.214  0.00  0.00    -0.464 OA
ENDBRANCH  22  25
ENDBRANCH  16  22
ENDBRANCH   1  20
TORSDOF 6
