REMARK  Name = ZINC00008815
REMARK                            x       y       z     vdW  Elec       q    Type
REMARK                         _______ _______ _______ _____ _____    ______ ____
ROOT
ATOM      1  C   LIG    1        0.033  -0.528   2.038  0.00  0.00    -0.043 A 
ATOM      2  C   LIG    1       -0.720  -0.263   3.168  0.00  0.00    +0.004 A 
ATOM      3  C   LIG    1       -0.305  -0.725   4.401  0.00  0.00    +0.009 A 
ATOM      4  C   LIG    1        0.874  -1.461   4.506  0.00  0.00    -0.018 A 
ATOM      5  C   LIG    1        1.629  -1.725   3.364  0.00  0.00    +0.009 A 
ATOM      6  C   LIG    1        1.202  -1.261   2.136  0.00  0.00    +0.004 A 
ENDROOT
BRANCH   4   7
ATOM      7  C   LIG    1        1.325  -1.960   5.827  0.00  0.00    -0.018 A 
ATOM      8  C   LIG    1        0.565  -1.698   6.967  0.00  0.00    +0.010 A 
ATOM      9  C   LIG    1        0.982  -2.161   8.195  0.00  0.00    +0.019 A 
ATOM     10  C   LIG    1        2.168  -2.893   8.298  0.00  0.00    +0.052 A 
ATOM     11  C   LIG    1        2.928  -3.155   7.155  0.00  0.00    +0.019 A 
ATOM     12  C   LIG    1        2.506  -2.695   5.928  0.00  0.00    +0.010 A 
BRANCH  10  13
ATOM     13  C   LIG    1        2.603  -3.375   9.575  0.00  0.00    +0.099 C 
ATOM     14  N   LIG    1        2.949  -3.757  10.587  0.00  0.00    -0.191 NA
ENDBRANCH  10  13
ENDBRANCH   4   7
BRANCH   1  16
ATOM     15  C   LIG    1       -0.510   1.507   0.730  0.00  0.00    +0.014 C 
ATOM     16  C   LIG    1       -0.425  -0.020   0.696  0.00  0.00    +0.031 C 
BRANCH  16  17
ATOM     17  C   LIG    1       -1.803  -0.600   0.374  0.00  0.00    +0.113 C 
BRANCH  17  18
ATOM     18  N   LIG    1       -2.196  -0.204  -0.981  0.00  0.00    -0.194 NA
ATOM     19  H   LIG    1       -1.717   0.506  -1.436  0.00  0.00    +0.148 HD
BRANCH  18  20
ATOM     20  S   LIG    1       -3.458  -0.967  -1.734  0.00  0.00    +0.032 S 
ATOM     21  O   LIG    1       -3.562  -0.333  -3.001  0.00  0.00    -0.158 OA
ATOM     22  O   LIG    1       -4.529  -0.902  -0.802  0.00  0.00    -0.158 OA
BRANCH  20  23
ATOM     23  C   LIG    1       -2.910  -2.684  -1.937  0.00  0.00    +0.142 C 
ATOM     24  C   LIG    1       -1.638  -2.716  -2.787  0.00  0.00    +0.033 C 
ATOM     25  C   LIG    1       -4.008  -3.491  -2.632  0.00  0.00    +0.033 C 
ENDBRANCH  20  23
ENDBRANCH  18  20
ENDBRANCH  17  18
ENDBRANCH  16  17
ENDBRANCH   1  16
TORSDOF 7
