REMARK  Name = ZINC45261493
REMARK                            x       y       z     vdW  Elec       q    Type
REMARK                         _______ _______ _______ _____ _____    ______ ____
ROOT
ATOM      1  C   LIG    1        0.050  -5.025  -3.652  0.00  0.00    +0.092 C 
ENDROOT
BRANCH   1   9
ATOM      2  C   LIG    1       -0.018   1.503   0.010  0.00  0.00    +0.044 C 
ATOM      3  C   LIG    1        0.002  -0.004   0.002  0.00  0.00    -0.047 A 
ATOM      4  C   LIG    1        0.006  -0.683  -1.197  0.00  0.00    +0.018 A 
ATOM      5  C   LIG    1        0.025  -2.079  -1.199  0.00  0.00    +0.060 A 
ATOM      6  C   LIG    1        0.040  -2.783   0.016  0.00  0.00    +0.143 A 
ATOM      7  O   LIG    1        0.057  -4.134   0.010  0.00  0.00    -0.422 OA
ATOM      8  C   LIG    1        0.060  -4.833  -1.136  0.00  0.00    +0.344 A 
ATOM      9  C   LIG    1        0.046  -4.202  -2.389  0.00  0.00    +0.084 A 
ATOM     10  O   LIG    1        0.076  -6.051  -1.087  0.00  0.00    -0.245 OA
ATOM     11  C   LIG    1        0.036  -2.080   1.213  0.00  0.00    +0.050 A 
ATOM     12  C   LIG    1        0.028  -2.836  -2.460  0.00  0.00    +0.138 A 
ATOM     13  C   LIG    1        0.023  -0.701   1.201  0.00  0.00    -0.044 A 
ATOM     14  C   LIG    1        0.025   0.057   2.504  0.00  0.00    +0.044 C 
BRANCH  12  15
ATOM     15  O   LIG    1        0.015  -2.201  -3.654  0.00  0.00    -0.506 OA
ATOM     16  H   LIG    1        0.019  -2.796  -4.416  0.00  0.00    +0.292 HD
ENDBRANCH  12  15
ENDBRANCH   1   9
BRANCH   1  17
ATOM     17  C   LIG    1        1.468  -5.385  -4.012  0.00  0.00    +0.084 A 
ATOM     18  C   LIG    1        1.991  -6.587  -3.622  0.00  0.00    +0.138 A 
ATOM     19  C   LIG    1        3.380  -6.891  -4.000  0.00  0.00    +0.060 A 
ATOM     20  C   LIG    1        3.978  -8.099  -3.636  0.00  0.00    +0.018 A 
ATOM     21  C   LIG    1        5.280  -8.353  -4.005  0.00  0.00    -0.047 A 
ATOM     22  C   LIG    1        5.931  -9.655  -3.615  0.00  0.00    +0.044 C 
ATOM     23  C   LIG    1        5.997  -7.415  -4.735  0.00  0.00    -0.044 A 
ATOM     24  C   LIG    1        7.421  -7.707  -5.131  0.00  0.00    +0.044 C 
ATOM     25  C   LIG    1        5.418  -6.218  -5.100  0.00  0.00    +0.050 A 
ATOM     26  C   LIG    1        4.106  -5.942  -4.738  0.00  0.00    +0.143 A 
ATOM     27  O   LIG    1        3.524  -4.775  -5.089  0.00  0.00    -0.422 OA
ATOM     28  C   LIG    1        2.255  -4.492  -4.754  0.00  0.00    +0.344 A 
ATOM     29  O   LIG    1        1.775  -3.426  -5.100  0.00  0.00    -0.245 OA
BRANCH  18  30
ATOM     30  O   LIG    1        1.254  -7.470  -2.911  0.00  0.00    -0.506 OA
ATOM     31  H   LIG    1        0.370  -7.263  -2.678  0.00  0.00    +0.292 HD
ENDBRANCH  18  30
ENDBRANCH   1  17
TORSDOF 4
