REMARK  Name = ZINC43025379
REMARK                            x       y       z     vdW  Elec       q    Type
REMARK                         _______ _______ _______ _____ _____    ______ ____
ROOT
ATOM      1  N   LIG    1        2.161  -4.467   1.069  0.00  0.00    -0.302 N 
ATOM      2  C   LIG    1        1.551  -4.589  -0.162  0.00  0.00    +0.074 A 
ATOM      3  C   LIG    1        0.198  -4.314  -0.322  0.00  0.00    +0.056 A 
ATOM      4  C   LIG    1       -0.370  -4.452  -1.583  0.00  0.00    +0.075 A 
ATOM      5  N   LIG    1        0.361  -4.840  -2.626  0.00  0.00    -0.253 NA
ATOM      6  C   LIG    1        1.642  -5.110  -2.522  0.00  0.00    +0.141 A 
ATOM      7  C   LIG    1        2.295  -4.997  -1.287  0.00  0.00    +0.108 A 
ATOM      8  N   LIG    1        3.609  -5.273  -1.177  0.00  0.00    -0.224 NA
ATOM      9  C   LIG    1        4.223  -5.169  -0.025  0.00  0.00    +0.185 A 
ATOM     10  C   LIG    1        3.481  -4.740   1.175  0.00  0.00    +0.292 A 
ATOM     11  O   LIG    1        4.048  -4.637   2.247  0.00  0.00    -0.264 OA
ENDROOT
BRANCH   4  12
ATOM     12  C   LIG    1       -1.811  -4.163  -1.770  0.00  0.00    +0.019 A 
ATOM     13  C   LIG    1       -2.429  -4.399  -3.005  0.00  0.00    +0.017 A 
ATOM     14  C   LIG    1       -3.774  -4.114  -3.131  0.00  0.00    +0.068 A 
ATOM     15  C   LIG    1       -4.466  -3.606  -2.037  0.00  0.00    +0.214 A 
ATOM     16  N   LIG    1       -3.853  -3.393  -0.884  0.00  0.00    -0.221 NA
ATOM     17  C   LIG    1       -2.572  -3.657  -0.719  0.00  0.00    +0.124 A 
BRANCH  15  18
ATOM     18  O   LIG    1       -5.787  -3.324  -2.154  0.00  0.00    -0.480 OA
ATOM     19  C   LIG    1       -6.445  -2.804  -0.996  0.00  0.00    +0.279 C 
ENDBRANCH  15  18
ENDBRANCH   4  12
BRANCH   9  20
ATOM     20  N   LIG    1        5.574  -5.457   0.065  0.00  0.00    -0.324 N 
ATOM     21  H   LIG    1        6.030  -5.380   0.918  0.00  0.00    +0.148 HD
BRANCH  20  22
ATOM     22  C   LIG    1        6.314  -5.878  -1.127  0.00  0.00    +0.118 C 
BRANCH  22  23
ATOM     23  C   LIG    1        7.777  -6.132  -0.755  0.00  0.00    +0.103 C 
BRANCH  23  24
ATOM     24  N   LIG    1        8.519  -6.554  -1.950  0.00  0.00    -0.297 NA
ATOM     25  C   LIG    1        8.053  -7.865  -2.425  0.00  0.00    +0.112 C 
ATOM     26  C   LIG    1        8.809  -8.238  -3.702  0.00  0.00    +0.175 C 
ATOM     27  O   LIG    1       10.215  -8.227  -3.438  0.00  0.00    -0.377 OA
ATOM     28  C   LIG    1       10.703  -6.965  -2.975  0.00  0.00    +0.175 C 
ATOM     29  C   LIG    1        9.966  -6.579  -1.690  0.00  0.00    +0.112 C 
ENDBRANCH  23  24
ENDBRANCH  22  23
ENDBRANCH  20  22
ENDBRANCH   9  20
BRANCH   1  30
ATOM     30  C   LIG    1        1.392  -4.043   2.242  0.00  0.00    +0.153 C 
BRANCH  30  31
ATOM     31  C   LIG    1        1.433  -2.518   2.355  0.00  0.00    +0.181 C 
BRANCH  31  32
ATOM     32  O   LIG    1        0.761  -1.940   1.234  0.00  0.00    -0.378 OA
BRANCH  32  33
ATOM     33  C   LIG    1        0.742  -0.511   1.242  0.00  0.00    +0.159 C 
BRANCH  33  35
ATOM     34  C   LIG    1       -0.019   1.526   0.010  0.00  0.00    +0.006 C 
ATOM     35  C   LIG    1        0.002  -0.004   0.002  0.00  0.00    +0.025 C 
ENDBRANCH  33  35
ENDBRANCH  32  33
ENDBRANCH  31  32
ENDBRANCH  30  31
ENDBRANCH   1  30
TORSDOF 11
