REMARK  Name = ZINC20108587
REMARK                            x       y       z     vdW  Elec       q    Type
REMARK                         _______ _______ _______ _____ _____    ______ ____
ROOT
ATOM      1  C   LIG    1       -8.731  -4.854  -1.162  0.00  0.00    +0.034 A 
ATOM      2  C   LIG    1       -9.422  -5.102   0.029  0.00  0.00    +0.025 A 
ATOM      3  C   LIG    1      -10.665  -5.653   0.014  0.00  0.00    +0.030 A 
ATOM      4  C   LIG    1      -11.274  -5.982  -1.210  0.00  0.00    +0.073 A 
ATOM      5  C   LIG    1      -10.579  -5.734  -2.419  0.00  0.00    +0.005 A 
ATOM      6  C   LIG    1      -11.193  -6.066  -3.644  0.00  0.00    -0.038 A 
ATOM      7  C   LIG    1      -10.489  -5.818  -4.953  0.00  0.00    +0.044 C 
ATOM      8  C   LIG    1      -12.439  -6.616  -3.614  0.00  0.00    +0.047 A 
ATOM      9  C   LIG    1      -13.075  -6.837  -2.384  0.00  0.00    +0.122 A 
ATOM     10  N   LIG    1      -12.497  -6.525  -1.243  0.00  0.00    -0.232 NA
ATOM     11  C   LIG    1       -9.300  -5.160  -2.379  0.00  0.00    +0.033 A 
ENDROOT
BRANCH   9  12
ATOM     12  N   LIG    1      -14.345  -7.398  -2.369  0.00  0.00    -0.319 N 
ATOM     13  C   LIG    1      -15.138  -7.441  -1.131  0.00  0.00    +0.088 C 
ATOM     14  C   LIG    1      -16.532  -6.877  -1.428  0.00  0.00    -0.060 C 
ATOM     15  N   LIG    1      -17.125  -7.609  -2.554  0.00  0.00    +0.382 N 
ATOM     16  H   LIG    1      -17.136  -8.596  -2.344  0.00  0.00    -0.082 HD
ATOM     17  C   LIG    1      -16.338  -7.377  -3.772  0.00  0.00    -0.060 C 
ATOM     18  C   LIG    1      -14.938  -7.960  -3.593  0.00  0.00    +0.088 C 
BRANCH  15  19
ATOM     19  C   LIG    1      -18.502  -7.143  -2.767  0.00  0.00    -0.082 C 
ATOM     20  C   LIG    1      -19.164  -7.989  -3.856  0.00  0.00    -0.017 C 
ENDBRANCH  15  19
ENDBRANCH   9  12
BRANCH   1  22
ATOM     21  C   LIG    1       -6.609  -4.605  -0.115  0.00  0.00    +0.248 C 
ATOM     22  N   LIG    1       -7.453  -4.287  -1.117  0.00  0.00    -0.281 N 
ATOM     23  H   LIG    1       -7.174  -3.664  -1.806  0.00  0.00    +0.155 HD
ATOM     24  O   LIG    1       -6.986  -5.319   0.793  0.00  0.00    -0.270 OA
BRANCH  21  28
ATOM     25  C   LIG    1       -2.632  -3.115  -0.134  0.00  0.00    -0.047 A 
ATOM     26  C   LIG    1       -3.058  -3.927   0.902  0.00  0.00    +0.004 A 
ATOM     27  C   LIG    1       -4.349  -4.414   0.914  0.00  0.00    +0.013 A 
ATOM     28  C   LIG    1       -5.225  -4.086  -0.121  0.00  0.00    +0.037 A 
ATOM     29  C   LIG    1       -4.788  -3.267  -1.164  0.00  0.00    +0.013 A 
ATOM     30  C   LIG    1       -3.497  -2.781  -1.161  0.00  0.00    +0.004 A 
BRANCH  25  31
ATOM     31  C   LIG    1       -1.221  -2.585  -0.140  0.00  0.00    +0.035 C 
BRANCH  31  32
ATOM     32  C   LIG    1       -1.175  -1.246   0.598  0.00  0.00    +0.004 C 
BRANCH  32  34
ATOM     33  C   LIG    1        0.303   0.631   1.329  0.00  0.00    +0.004 C 
ATOM     34  C   LIG    1        0.257  -0.709   0.592  0.00  0.00    -0.003 C 
ENDBRANCH  32  34
ENDBRANCH  31  32
ENDBRANCH  25  31
ENDBRANCH  21  28
ENDBRANCH   1  22
TORSDOF 7
