REMARK  Name = ZINC29486259
REMARK                            x       y       z     vdW  Elec       q    Type
REMARK                         _______ _______ _______ _____ _____    ______ ____
ROOT
ATOM      1  N   LIG    1       -2.569  -8.121  -2.316  0.00  0.00    -0.260 N 
ATOM      2  C   LIG    1       -2.483  -8.508  -3.606  0.00  0.00    +0.281 A 
ATOM      3  C   LIG    1       -2.670  -9.873  -3.916  0.00  0.00    +0.132 A 
ATOM      4  C   LIG    1       -2.935 -10.759  -2.873  0.00  0.00    +0.107 A 
ATOM      5  N   LIG    1       -3.007 -10.303  -1.611  0.00  0.00    -0.194 NA
ATOM      6  C   LIG    1       -3.081 -12.088  -3.482  0.00  0.00    +0.026 A 
ATOM      7  C   LIG    1       -3.348 -13.357  -2.968  0.00  0.00    +0.012 A 
ATOM      8  C   LIG    1       -3.426 -14.431  -3.810  0.00  0.00    +0.001 A 
ATOM      9  C   LIG    1       -3.242 -14.268  -5.176  0.00  0.00    +0.002 A 
ATOM     10  C   LIG    1       -2.978 -13.025  -5.705  0.00  0.00    +0.026 A 
ATOM     11  C   LIG    1       -2.894 -11.917  -4.865  0.00  0.00    +0.049 A 
ATOM     12  N   LIG    1       -2.649 -10.582  -5.105  0.00  0.00    -0.349 N 
ATOM     13  H   LIG    1       -2.485 -10.195  -5.980  0.00  0.00    +0.166 HD
ATOM     14  O   LIG    1       -2.249  -7.697  -4.486  0.00  0.00    -0.265 OA
ATOM     15  C   LIG    1       -2.825  -9.034  -1.339  0.00  0.00    +0.299 A 
ENDROOT
BRANCH  15  16
ATOM     16  O   LIG    1       -2.899  -8.620  -0.055  0.00  0.00    -0.479 OA
ATOM     17  H   LIG    1       -2.771  -7.715   0.153  0.00  0.00    +0.295 HD
ENDBRANCH  15  16
BRANCH   1  18
ATOM     18  C   LIG    1       -2.380  -6.712  -1.964  0.00  0.00    +0.145 C 
BRANCH  18  19
ATOM     19  C   LIG    1       -0.898  -6.450  -1.685  0.00  0.00    +0.106 C 
BRANCH  19  23
ATOM     20  N   LIG    1        0.098  -2.778   0.086  0.00  0.00    -0.325 N 
ATOM     21  C   LIG    1        0.871  -3.179  -1.099  0.00  0.00    +0.120 C 
ATOM     22  C   LIG    1        0.719  -4.692  -1.290  0.00  0.00    +0.103 C 
ATOM     23  N   LIG    1       -0.708  -5.037  -1.333  0.00  0.00    -0.298 NA
ATOM     24  C   LIG    1       -1.372  -4.717  -0.062  0.00  0.00    +0.103 C 
ATOM     25  C   LIG    1       -1.305  -3.211   0.182  0.00  0.00    +0.120 C 
BRANCH  20  31
ATOM     26  C   LIG    1        0.626  -0.619   1.042  0.00  0.00    +0.141 A 
ATOM     27  C   LIG    1        1.202   0.136   2.051  0.00  0.00    +0.047 A 
ATOM     28  C   LIG    1        1.837  -0.490   3.107  0.00  0.00    +0.004 A 
ATOM     29  C   LIG    1        1.899  -1.870   3.162  0.00  0.00    +0.002 A 
ATOM     30  C   LIG    1        1.326  -2.631   2.160  0.00  0.00    +0.027 A 
ATOM     31  C   LIG    1        0.683  -2.010   1.099  0.00  0.00    +0.072 A 
BRANCH  26  33
ATOM     32  C   LIG    1       -0.017   1.425   0.010  0.00  0.00    +0.277 C 
ATOM     33  O   LIG    1        0.002  -0.004   0.002  0.00  0.00    -0.493 OA
ENDBRANCH  26  33
ENDBRANCH  20  31
ENDBRANCH  19  23
ENDBRANCH  18  19
ENDBRANCH   1  18
TORSDOF 6
