REMARK  Name = ZINC18172743
REMARK                            x       y       z     vdW  Elec       q    Type
REMARK                         _______ _______ _______ _____ _____    ______ ____
ROOT
ATOM      1  C   LIG    1       -2.797   3.136  -4.013  0.00  0.00    +0.120 C 
ENDROOT
BRANCH   1   2
ATOM      2  N   LIG    1       -1.428   3.077  -3.483  0.00  0.00    -0.342 N 
ATOM      3  H   LIG    1       -0.762   3.410  -4.164  0.00  0.00    +0.146 HD
BRANCH   2   9
ATOM      4  C   LIG    1       -0.782   7.247  -3.468  0.00  0.00    +0.001 A 
ATOM      5  C   LIG    1       -0.685   7.919  -2.252  0.00  0.00    +0.002 A 
ATOM      6  C   LIG    1       -0.795   7.253  -1.070  0.00  0.00    +0.028 A 
ATOM      7  C   LIG    1       -1.009   5.863  -1.070  0.00  0.00    +0.073 A 
ATOM      8  C   LIG    1       -1.107   5.184  -2.308  0.00  0.00    +0.021 A 
ATOM      9  C   LIG    1       -1.323   3.788  -2.297  0.00  0.00    +0.041 A 
ATOM     10  C   LIG    1       -1.429   3.143  -1.068  0.00  0.00    -0.005 A 
ATOM     11  C   LIG    1       -1.319   3.874   0.102  0.00  0.00    +0.047 A 
ATOM     12  C   LIG    1       -1.410   3.228   1.462  0.00  0.00    +0.056 C 
ATOM     13  C   LIG    1       -2.062   1.851   1.361  0.00  0.00    +0.006 C 
ATOM     14  C   LIG    1       -1.331   1.047   0.279  0.00  0.00    +0.005 C 
ATOM     15  C   LIG    1       -1.665   1.655  -1.081  0.00  0.00    +0.039 C 
ATOM     16  N   LIG    1       -1.120   5.181   0.070  0.00  0.00    -0.251 NA
ATOM     17  C   LIG    1       -0.990   5.901  -3.506  0.00  0.00    +0.012 A 
ENDBRANCH   2   9
ENDBRANCH   1   2
BRANCH   1  18
ATOM     18  C   LIG    1       -2.902   2.246  -5.253  0.00  0.00    +0.120 C 
BRANCH  18  19
ATOM     19  N   LIG    1       -4.271   2.305  -5.783  0.00  0.00    -0.342 N 
ATOM     20  H   LIG    1       -4.946   2.098  -5.063  0.00  0.00    +0.146 HD
BRANCH  19  21
ATOM     21  C   LIG    1       -4.421   1.452  -6.866  0.00  0.00    +0.041 A 
ATOM     22  C   LIG    1       -4.692   0.079  -6.673  0.00  0.00    +0.021 A 
ATOM     23  C   LIG    1       -4.828  -0.470  -5.390  0.00  0.00    +0.012 A 
ATOM     24  C   LIG    1       -5.096  -1.799  -5.252  0.00  0.00    +0.001 A 
ATOM     25  C   LIG    1       -5.241  -2.617  -6.369  0.00  0.00    +0.002 A 
ATOM     26  C   LIG    1       -5.120  -2.114  -7.628  0.00  0.00    +0.028 A 
ATOM     27  C   LIG    1       -4.845  -0.748  -7.811  0.00  0.00    +0.073 A 
ATOM     28  N   LIG    1       -4.720  -0.224  -9.031  0.00  0.00    -0.251 NA
ATOM     29  C   LIG    1       -4.457   1.056  -9.233  0.00  0.00    +0.047 A 
ATOM     30  C   LIG    1       -4.332   1.512 -10.666  0.00  0.00    +0.056 C 
ATOM     31  C   LIG    1       -4.468   3.029 -10.762  0.00  0.00    +0.006 C 
ATOM     32  C   LIG    1       -3.497   3.668  -9.762  0.00  0.00    +0.005 C 
ATOM     33  C   LIG    1       -4.012   3.393  -8.351  0.00  0.00    +0.039 C 
ATOM     34  C   LIG    1       -4.303   1.927  -8.169  0.00  0.00    -0.005 A 
ENDBRANCH  19  21
ENDBRANCH  18  19
ENDBRANCH   1  18
TORSDOF 5
