REMARK  Name = ZINC20289400
REMARK                            x       y       z     vdW  Elec       q    Type
REMARK                         _______ _______ _______ _____ _____    ______ ____
ROOT
ATOM      1  C   LIG    1        1.662   7.549  -1.035  0.00  0.00    +0.114 C 
ENDROOT
BRANCH   1   2
ATOM      2  N   LIG    1        1.957   6.117  -0.892  0.00  0.00    -0.290 NA
ATOM      3  C   LIG    1        2.627   5.842   0.387  0.00  0.00    +0.104 C 
ATOM      4  C   LIG    1        2.987   4.356   0.461  0.00  0.00    +0.120 C 
ATOM      5  N   LIG    1        1.766   3.551   0.326  0.00  0.00    -0.327 N 
ATOM      6  C   LIG    1        1.096   3.826  -0.953  0.00  0.00    +0.120 C 
ATOM      7  C   LIG    1        0.735   5.311  -1.027  0.00  0.00    +0.104 C 
BRANCH   5   8
ATOM      8  C   LIG    1        2.047   2.187   0.462  0.00  0.00    +0.030 A 
ATOM      9  C   LIG    1        1.023   1.254   0.366  0.00  0.00    +0.027 A 
ATOM     10  C   LIG    1        1.301  -0.093   0.500  0.00  0.00    +0.047 A 
ATOM     11  C   LIG    1        2.603  -0.513   0.729  0.00  0.00    +0.120 A 
ATOM     12  C   LIG    1        3.626   0.419   0.826  0.00  0.00    +0.047 A 
ATOM     13  C   LIG    1        3.349   1.765   0.693  0.00  0.00    +0.027 A 
BRANCH  11  14
ATOM     14  O   LIG    1        2.876  -1.839   0.860  0.00  0.00    -0.495 OA
ATOM     15  C   LIG    1        4.238  -2.200   1.095  0.00  0.00    +0.277 C 
ENDBRANCH  11  14
ENDBRANCH   5   8
ENDBRANCH   1   2
BRANCH   1  16
ATOM     16  C   LIG    1        0.931   8.035   0.190  0.00  0.00    +0.009 A 
ATOM     17  C   LIG    1        1.173   9.132   0.949  0.00  0.00    +0.013 A 
ATOM     18  C   LIG    1        0.362   9.385   2.039  0.00  0.00    +0.008 A 
ATOM     19  C   LIG    1       -0.650   8.528   2.318  0.00  0.00    +0.045 A 
ATOM     20  S   LIG    1       -0.482   7.321   1.013  0.00  0.00    -0.100 S 
ENDBRANCH   1  16
BRANCH   1  22
ATOM     21  C   LIG    1        1.531   7.275  -3.515  0.00  0.00    +0.030 C 
ATOM     22  C   LIG    1        0.788   7.769  -2.271  0.00  0.00    +0.092 C 
BRANCH  22  23
ATOM     23  N   LIG    1        0.494   9.197  -2.413  0.00  0.00    -0.303 N 
ATOM     24  H   LIG    1        1.176   9.945  -1.982  0.00  0.00    +0.149 HD
ATOM     25  C   LIG    1       -0.611   9.595  -3.073  0.00  0.00    +0.299 C 
ATOM     26  O   LIG    1       -1.363   8.770  -3.550  0.00  0.00    -0.265 OA
BRANCH  25  27
ATOM     27  C   LIG    1       -0.911  11.052  -3.218  0.00  0.00    +0.299 C 
ATOM     28  N   LIG    1       -2.017  11.450  -3.878  0.00  0.00    -0.300 N 
ATOM     29  H   LIG    1       -2.699  10.702  -4.310  0.00  0.00    +0.150 HD
ATOM     30  O   LIG    1       -0.159  11.876  -2.742  0.00  0.00    -0.265 OA
BRANCH  28  31
ATOM     31  C   LIG    1       -2.311  12.878  -4.020  0.00  0.00    +0.179 C 
BRANCH  31  32
ATOM     32  C   LIG    1       -3.594  13.052  -4.793  0.00  0.00    +0.122 A 
ATOM     33  C   LIG    1       -4.828  13.120  -4.263  0.00  0.00    +0.046 A 
ATOM     34  C   LIG    1       -5.728  13.284  -5.341  0.00  0.00    +0.041 A 
ATOM     35  C   LIG    1       -4.990  13.307  -6.465  0.00  0.00    +0.195 A 
ATOM     36  O   LIG    1       -3.697  13.172  -6.126  0.00  0.00    -0.466 OA
ENDBRANCH  31  32
ENDBRANCH  28  31
ENDBRANCH  25  27
ENDBRANCH  22  23
ENDBRANCH   1  22
TORSDOF 9
