REMARK  Name = ZINC53312872
REMARK                            x       y       z     vdW  Elec       q    Type
REMARK                         _______ _______ _______ _____ _____    ______ ____
ROOT
ATOM      1  O   LIG    1        0.106  -7.069   2.300  0.00  0.00    -0.460 OA
ENDROOT
BRANCH   1   2
ATOM      2  C   LIG    1        0.092  -6.389   1.135  0.00  0.00    +0.332 C 
ATOM      3  O   LIG    1        0.094  -6.991   0.079  0.00  0.00    -0.246 OA
BRANCH   2   5
ATOM      4  C   LIG    1        0.058  -4.245  -0.021  0.00  0.00    +0.015 C 
ATOM      5  C   LIG    1        0.073  -4.926   1.143  0.00  0.00    +0.092 C 
BRANCH   4  10
ATOM      6  C   LIG    1       -0.018   1.503   0.010  0.00  0.00    +0.044 C 
ATOM      7  C   LIG    1        0.002  -0.004   0.002  0.00  0.00    -0.050 A 
ATOM      8  C   LIG    1        0.006  -0.686  -1.202  0.00  0.00    +0.004 A 
ATOM      9  C   LIG    1        0.024  -2.064  -1.218  0.00  0.00    +0.008 A 
ATOM     10  C   LIG    1        0.039  -2.774  -0.013  0.00  0.00    -0.025 A 
ATOM     11  C   LIG    1        0.036  -2.078   1.200  0.00  0.00    +0.008 A 
ATOM     12  C   LIG    1        0.023  -0.699   1.199  0.00  0.00    +0.004 A 
ENDBRANCH   4  10
ENDBRANCH   2   5
ENDBRANCH   1   2
BRANCH   1  13
ATOM     13  C   LIG    1        0.125  -8.496   2.217  0.00  0.00    +0.254 C 
BRANCH  13  14
ATOM     14  C   LIG    1        0.139  -9.088   3.628  0.00  0.00    +0.166 C 
BRANCH  14  15
ATOM     15  N   LIG    1        0.158 -10.551   3.543  0.00  0.00    -0.306 N 
ATOM     16  C   LIG    1       -0.919 -11.364   3.497  0.00  0.00    +0.108 A 
ATOM     17  C   LIG    1       -2.358 -10.919   3.524  0.00  0.00    +0.086 C 
ATOM     18  N   LIG    1       -0.506 -12.600   3.425  0.00  0.00    -0.239 NA
ATOM     19  C   LIG    1        0.835 -12.620   3.423  0.00  0.00    +0.164 A 
ATOM     20  C   LIG    1        1.270 -11.347   3.490  0.00  0.00    +0.211 A 
BRANCH  20  21
ATOM     21  N   LIG    1        2.680 -10.897   3.507  0.00  0.00    +0.025 N 
ATOM     22  O   LIG    1        2.937  -9.717   3.573  0.00  0.00    -0.128 OA
BRANCH  21  23
ATOM     23  O   LIG    1        3.575 -11.708   3.454  0.00  0.00    -0.395 OA
ATOM     24  H   LIG    1        3.375 -12.622   3.403  0.00  0.00    +0.329 HD
ENDBRANCH  21  23
ENDBRANCH  20  21
ENDBRANCH  14  15
ENDBRANCH  13  14
ENDBRANCH   1  13
TORSDOF 8
