REMARK  Name = ZINC16042697
REMARK                            x       y       z     vdW  Elec       q    Type
REMARK                         _______ _______ _______ _____ _____    ______ ____
ROOT
ATOM      1  N   LIG    1        5.288   3.361   2.254  0.00  0.00    -0.291 N 
ATOM      2  C   LIG    1        4.821   2.118   2.844  0.00  0.00    +0.203 C 
ATOM      3  C   LIG    1        3.869   1.394   1.949  0.00  0.00    +0.234 C 
ATOM      4  N   LIG    1        3.505   1.816   0.736  0.00  0.00    -0.276 N 
ATOM      5  C   LIG    1        4.064   3.010   0.104  0.00  0.00    +0.167 C 
ATOM      6  C   LIG    1        4.854   2.596  -1.145  0.00  0.00    +0.069 C 
ATOM      7  C   LIG    1        4.033   1.607  -1.932  0.00  0.00    -0.015 A 
ATOM      8  C   LIG    1        4.191   1.208  -3.316  0.00  0.00    +0.003 A 
ATOM      9  C   LIG    1        5.094   1.587  -4.314  0.00  0.00    +0.010 A 
ATOM     10  C   LIG    1        4.946   0.992  -5.543  0.00  0.00    +0.001 A 
ATOM     11  C   LIG    1        3.953   0.059  -5.794  0.00  0.00    +0.002 A 
ATOM     12  C   LIG    1        3.048  -0.335  -4.824  0.00  0.00    +0.026 A 
ATOM     13  C   LIG    1        3.174   0.252  -3.567  0.00  0.00    +0.047 A 
ATOM     14  N   LIG    1        2.466   0.098  -2.409  0.00  0.00    -0.356 N 
ATOM     15  H   LIG    1        1.710  -0.498  -2.292  0.00  0.00    +0.166 HD
ATOM     16  C   LIG    1        2.985   0.913  -1.438  0.00  0.00    +0.046 A 
ATOM     17  C   LIG    1        2.490   1.048  -0.016  0.00  0.00    +0.154 C 
ATOM     18  O   LIG    1        3.396   0.352   2.351  0.00  0.00    -0.274 OA
ATOM     19  C   LIG    1        4.959   3.756   1.040  0.00  0.00    +0.237 C 
ATOM     20  O   LIG    1        5.420   4.813   0.664  0.00  0.00    -0.274 OA
ENDROOT
BRANCH  17  21
ATOM     21  C   LIG    1        1.175   1.783   0.000  0.00  0.00    -0.021 A 
ATOM     22  C   LIG    1        1.110   3.071   0.499  0.00  0.00    +0.006 A 
ATOM     23  C   LIG    1       -0.098   3.744   0.519  0.00  0.00    +0.000 A 
ATOM     24  C   LIG    1       -1.238   3.133   0.031  0.00  0.00    +0.000 A 
ATOM     25  C   LIG    1       -1.173   1.845  -0.467  0.00  0.00    +0.000 A 
ATOM     26  C   LIG    1        0.034   1.170  -0.482  0.00  0.00    +0.006 A 
ENDBRANCH  17  21
BRANCH   1  27
ATOM     27  C   LIG    1        6.176   4.212   3.050  0.00  0.00    +0.108 C 
BRANCH  27  28
ATOM     28  C   LIG    1        7.631   3.821   2.783  0.00  0.00    +0.019 C 
BRANCH  28  30
ATOM     29  C   LIG    1       10.014   4.318   3.348  0.00  0.00    +0.004 C 
ATOM     30  C   LIG    1        8.559   4.709   3.614  0.00  0.00    -0.002 C 
ENDBRANCH  28  30
ENDBRANCH  27  28
ENDBRANCH   1  27
TORSDOF 4
