REMARK  Name = ZINC28824596
REMARK                            x       y       z     vdW  Elec       q    Type
REMARK                         _______ _______ _______ _____ _____    ______ ____
ROOT
ATOM      1  C   LIG    1       -6.733  -3.167   0.005  0.00  0.00    +0.045 C 
ATOM      2  C   LIG    1       -5.964  -1.871   0.013  0.00  0.00    -0.030 A 
ATOM      3  C   LIG    1       -4.582  -1.882   0.016  0.00  0.00    +0.034 A 
ATOM      4  C   LIG    1       -3.911  -0.654   0.018  0.00  0.00    +0.086 A 
ATOM      5  C   LIG    1       -4.666   0.534   0.028  0.00  0.00    +0.178 A 
ATOM      6  N   LIG    1       -5.988   0.486   0.030  0.00  0.00    -0.234 NA
ATOM      7  N   LIG    1       -3.751   1.566   0.034  0.00  0.00    -0.208 NA
ATOM      8  C   LIG    1       -2.502   1.004   0.018  0.00  0.00    +0.141 A 
ATOM      9  N   LIG    1       -2.603  -0.303   0.013  0.00  0.00    -0.337 N 
ATOM     10  H   LIG    1       -1.825  -1.080   0.005  0.00  0.00    +0.167 HD
ATOM     11  C   LIG    1       -6.638  -0.660   0.023  0.00  0.00    +0.116 A 
ENDROOT
BRANCH   8  12
ATOM     12  C   LIG    1       -1.231   1.758   0.010  0.00  0.00    +0.017 A 
ATOM     13  C   LIG    1       -0.013   1.076   0.001  0.00  0.00    +0.013 A 
ATOM     14  C   LIG    1        1.170   1.781  -0.012  0.00  0.00    +0.024 A 
ATOM     15  C   LIG    1        1.152   3.172  -0.011  0.00  0.00    +0.029 A 
ATOM     16  C   LIG    1       -0.060   3.855   0.003  0.00  0.00    +0.024 A 
ATOM     17  C   LIG    1       -1.246   3.155   0.016  0.00  0.00    +0.013 A 
BRANCH  15  18
ATOM     18  N   LIG    1        2.350   3.883  -0.025  0.00  0.00    -0.336 N 
ATOM     19  C   LIG    1        2.333   5.348  -0.024  0.00  0.00    +0.129 C 
ATOM     20  C   LIG    1        3.628   3.166  -0.040  0.00  0.00    +0.129 C 
ENDBRANCH  15  18
ENDBRANCH   8  12
TORSDOF 2
