REMARK  Name = ZINC00005284
REMARK                            x       y       z     vdW  Elec       q    Type
REMARK                         _______ _______ _______ _____ _____    ______ ____
ROOT
ATOM      1  C   LIG    1        2.470   3.730  -0.002  0.00  0.00    +0.019 A 
ATOM      2  C   LIG    1        2.473   5.115   0.005  0.00  0.00    +0.036 A 
ATOM      3  CA  LIG    1        1.258   5.797   0.020  0.00  0.00    +0.147 A 
ATOM      4  N   LIG    1        0.106   5.136   0.027  0.00  0.00    -0.248 NA
ATOM      5  C   LIG    1        0.061   3.824   0.016  0.00  0.00    +0.126 A 
ATOM      6  C   LIG    1        1.238   3.068   0.007  0.00  0.00    +0.077 A 
ENDROOT
BRANCH   3   7
ATOM      7  C   LIG    1        1.251   7.280   0.028  0.00  0.00    +0.355 C 
ATOM      8  O   LIG    1        2.300   7.891   0.021  0.00  0.00    -0.243 OA
BRANCH   7   9
ATOM      9  OXT LIG    1        0.082   7.947   0.042  0.00  0.00    -0.476 OA
ATOM     10  HXT LIG    1       -0.727   7.475   0.047  0.00  0.00    +0.295 HD
ENDBRANCH   7   9
ENDBRANCH   3   7
BRANCH   6  11
ATOM     11  C   LIG    1        1.181   1.591  -0.001  0.00  0.00    +0.338 C 
ATOM     12  O   LIG    1        2.208   0.943  -0.014  0.00  0.00    -0.245 OA
BRANCH  11  13
ATOM     13  O   LIG    1       -0.011   0.963   0.007  0.00  0.00    -0.477 OA
ATOM     14  H   LIG    1       -0.804   1.462   0.018  0.00  0.00    +0.295 HD
ENDBRANCH  11  13
ENDBRANCH   6  11
TORSDOF 4
