REMARK  Name = ZINC28469972
REMARK                            x       y       z     vdW  Elec       q    Type
REMARK                         _______ _______ _______ _____ _____    ______ ____
ROOT
ATOM      1  C   LIG    1        1.417   2.055  -0.000  0.00  0.00    +0.110 C 
ENDROOT
BRANCH   1   2
ATOM      2  C   LIG    1        2.108   1.659   1.279  0.00  0.00    +0.308 C 
ATOM      3  O   LIG    1        3.111   0.966   1.240  0.00  0.00    -0.251 OA
BRANCH   2   4
ATOM      4  O   LIG    1        1.665   2.031   2.352  0.00  0.00    -0.480 OA
ATOM      5  H   LIG    1        0.894   2.564   2.381  0.00  0.00    +0.295 HD
ENDBRANCH   2   4
ENDBRANCH   1   2
BRANCH   1   6
ATOM      6  C   LIG    1       -0.019   1.526   0.010  0.00  0.00    +0.026 C 
BRANCH   6   7
ATOM      7  C   LIG    1        0.002  -0.004   0.002  0.00  0.00    +0.121 C 
BRANCH   7   8
ATOM      8  C   LIG    1       -1.412  -0.526   0.013  0.00  0.00    +0.305 C 
ATOM      9  O   LIG    1       -2.349   0.254   0.026  0.00  0.00    -0.251 OA
BRANCH   8  10
ATOM     10  O   LIG    1       -1.618  -1.727   0.008  0.00  0.00    -0.481 OA
ATOM     11  H   LIG    1       -0.898  -2.326  -0.002  0.00  0.00    +0.295 HD
ENDBRANCH   8  10
ENDBRANCH   7   8
ENDBRANCH   6   7
ENDBRANCH   1   6
BRANCH   1  12
ATOM     12  C   LIG    1        1.397   3.581  -0.118  0.00  0.00    +0.141 C 
BRANCH  12  13
ATOM     13  P   LIG    1        3.058   4.177  -0.575  0.00  0.00    +0.329 P 
ATOM     14  O   LIG    1        4.092   3.651   0.444  0.00  0.00    -0.259 OA
BRANCH  13  15
ATOM     15  O   LIG    1        3.070   5.787  -0.571  0.00  0.00    -0.324 OA
ATOM     16  H   LIG    1        3.924   6.174  -0.806  0.00  0.00    +0.220 HD
ENDBRANCH  13  15
BRANCH  13  17
ATOM     17  O   LIG    1        3.418   3.663  -1.987  0.00  0.00    -0.324 OA
ATOM     18  H   LIG    1        3.411   2.693  -1.990  0.00  0.00    +0.220 HD
ENDBRANCH  13  17
ENDBRANCH  12  13
ENDBRANCH   1  12
TORSDOF 10
