REMARK  Name = ZINC13766762
REMARK                            x       y       z     vdW  Elec       q    Type
REMARK                         _______ _______ _______ _____ _____    ______ ____
ROOT
ATOM      1  C   LIG    1       -1.975   1.163   1.348  0.00  0.00    +0.121 A 
ATOM      2  C   LIG    1       -2.584   0.358   0.381  0.00  0.00    +0.046 A 
ATOM      3  C   LIG    1       -3.875  -0.047   0.520  0.00  0.00    +0.012 A 
ATOM      4  C   LIG    1       -4.614   0.357   1.645  0.00  0.00    -0.016 A 
ATOM      5  C   LIG    1       -4.001   1.178   2.625  0.00  0.00    -0.014 A 
ATOM      6  C   LIG    1       -4.742   1.580   3.749  0.00  0.00    +0.008 A 
ATOM      7  C   LIG    1       -6.035   1.177   3.883  0.00  0.00    +0.001 A 
ATOM      8  C   LIG    1       -6.638   0.370   2.920  0.00  0.00    +0.002 A 
ATOM      9  C   LIG    1       -5.951  -0.039   1.818  0.00  0.00    -0.057 A 
ATOM     10  C   LIG    1       -2.664   1.574   2.453  0.00  0.00    +0.054 A 
ENDROOT
BRANCH   1  12
ATOM     11  C   LIG    1       -0.013   1.086   0.008  0.00  0.00    +0.277 C 
ATOM     12  O   LIG    1       -0.682   1.547   1.184  0.00  0.00    -0.495 OA
ENDBRANCH   1  12
BRANCH   9  13
ATOM     13  C   LIG    1       -6.622  -0.912   0.789  0.00  0.00    -0.050 C 
BRANCH  13  14
ATOM     14  N   LIG    1       -6.231  -2.314   1.020  0.00  0.00    +0.381 N 
ATOM     15  H   LIG    1       -6.551  -2.604   1.952  0.00  0.00    -0.090 HD
ATOM     16  H   LIG    1       -5.217  -2.406   0.974  0.00  0.00    -0.090 HD
ATOM     17  H   LIG    1       -6.658  -2.916   0.319  0.00  0.00    -0.090 HD
ENDBRANCH  13  14
ENDBRANCH   9  13
TORSDOF 3
