REMARK  Name = ZINC29222893
REMARK                            x       y       z     vdW  Elec       q    Type
REMARK                         _______ _______ _______ _____ _____    ______ ____
ROOT
ATOM      1  C   LIG    1       -5.013   3.821  -0.033  0.00  0.00    +0.186 C 
ENDROOT
BRANCH   1   2
ATOM      2  N   LIG    1       -3.724   3.125  -0.048  0.00  0.00    -0.298 N 
ATOM      3  H   LIG    1       -3.692   2.029  -0.136  0.00  0.00    +0.150 HD
ATOM      4  C   LIG    1       -2.578   3.828   0.046  0.00  0.00    +0.245 C 
ATOM      5  O   LIG    1       -2.614   5.040   0.143  0.00  0.00    -0.270 OA
BRANCH   4   6
ATOM      6  C   LIG    1       -1.280   3.128   0.031  0.00  0.00    +0.044 A 
ATOM      7  C   LIG    1       -1.231   1.742   0.046  0.00  0.00    +0.013 A 
ATOM      8  C   LIG    1       -0.012   1.076   0.037  0.00  0.00    +0.001 A 
ATOM      9  C   LIG    1        1.165   1.761   0.001  0.00  0.00    +0.008 A 
ATOM     10  C   LIG    1        1.163   3.167  -0.021  0.00  0.00    -0.017 A 
ATOM     11  C   LIG    1        2.365   3.895  -0.059  0.00  0.00    +0.008 A 
ATOM     12  C   LIG    1        2.327   5.256  -0.081  0.00  0.00    +0.001 A 
ATOM     13  C   LIG    1        1.113   5.939  -0.066  0.00  0.00    +0.001 A 
ATOM     14  C   LIG    1       -0.070   5.264  -0.030  0.00  0.00    +0.009 A 
ATOM     15  C   LIG    1       -0.069   3.863  -0.007  0.00  0.00    -0.006 A 
ENDBRANCH   4   6
ENDBRANCH   1   2
BRANCH   1  16
ATOM     16  C   LIG    1       -5.442   4.054   1.393  0.00  0.00    +0.328 C 
ATOM     17  O   LIG    1       -4.742   3.677   2.303  0.00  0.00    -0.249 OA
BRANCH  16  19
ATOM     18  C   LIG    1       -6.950   4.870   3.049  0.00  0.00    +0.280 C 
ATOM     19  O   LIG    1       -6.601   4.680   1.652  0.00  0.00    -0.467 OA
ENDBRANCH  16  19
ENDBRANCH   1  16
BRANCH   1  20
ATOM     20  C   LIG    1       -6.062   2.967  -0.748  0.00  0.00    +0.069 C 
BRANCH  20  21
ATOM     21  C   LIG    1       -5.697   2.837  -2.204  0.00  0.00    -0.045 A 
ATOM     22  C   LIG    1       -6.167   3.759  -3.120  0.00  0.00    +0.006 A 
ATOM     23  C   LIG    1       -5.829   3.642  -4.455  0.00  0.00    +0.033 A 
ATOM     24  C   LIG    1       -5.026   2.597  -4.875  0.00  0.00    +0.122 A 
ATOM     25  C   LIG    1       -4.560   1.672  -3.960  0.00  0.00    +0.033 A 
ATOM     26  C   LIG    1       -4.895   1.792  -2.624  0.00  0.00    +0.006 A 
BRANCH  24  27
ATOM     27  N   LIG    1       -4.667   2.470  -6.305  0.00  0.00    +0.006 N 
ATOM     28  O   LIG    1       -3.960   1.550  -6.676  0.00  0.00    -0.130 OA
BRANCH  27  29
ATOM     29  O   LIG    1       -5.077   3.285  -7.112  0.00  0.00    -0.396 OA
ATOM     30  H   LIG    1       -5.621   3.993  -6.827  0.00  0.00    +0.329 HD
ENDBRANCH  27  29
ENDBRANCH  24  27
ENDBRANCH  20  21
ENDBRANCH   1  20
TORSDOF 8
