REMARK  Name = ZINC13806195
REMARK                            x       y       z     vdW  Elec       q    Type
REMARK                         _______ _______ _______ _____ _____    ______ ____
ROOT
ATOM      1  C   LIG    1       -0.042  -4.850  -1.208  0.00  0.00    +0.156 C 
ATOM      2  N   LIG    1       -0.066  -4.360  -2.437  0.00  0.00    -0.154 NA
ATOM      3  C   LIG    1       -0.167  -5.129  -3.500  0.00  0.00    +0.276 C 
ATOM      4  C   LIG    1       -0.254  -6.582  -3.255  0.00  0.00    +0.079 C 
ATOM      5  C   LIG    1       -0.364  -7.623  -4.152  0.00  0.00    +0.020 C 
ATOM      6  O   LIG    1       -0.188  -4.665  -4.630  0.00  0.00    -0.267 OA
ATOM      7  S   LIG    1       -0.165  -6.612  -1.469  0.00  0.00    -0.051 S 
ENDROOT
BRANCH   1   8
ATOM      8  N   LIG    1        0.059  -4.168  -0.021  0.00  0.00    -0.296 N 
ATOM      9  H   LIG    1        0.213  -4.661   0.818  0.00  0.00    +0.154 HD
BRANCH   8  14
ATOM     10  C   LIG    1       -0.414   1.483   0.056  0.00  0.00    +0.044 C 
ATOM     11  C   LIG    1       -0.289  -0.018   0.036  0.00  0.00    -0.047 A 
ATOM     12  C   LIG    1       -0.846  -0.743  -1.002  0.00  0.00    +0.005 A 
ATOM     13  C   LIG    1       -0.733  -2.119  -1.024  0.00  0.00    +0.023 A 
ATOM     14  C   LIG    1       -0.058  -2.776  -0.002  0.00  0.00    +0.033 A 
ATOM     15  C   LIG    1        0.501  -2.045   1.038  0.00  0.00    +0.027 A 
ATOM     16  C   LIG    1        0.388  -0.668   1.051  0.00  0.00    -0.046 A 
ATOM     17  C   LIG    1        0.999   0.127   2.177  0.00  0.00    +0.044 C 
ENDBRANCH   8  14
ENDBRANCH   1   8
BRANCH   5  18
ATOM     18  C   LIG    1       -0.431  -8.945  -3.686  0.00  0.00    +0.005 C 
ATOM     19  C   LIG    1       -0.541  -9.973  -4.572  0.00  0.00    +0.046 C 
BRANCH  19  20
ATOM     20  C   LIG    1       -0.609 -11.305  -4.103  0.00  0.00    +0.128 A 
ATOM     21  C   LIG    1       -0.715 -12.439  -4.885  0.00  0.00    +0.049 A 
ATOM     22  C   LIG    1       -0.750 -13.530  -4.003  0.00  0.00    +0.042 A 
ATOM     23  C   LIG    1       -0.666 -13.033  -2.748  0.00  0.00    +0.195 A 
ATOM     24  O   LIG    1       -0.576 -11.697  -2.812  0.00  0.00    -0.464 OA
ENDBRANCH  19  20
ENDBRANCH   5  18
TORSDOF 4
