REMARK  Name = ZINC28897513
REMARK                            x       y       z     vdW  Elec       q    Type
REMARK                         _______ _______ _______ _____ _____    ______ ____
ROOT
ATOM      1  C   LIG    1       -2.698   3.471   0.143  0.00  0.00    +0.004 A 
ATOM      2  C   LIG    1       -3.807   2.658   0.287  0.00  0.00    +0.005 A 
ATOM      3  C   LIG    1       -3.659   1.284   0.338  0.00  0.00    -0.030 A 
ATOM      4  C   LIG    1       -2.401   0.720   0.245  0.00  0.00    +0.046 A 
ATOM      5  C   LIG    1       -1.286   1.534   0.101  0.00  0.00    +0.100 A 
ATOM      6  C   LIG    1       -1.438   2.914   0.056  0.00  0.00    +0.042 A 
ENDROOT
BRANCH   5   7
ATOM      7  N   LIG    1       -0.011   0.966   0.007  0.00  0.00    -0.246 N 
ATOM      8  H   LIG    1        0.220   0.039   0.554  0.00  0.00    +0.265 HD
BRANCH   7   9
ATOM      9  C   LIG    1        0.955   1.566  -0.768  0.00  0.00    +0.346 C 
ATOM     10  N   LIG    1        0.652   2.601  -1.500  0.00  0.00    -0.292 N 
ATOM     11  H   LIG    1       -0.375   2.995  -1.498  0.00  0.00    +0.255 HD
ATOM     12  H   LIG    1        1.424   3.081  -2.120  0.00  0.00    +0.255 HD
BRANCH   9  13
ATOM     13  N   LIG    1        2.239   1.074  -0.771  0.00  0.00    -0.292 N 
ATOM     14  H   LIG    1        2.494   0.200  -0.153  0.00  0.00    +0.255 HD
ATOM     15  H   LIG    1        3.010   1.553  -1.391  0.00  0.00    +0.255 HD
ENDBRANCH   9  13
ENDBRANCH   7   9
ENDBRANCH   5   7
BRANCH   3  16
ATOM     16  C   LIG    1       -4.870   0.402   0.494  0.00  0.00    +0.137 C 
BRANCH  16  17
ATOM     17  C   LIG    1       -5.575   0.740   1.782  0.00  0.00    +0.313 C 
ATOM     18  O   LIG    1       -5.139   1.608   2.500  0.00  0.00    -0.250 OA
BRANCH  17  19
ATOM     19  O   LIG    1       -6.688   0.076   2.133  0.00  0.00    -0.480 OA
ATOM     20  H   LIG    1       -7.027  -0.598   1.576  0.00  0.00    +0.295 HD
ENDBRANCH  17  19
ENDBRANCH  16  17
BRANCH  16  21
ATOM     21  C   LIG    1       -5.822   0.628  -0.682  0.00  0.00    +0.085 C 
BRANCH  21  22
ATOM     22  S   LIG    1       -5.025   0.082  -2.218  0.00  0.00    -0.177 S 
ATOM     23  H   LIG    1       -5.559   0.168  -3.175  0.00  0.00    +0.102 HD
ENDBRANCH  21  22
ENDBRANCH  16  21
ENDBRANCH   3  16
TORSDOF 8
