REMARK  Name = ZINC19632758
REMARK                            x       y       z     vdW  Elec       q    Type
REMARK                         _______ _______ _______ _____ _____    ______ ____
ROOT
ATOM      1  C   LIG    1        0.002  -0.004   0.002  0.00  0.00    -0.001 C 
ENDROOT
BRANCH   1   2
ATOM      2  C   LIG    1       -0.019   1.526   0.010  0.00  0.00    +0.001 C 
BRANCH   2   3
ATOM      3  C   LIG    1        1.417   2.055  -0.000  0.00  0.00    +0.012 C 
BRANCH   3   4
ATOM      4  C   LIG    1        1.396   3.585   0.008  0.00  0.00    +0.127 C 
BRANCH   4   5
ATOM      5  P   LIG    1        3.106   4.216  -0.005  0.00  0.00    +0.328 P 
ATOM      6  O   LIG    1        3.890   3.604   1.178  0.00  0.00    -0.259 OA
BRANCH   5   7
ATOM      7  O   LIG    1        3.088   5.820   0.136  0.00  0.00    -0.324 OA
ATOM      8  H   LIG    1        3.966   6.225   0.137  0.00  0.00    +0.220 HD
ENDBRANCH   5   7
BRANCH   5   9
ATOM      9  O   LIG    1        3.790   3.824  -1.334  0.00  0.00    -0.324 OA
ATOM     10  H   LIG    1        3.801   2.858  -1.419  0.00  0.00    +0.220 HD
ENDBRANCH   5   9
ENDBRANCH   4   5
ENDBRANCH   3   4
ENDBRANCH   2   3
ENDBRANCH   1   2
BRANCH   1  11
ATOM     11  C   LIG    1       -1.433  -0.534   0.013  0.00  0.00    -0.005 C 
BRANCH  11  12
ATOM     12  CA  LIG    1       -1.413  -2.063   0.004  0.00  0.00    +0.036 C 
BRANCH  12  13
ATOM     13  N   LIG    1       -0.809  -2.552   1.251  0.00  0.00    +0.387 N 
ATOM     14  H1  LIG    1        0.135  -2.203   1.327  0.00  0.00    -0.089 HD
ATOM     15  H2  LIG    1       -0.795  -3.561   1.246  0.00  0.00    -0.089 HD
ATOM     16  H3  LIG    1       -1.351  -2.227   2.038  0.00  0.00    -0.089 HD
ENDBRANCH  12  13
BRANCH  12  17
ATOM     17  C   LIG    1       -2.822  -2.584  -0.109  0.00  0.00    +0.290 C 
ATOM     18  O   LIG    1       -3.440  -2.450  -1.151  0.00  0.00    -0.253 OA
BRANCH  17  19
ATOM     19  OXT LIG    1       -3.345  -3.140   0.842  0.00  0.00    -0.482 OA
ATOM     20  HXT LIG    1       -2.870  -3.244   1.643  0.00  0.00    +0.295 HD
ENDBRANCH  17  19
ENDBRANCH  12  17
ENDBRANCH  11  12
ENDBRANCH   1  11
TORSDOF 11
