REMARK  Name = ZINC22058897
REMARK                            x       y       z     vdW  Elec       q    Type
REMARK                         _______ _______ _______ _____ _____    ______ ____
ROOT
ATOM      1  C   LIG    1       -4.110   2.873   3.821  0.00  0.00    +0.110 A 
ATOM      2  N   LIG    1       -4.011   2.474   2.523  0.00  0.00    -0.213 NA
ATOM      3  C   LIG    1       -2.684   2.196   2.276  0.00  0.00    +0.178 A 
ATOM      4  N   LIG    1       -2.020   1.770   1.214  0.00  0.00    -0.231 NA
ATOM      5  C   LIG    1       -0.720   1.561   1.251  0.00  0.00    +0.041 A 
ATOM      6  C   LIG    1       -0.015   1.070   0.013  0.00  0.00    +0.065 C 
ATOM      7  C   LIG    1        0.013   1.785   2.405  0.00  0.00    +0.028 A 
ATOM      8  C   LIG    1       -0.628   2.235   3.544  0.00  0.00    -0.022 A 
ATOM      9  C   LIG    1        0.140   2.488   4.816  0.00  0.00    +0.046 C 
ATOM     10  C   LIG    1       -2.010   2.439   3.486  0.00  0.00    +0.088 A 
ATOM     11  N   LIG    1       -2.938   2.852   4.385  0.00  0.00    -0.340 N 
ATOM     12  H   LIG    1       -2.635   3.106   5.411  0.00  0.00    +0.167 HD
ENDROOT
BRANCH   1  14
ATOM     13  C   LIG    1       -5.584   2.435   5.766  0.00  0.00    +0.012 C 
ATOM     14  C   LIG    1       -5.390   3.279   4.504  0.00  0.00    +0.071 C 
ENDBRANCH   1  14
TORSDOF 1
