REMARK  Name = ZINC24718135
REMARK                            x       y       z     vdW  Elec       q    Type
REMARK                         _______ _______ _______ _____ _____    ______ ____
ROOT
ATOM      1  S   LIG    1        3.395   3.482  -0.892  0.00  0.00    -0.027 S 
ENDROOT
BRANCH   1   2
ATOM      2  C   LIG    1        1.774   2.932  -0.900  0.00  0.00    +0.120 C 
ATOM      3  S   LIG    1        0.667   3.549  -2.051  0.00  0.00    -0.027 S 
BRANCH   2   8
ATOM      4  C   LIG    1        0.746  -1.946   1.243  0.00  0.00    +0.105 C 
ATOM      5  N   LIG    1        0.837  -0.485   1.111  0.00  0.00    -0.302 NA
ATOM      6  C   LIG    1        0.002  -0.004   0.002  0.00  0.00    +0.103 C 
ATOM      7  C   LIG    1       -0.019   1.528   0.010  0.00  0.00    +0.121 C 
ATOM      8  N   LIG    1        1.369   2.014  -0.000  0.00  0.00    -0.316 N 
ATOM      9  C   LIG    1        2.304   1.472   0.998  0.00  0.00    +0.121 C 
ATOM     10  C   LIG    1        2.233  -0.058   0.950  0.00  0.00    +0.103 C 
ENDBRANCH   2   8
ENDBRANCH   1   2
BRANCH   1  11
ATOM     11  S   LIG    1        3.328   4.817  -2.460  0.00  0.00    -0.027 S 
BRANCH  11  12
ATOM     12  C   LIG    1        2.754   6.207  -1.643  0.00  0.00    +0.120 C 
ATOM     13  S   LIG    1        2.428   6.140   0.036  0.00  0.00    -0.027 S 
BRANCH  12  14
ATOM     14  N   LIG    1        2.558   7.355  -2.322  0.00  0.00    -0.316 N 
ATOM     15  C   LIG    1        2.837   7.436  -3.763  0.00  0.00    +0.121 C 
ATOM     16  C   LIG    1        1.600   8.024  -4.461  0.00  0.00    +0.103 C 
ATOM     17  N   LIG    1        1.245   9.300  -3.825  0.00  0.00    -0.302 NA
ATOM     18  C   LIG    1        0.178   9.980  -4.570  0.00  0.00    +0.105 C 
ATOM     19  C   LIG    1        0.865   9.106  -2.420  0.00  0.00    +0.103 C 
ATOM     20  C   LIG    1        2.065   8.561  -1.639  0.00  0.00    +0.121 C 
ENDBRANCH  12  14
ENDBRANCH  11  12
ENDBRANCH   1  11
TORSDOF 5
