REMARK  Name = ZINC16052804
REMARK                            x       y       z     vdW  Elec       q    Type
REMARK                         _______ _______ _______ _____ _____    ______ ____
ROOT
ATOM      1  C   LIG    1        0.139  -2.640   2.526  0.00  0.00    +0.120 A 
ATOM      2  C   LIG    1        0.760  -2.112   3.687  0.00  0.00    +0.047 A 
ATOM      3  C   LIG    1        0.838  -3.119   4.604  0.00  0.00    +0.115 A 
ATOM      4  N   LIG    1        0.296  -4.222   4.051  0.00  0.00    -0.283 N 
ATOM      5  H   LIG    1        0.217  -5.090   4.478  0.00  0.00    +0.188 HD
ATOM      6  N   LIG    1       -0.139  -3.904   2.759  0.00  0.00    -0.172 NA
ENDROOT
BRANCH   2   7
ATOM      7  C   LIG    1        1.236  -0.721   3.871  0.00  0.00    +0.075 A 
ATOM      8  C   LIG    1        0.914  -0.034   5.054  0.00  0.00    +0.030 A 
ATOM      9  C   LIG    1        1.346   1.245   5.235  0.00  0.00    +0.032 A 
ATOM     10  C   LIG    1        2.114   1.845   4.214  0.00  0.00    +0.089 A 
ATOM     11  C   LIG    1        2.403   1.097   3.046  0.00  0.00    +0.090 A 
ATOM     12  C   LIG    1        3.170   1.700   2.029  0.00  0.00    +0.031 A 
ATOM     13  C   LIG    1        3.600   2.982   2.218  0.00  0.00    +0.022 A 
ATOM     14  C   LIG    1        3.277   3.659   3.392  0.00  0.00    +0.111 A 
ATOM     15  N   LIG    1        2.564   3.095   4.337  0.00  0.00    -0.253 NA
ATOM     16  N   LIG    1        1.959  -0.156   2.923  0.00  0.00    -0.245 NA
ENDBRANCH   2   7
BRANCH   1  22
ATOM     17  C   LIG    1       -0.754   1.607   0.324  0.00  0.00    +0.065 C 
ATOM     18  C   LIG    1       -0.575   0.114   0.227  0.00  0.00    +0.039 A 
ATOM     19  C   LIG    1       -0.685  -0.507  -1.004  0.00  0.00    +0.023 A 
ATOM     20  C   LIG    1       -0.520  -1.883  -1.090  0.00  0.00    +0.004 A 
ATOM     21  C   LIG    1       -0.248  -2.589   0.069  0.00  0.00    +0.030 A 
ATOM     22  C   LIG    1       -0.151  -1.898   1.276  0.00  0.00    +0.092 A 
ATOM     23  N   LIG    1       -0.311  -0.581   1.314  0.00  0.00    -0.250 NA
ENDBRANCH   1  22
TORSDOF 2
