REMARK  Name = ZINC33293951
REMARK                            x       y       z     vdW  Elec       q    Type
REMARK                         _______ _______ _______ _____ _____    ______ ____
ROOT
ATOM      1  C   LIG    1        3.298  -3.638  -4.289  0.00  0.00    +0.028 C 
ATOM      2  C   LIG    1        2.323  -3.509  -3.354  0.00  0.00    +0.080 C 
ATOM      3  C   LIG    1        2.424  -3.105  -1.937  0.00  0.00    +0.261 C 
ATOM      4  N   LIG    1        1.296  -3.066  -1.249  0.00  0.00    -0.224 N 
ATOM      5  C   LIG    1        0.114  -3.386  -1.816  0.00  0.00    +0.286 C 
ATOM      6  O   LIG    1       -0.990  -3.397  -1.305  0.00  0.00    -0.262 OA
ATOM      7  O   LIG    1        3.493  -2.822  -1.428  0.00  0.00    -0.269 OA
ATOM      8  S   LIG    1        0.562  -3.784  -3.498  0.00  0.00    -0.026 S 
ENDROOT
BRANCH   1  14
ATOM      9  C   LIG    1        1.288  -6.537 -10.018  0.00  0.00    +0.154 C 
ATOM     10  N   LIG    1        2.349  -5.740  -9.395  0.00  0.00    -0.295 N 
ATOM     11  C   LIG    1        2.378  -5.319  -8.071  0.00  0.00    +0.070 A 
ATOM     12  C   LIG    1        1.507  -5.490  -7.001  0.00  0.00    +0.028 A 
ATOM     13  C   LIG    1        1.805  -4.953  -5.780  0.00  0.00    +0.010 A 
ATOM     14  C   LIG    1        2.985  -4.218  -5.601  0.00  0.00    -0.022 A 
ATOM     15  C   LIG    1        3.866  -4.042  -6.673  0.00  0.00    +0.036 A 
ATOM     16  C   LIG    1        3.561  -4.592  -7.904  0.00  0.00    +0.070 A 
ATOM     17  N   LIG    1        4.212  -4.596  -9.136  0.00  0.00    -0.295 N 
ATOM     18  C   LIG    1        5.495  -3.953  -9.431  0.00  0.00    +0.154 C 
ATOM     19  C   LIG    1        3.460  -5.293 -10.009  0.00  0.00    +0.330 A 
ATOM     20  O   LIG    1        3.742  -5.488 -11.177  0.00  0.00    -0.246 OA
ENDBRANCH   1  14
BRANCH   4  21
ATOM     21  C   LIG    1        1.330  -2.673   0.161  0.00  0.00    +0.152 C 
BRANCH  21  22
ATOM     22  C   LIG    1        1.161  -1.180   0.271  0.00  0.00    -0.030 A 
ATOM     23  C   LIG    1       -0.104  -0.634   0.389  0.00  0.00    +0.005 A 
ATOM     24  C   LIG    1       -0.259   0.736   0.490  0.00  0.00    +0.000 A 
ATOM     25  C   LIG    1        0.850   1.560   0.474  0.00  0.00    +0.000 A 
ATOM     26  C   LIG    1        2.115   1.015   0.354  0.00  0.00    +0.000 A 
ATOM     27  C   LIG    1        2.270  -0.355   0.254  0.00  0.00    +0.005 A 
ENDBRANCH  21  22
ENDBRANCH   4  21
TORSDOF 3
