REMARK  Name = ZINC00029121
REMARK                            x       y       z     vdW  Elec       q    Type
REMARK                         _______ _______ _______ _____ _____    ______ ____
ROOT
ATOM      1  C   LIG    1        2.383   1.413  -0.013  0.00  0.00    +0.050 A 
ATOM      2  C   LIG    1        2.397   0.021  -0.021  0.00  0.00    +0.027 A 
ATOM      3  C   LIG    1        1.226  -0.681  -0.013  0.00  0.00    +0.020 A 
ATOM      4  C   LIG    1        0.002  -0.004   0.002  0.00  0.00    +0.100 A 
ATOM      5  C   LIG    1       -0.017   1.399   0.010  0.00  0.00    +0.133 A 
ATOM      6  C   LIG    1        1.177   2.100   0.002  0.00  0.00    +0.072 A 
ENDROOT
BRANCH   1  13
ATOM      7  C   LIG    1        3.337   3.208   2.283  0.00  0.00    +0.064 C 
ATOM      8  C   LIG    1        4.045   2.929   0.982  0.00  0.00    +0.021 A 
ATOM      9  C   LIG    1        5.239   3.431   0.608  0.00  0.00    +0.023 A 
ATOM     10  C   LIG    1        5.528   2.924  -0.675  0.00  0.00    +0.023 A 
ATOM     11  C   LIG    1        4.503   2.127  -1.036  0.00  0.00    +0.021 A 
ATOM     12  C   LIG    1        4.385   1.372  -2.335  0.00  0.00    +0.064 C 
ATOM     13  N   LIG    1        3.588   2.122  -0.021  0.00  0.00    -0.318 N 
ENDBRANCH   1  13
BRANCH   4  14
ATOM     14  C   LIG    1       -1.261  -0.760   0.009  0.00  0.00    +0.340 C 
ATOM     15  O   LIG    1       -2.323  -0.169   0.022  0.00  0.00    -0.245 OA
BRANCH  14  16
ATOM     16  O   LIG    1       -1.239  -2.108   0.002  0.00  0.00    -0.477 OA
ATOM     17  H   LIG    1       -0.421  -2.563  -0.008  0.00  0.00    +0.295 HD
ENDBRANCH  14  16
ENDBRANCH   4  14
BRANCH   5  18
ATOM     18  O   LIG    1       -1.199   2.065   0.019  0.00  0.00    -0.506 OA
ATOM     19  H   LIG    1       -1.537   2.254   0.905  0.00  0.00    +0.292 HD
ENDBRANCH   5  18
TORSDOF 4
