REMARK  Name = ZINC18085270
REMARK                            x       y       z     vdW  Elec       q    Type
REMARK                         _______ _______ _______ _____ _____    ______ ____
ROOT
ATOM      1  C   LIG    1       -2.852  -2.419   0.016  0.00  0.00    +0.156 A 
ATOM      2  C   LIG    1       -3.177  -3.764   0.018  0.00  0.00    +0.104 A 
ATOM      3  C   LIG    1       -4.601  -3.804   0.029  0.00  0.00    +0.163 A 
ATOM      4  C   LIG    1       -4.953  -5.238   0.030  0.00  0.00    +0.287 A 
ATOM      5  N   LIG    1       -3.820  -5.962   0.021  0.00  0.00    -0.242 N 
ATOM      6  O   LIG    1       -6.081  -5.689   0.038  0.00  0.00    -0.265 OA
ATOM      7  N   LIG    1       -5.022  -2.563   0.033  0.00  0.00    -0.167 NA
ATOM      8  C   LIG    1       -2.734  -5.167   0.013  0.00  0.00    +0.270 A 
ATOM      9  O   LIG    1       -1.580  -5.546   0.003  0.00  0.00    -0.266 OA
ATOM     10  N   LIG    1       -4.035  -1.739   0.032  0.00  0.00    -0.270 N 
ATOM     11  H   LIG    1       -4.119  -0.772   0.038  0.00  0.00    +0.189 HD
ENDROOT
BRANCH   5  12
ATOM     12  C   LIG    1       -3.775  -7.363   0.020  0.00  0.00    +0.053 A 
ATOM     13  C   LIG    1       -2.552  -8.020   0.016  0.00  0.00    +0.027 A 
ATOM     14  C   LIG    1       -2.511  -9.400   0.015  0.00  0.00    +0.017 A 
ATOM     15  C   LIG    1       -3.688 -10.129   0.017  0.00  0.00    +0.018 A 
ATOM     16 BR   LIG    1       -3.628 -12.019   0.015  0.00  0.00    -0.050 Br
ATOM     17  C   LIG    1       -4.908  -9.476   0.021  0.00  0.00    +0.017 A 
ATOM     18  C   LIG    1       -4.954  -8.096   0.028  0.00  0.00    +0.027 A 
ENDBRANCH   5  12
BRANCH   1  19
ATOM     19  C   LIG    1       -1.497  -1.837   0.006  0.00  0.00    +0.358 C 
ATOM     20  O   LIG    1       -0.524  -2.564  -0.007  0.00  0.00    -0.243 OA
BRANCH  19  21
ATOM     21  O   LIG    1       -1.339  -0.499   0.012  0.00  0.00    -0.460 OA
BRANCH  21  23
ATOM     22  C   LIG    1       -0.019   1.526   0.010  0.00  0.00    +0.048 C 
ATOM     23  C   LIG    1        0.002  -0.004   0.002  0.00  0.00    +0.229 C 
ENDBRANCH  21  23
ENDBRANCH  19  21
ENDBRANCH   1  19
TORSDOF 4
