REMARK  Name = ZINC26671979
REMARK                            x       y       z     vdW  Elec       q    Type
REMARK                         _______ _______ _______ _____ _____    ______ ____
ROOT
ATOM      1  C   LIG    1        1.706  -6.048  -0.040  0.00  0.00    +0.324 C 
ATOM      2  N   LIG    1        0.796  -7.021  -0.046  0.00  0.00    +0.001 NA
ATOM      3  C   LIG    1        1.367  -8.226  -0.054  0.00  0.00    +0.332 C 
ATOM      4  C   LIG    1        2.841  -8.052  -0.054  0.00  0.00    +0.082 A 
ATOM      5  C   LIG    1        3.918  -8.917  -0.059  0.00  0.00    +0.017 A 
ATOM      6  C   LIG    1        5.211  -8.407  -0.072  0.00  0.00    +0.001 A 
ATOM      7  C   LIG    1        5.423  -7.044  -0.066  0.00  0.00    +0.001 A 
ATOM      8  C   LIG    1        4.346  -6.165  -0.056  0.00  0.00    +0.017 A 
ATOM      9  N   LIG    1        0.724  -9.387  -0.062  0.00  0.00    -0.266 N 
ATOM     10  H   LIG    1        1.224 -10.218  -0.068  0.00  0.00    +0.304 HD
ATOM     11  C   LIG    1        3.058  -6.661  -0.051  0.00  0.00    +0.081 A 
ENDROOT
BRANCH   1  12
ATOM     12  N   LIG    1        1.447  -4.746  -0.032  0.00  0.00    -0.229 N 
ATOM     13  H   LIG    1        2.176  -4.106  -0.032  0.00  0.00    +0.292 HD
BRANCH  12  14
ATOM     14  C   LIG    1        0.059  -4.275  -0.021  0.00  0.00    +0.259 C 
BRANCH  14  19
ATOM     15  C   LIG    1       -0.018   1.503   0.010  0.00  0.00    +0.044 C 
ATOM     16  C   LIG    1        0.002  -0.004   0.002  0.00  0.00    -0.050 A 
ATOM     17  C   LIG    1        0.006  -0.689  -1.199  0.00  0.00    +0.004 A 
ATOM     18  C   LIG    1        0.025  -2.071  -1.206  0.00  0.00    +0.007 A 
ATOM     19  C   LIG    1        0.040  -2.768  -0.013  0.00  0.00    -0.008 A 
ATOM     20  C   LIG    1        0.037  -2.084   1.188  0.00  0.00    +0.007 A 
ATOM     21  C   LIG    1        0.023  -0.702   1.195  0.00  0.00    +0.004 A 
ENDBRANCH  14  19
ENDBRANCH  12  14
ENDBRANCH   1  12
BRANCH   9  22
ATOM     22  C   LIG    1       -0.741  -9.413  -0.062  0.00  0.00    +0.269 C 
BRANCH  22  23
ATOM     23  C   LIG    1       -1.218 -10.843  -0.071  0.00  0.00    -0.007 A 
ATOM     24  C   LIG    1       -1.431 -11.492  -1.273  0.00  0.00    +0.008 A 
ATOM     25  C   LIG    1       -1.869 -12.804  -1.282  0.00  0.00    +0.004 A 
ATOM     26  C   LIG    1       -2.092 -13.466  -0.089  0.00  0.00    -0.050 A 
ATOM     27  C   LIG    1       -2.569 -14.895  -0.099  0.00  0.00    +0.044 C 
ATOM     28  C   LIG    1       -1.877 -12.817   1.113  0.00  0.00    +0.004 A 
ATOM     29  C   LIG    1       -1.436 -11.507   1.121  0.00  0.00    +0.008 A 
ENDBRANCH  22  23
ENDBRANCH   9  22
TORSDOF 5
