REMARK  Name = ZINC49877340
REMARK                            x       y       z     vdW  Elec       q    Type
REMARK                         _______ _______ _______ _____ _____    ______ ____
ROOT
ATOM      1  C   LIG    1        3.270  -9.795  -5.993  0.00  0.00    +0.226 C 
ATOM      2  C   LIG    1        4.409 -10.078  -5.035  0.00  0.00    +0.064 C 
ATOM      3  C   LIG    1        3.960  -9.578  -3.642  0.00  0.00    +0.014 C 
ATOM      4  C   LIG    1        4.790 -11.551  -4.905  0.00  0.00    +0.088 C 
ATOM      5  C   LIG    1        5.068 -12.247  -6.214  0.00  0.00    +0.052 C 
ATOM      6  C   LIG    1        4.269 -11.759  -7.403  0.00  0.00    +0.056 C 
ATOM      7  C   LIG    1        4.610 -10.495  -8.171  0.00  0.00    +0.016 C 
ATOM      8  C   LIG    1        5.807  -9.655  -7.746  0.00  0.00    +0.015 C 
ATOM      9  C   LIG    1        4.388 -10.538  -9.697  0.00  0.00    +0.015 C 
ATOM     10  C   LIG    1        4.792 -13.729  -6.122  0.00  0.00    -0.019 C 
ATOM     11  C   LIG    1        4.951 -14.495  -5.100  0.00  0.00    -0.045 C 
ATOM     12  C   LIG    1        5.428 -14.077  -3.746  0.00  0.00    +0.076 C 
ATOM     13  C   LIG    1        6.542 -13.056  -3.780  0.00  0.00    +0.140 C 
ATOM     14  C   LIG    1        7.529 -13.267  -4.903  0.00  0.00    +0.191 C 
ATOM     15  O   LIG    1        7.892 -14.323  -5.381  0.00  0.00    -0.289 OA
ATOM     16  C   LIG    1        7.968 -11.921  -5.289  0.00  0.00    -0.009 C 
ATOM     17  C   LIG    1        9.173 -11.638  -6.151  0.00  0.00    +0.047 C 
ATOM     18  C   LIG    1        7.171 -10.983  -4.787  0.00  0.00    -0.011 C 
ATOM     19  C   LIG    1        6.030 -11.628  -4.005  0.00  0.00    +0.084 C 
ATOM     20  C   LIG    1        3.355 -10.552  -7.303  0.00  0.00    +0.160 C 
ENDROOT
BRANCH  13  21
ATOM     21  O   LIG    1        7.258 -13.107  -2.523  0.00  0.00    -0.380 OA
ATOM     22  H   LIG    1        7.648 -13.970  -2.327  0.00  0.00    +0.211 HD
ENDBRANCH  13  21
BRANCH   4  23
ATOM     23  O   LIG    1        3.683 -12.201  -4.265  0.00  0.00    -0.387 OA
ATOM     24  H   LIG    1        3.476 -11.852  -3.387  0.00  0.00    +0.210 HD
ENDBRANCH   4  23
BRANCH  20  25
ATOM     25  O   LIG    1        2.100 -10.651  -8.010  0.00  0.00    -0.453 OA
BRANCH  25  26
ATOM     26  C   LIG    1        1.125 -11.363  -7.424  0.00  0.00    +0.308 C 
ATOM     27  O   LIG    1        1.348 -11.966  -6.401  0.00  0.00    -0.251 OA
BRANCH  26  28
ATOM     28  C   LIG    1       -0.249 -11.411  -8.042  0.00  0.00    +0.120 C 
BRANCH  28  29
ATOM     29  C   LIG    1       -1.164 -12.285  -7.182  0.00  0.00    +0.011 C 
BRANCH  29  30
ATOM     30  C   LIG    1       -2.559 -12.334  -7.810  0.00  0.00    +0.001 C 
BRANCH  30  31
ATOM     31  C   LIG    1       -3.475 -13.208  -6.950  0.00  0.00    +0.000 C 
BRANCH  31  32
ATOM     32  C   LIG    1       -4.869 -13.257  -7.578  0.00  0.00    +0.000 C 
BRANCH  32  33
ATOM     33  C   LIG    1       -5.785 -14.130  -6.718  0.00  0.00    -0.000 C 
BRANCH  33  34
ATOM     34  C   LIG    1       -7.179 -14.179  -7.346  0.00  0.00    -0.000 C 
BRANCH  34  35
ATOM     35  C   LIG    1       -8.095 -15.053  -6.486  0.00  0.00    -0.003 C 
ATOM     36  C   LIG    1       -9.490 -15.102  -7.113  0.00  0.00    +0.004 C 
ENDBRANCH  34  35
ENDBRANCH  33  34
ENDBRANCH  32  33
ENDBRANCH  31  32
ENDBRANCH  30  31
ENDBRANCH  29  30
ENDBRANCH  28  29
ENDBRANCH  26  28
ENDBRANCH  25  26
ENDBRANCH  20  25
BRANCH  11  37
ATOM     37  C   LIG    1        4.619 -15.960  -5.290  0.00  0.00    +0.186 C 
BRANCH  37  38
ATOM     38  O   LIG    1        4.180 -16.180  -6.632  0.00  0.00    -0.391 OA
ATOM     39  H   LIG    1        3.950 -17.099  -6.825  0.00  0.00    +0.210 HD
ENDBRANCH  37  38
ENDBRANCH  11  37
BRANCH   1  40
ATOM     40  O   LIG    1        3.194  -8.383  -6.249  0.00  0.00    -0.457 OA
BRANCH  40  41
ATOM     41  C   LIG    1        2.471  -7.645  -5.392  0.00  0.00    +0.307 C 
ATOM     42  O   LIG    1        1.920  -8.175  -4.456  0.00  0.00    -0.251 OA
BRANCH  41  43
ATOM     43  C   LIG    1        2.346  -6.158  -5.597  0.00  0.00    +0.120 C 
BRANCH  43  44
ATOM     44  C   LIG    1        1.476  -5.561  -4.489  0.00  0.00    +0.011 C 
BRANCH  44  45
ATOM     45  C   LIG    1        1.349  -4.051  -4.697  0.00  0.00    +0.001 C 
BRANCH  45  46
ATOM     46  C   LIG    1        0.478  -3.455  -3.589  0.00  0.00    +0.000 C 
BRANCH  46  47
ATOM     47  C   LIG    1        0.352  -1.944  -3.797  0.00  0.00    +0.000 C 
BRANCH  47  48
ATOM     48  C   LIG    1       -0.519  -1.348  -2.689  0.00  0.00    -0.000 C 
BRANCH  48  49
ATOM     49  C   LIG    1       -0.646   0.162  -2.897  0.00  0.00    -0.000 C 
BRANCH  49  51
ATOM     50  C   LIG    1       -1.643   2.269  -1.997  0.00  0.00    +0.004 C 
ATOM     51  C   LIG    1       -1.516   0.758  -1.789  0.00  0.00    -0.003 C 
ENDBRANCH  49  51
ENDBRANCH  48  49
ENDBRANCH  47  48
ENDBRANCH  46  47
ENDBRANCH  45  46
ENDBRANCH  44  45
ENDBRANCH  43  44
ENDBRANCH  41  43
ENDBRANCH  40  41
ENDBRANCH   1  40
TORSDOF 24
