REMARK  Name = ZINC16957625
REMARK                            x       y       z     vdW  Elec       q    Type
REMARK                         _______ _______ _______ _____ _____    ______ ____
ROOT
ATOM      1  C   LIG    1        0.518   5.865   0.042  0.00  0.00    +0.083 A 
ATOM      2  C   LIG    1        1.745   6.507  -0.080  0.00  0.00    +0.059 A 
ATOM      3  C   LIG    1        1.832   8.008  -0.182  0.00  0.00    +0.067 C 
ATOM      4  N   LIG    1        2.821   5.765  -0.097  0.00  0.00    -0.226 NA
ATOM      5  C   LIG    1        2.755   4.445  -0.013  0.00  0.00    +0.195 A 
ATOM      6  S   LIG    1        1.047   4.159   0.117  0.00  0.00    -0.044 S 
ENDROOT
BRANCH   5   7
ATOM      7  N   LIG    1        3.791   3.523  -0.021  0.00  0.00    -0.207 N 
ATOM      8  C   LIG    1        4.017   2.556   0.921  0.00  0.00    +0.077 A 
ATOM      9  C   LIG    1        5.126   1.862   0.539  0.00  0.00    +0.058 A 
ATOM     10  C   LIG    1        5.592   2.424  -0.663  0.00  0.00    +0.094 A 
ATOM     11  N   LIG    1        4.794   3.419  -0.993  0.00  0.00    -0.164 NA
BRANCH   8  12
ATOM     12  C   LIG    1        3.201   2.306   2.130  0.00  0.00    +0.001 A 
ATOM     13  C   LIG    1        3.226   1.053   2.744  0.00  0.00    +0.010 A 
ATOM     14  C   LIG    1        2.464   0.826   3.872  0.00  0.00    +0.001 A 
ATOM     15  C   LIG    1        1.675   1.837   4.392  0.00  0.00    +0.000 A 
ATOM     16  C   LIG    1        1.646   3.080   3.787  0.00  0.00    +0.001 A 
ATOM     17  C   LIG    1        2.404   3.321   2.660  0.00  0.00    +0.010 A 
ENDBRANCH   8  12
BRANCH  10  18
ATOM     18  C   LIG    1        6.781   1.974  -1.429  0.00  0.00    +0.002 A 
ATOM     19  C   LIG    1        7.548   0.908  -0.965  0.00  0.00    +0.010 A 
ATOM     20  C   LIG    1        8.650   0.490  -1.684  0.00  0.00    +0.001 A 
ATOM     21  C   LIG    1        8.999   1.135  -2.857  0.00  0.00    +0.000 A 
ATOM     22  C   LIG    1        8.243   2.197  -3.319  0.00  0.00    +0.001 A 
ATOM     23  C   LIG    1        7.136   2.620  -2.611  0.00  0.00    +0.010 A 
ENDBRANCH  10  18
ENDBRANCH   5   7
BRANCH   1  24
ATOM     24  C   LIG    1       -0.833   6.429   0.094  0.00  0.00    +0.194 C 
ATOM     25  O   LIG    1       -0.992   7.636   0.027  0.00  0.00    -0.287 OA
BRANCH  24  27
ATOM     26  C   LIG    1       -3.236   6.063   0.275  0.00  0.00    +0.012 C 
ATOM     27  C   LIG    1       -1.992   5.543   0.227  0.00  0.00    +0.052 C 
BRANCH  26  32
ATOM     28  C   LIG    1       -7.785   2.587   0.799  0.00  0.00    +0.044 C 
ATOM     29  C   LIG    1       -6.592   3.498   0.661  0.00  0.00    -0.050 A 
ATOM     30  C   LIG    1       -6.777   4.867   0.585  0.00  0.00    +0.004 A 
ATOM     31  C   LIG    1       -5.691   5.708   0.459  0.00  0.00    +0.008 A 
ATOM     32  C   LIG    1       -4.400   5.173   0.409  0.00  0.00    -0.025 A 
ATOM     33  C   LIG    1       -4.222   3.788   0.481  0.00  0.00    +0.008 A 
ATOM     34  C   LIG    1       -5.317   2.961   0.612  0.00  0.00    +0.004 A 
ENDBRANCH  26  32
ENDBRANCH  24  27
ENDBRANCH   1  24
TORSDOF 6
