REMARK  Name = ZINC28221410
REMARK                            x       y       z     vdW  Elec       q    Type
REMARK                         _______ _______ _______ _____ _____    ______ ____
ROOT
ATOM      1  C   LIG    1        3.698  -0.688  -0.037  0.00  0.00    -0.018 A 
ATOM      2  C   LIG    1        4.895   0.030  -0.040  0.00  0.00    +0.009 A 
ATOM      3  C   LIG    1        6.094  -0.634  -0.054  0.00  0.00    +0.012 A 
ATOM      4  C   LIG    1        6.117  -2.034  -0.068  0.00  0.00    +0.018 A 
ATOM      5  C   LIG    1        4.915  -2.752  -0.065  0.00  0.00    +0.012 A 
ATOM      6  C   LIG    1        3.719  -2.083  -0.045  0.00  0.00    +0.009 A 
ENDROOT
BRANCH   1  10
ATOM      7  C   LIG    1       -0.017   1.379   0.010  0.00  0.00    +0.000 A 
ATOM      8  C   LIG    1        1.169   2.092   0.002  0.00  0.00    +0.001 A 
ATOM      9  C   LIG    1        2.377   1.427  -0.013  0.00  0.00    +0.008 A 
ATOM     10  C   LIG    1        2.403   0.033  -0.021  0.00  0.00    -0.018 A 
ATOM     11  C   LIG    1        1.205  -0.680  -0.013  0.00  0.00    +0.008 A 
ATOM     12  C   LIG    1        0.002  -0.004   0.002  0.00  0.00    +0.001 A 
ENDBRANCH   1  10
BRANCH   4  13
ATOM     13  C   LIG    1        7.402  -2.748  -0.084  0.00  0.00    +0.171 C 
ATOM     14  O   LIG    1        8.442  -2.125  -0.086  0.00  0.00    -0.292 OA
BRANCH  13  15
ATOM     15  C   LIG    1        7.426  -4.255  -0.098  0.00  0.00    +0.166 C 
BRANCH  15  16
ATOM     16  C   LIG    1        8.854  -4.735  -0.114  0.00  0.00    +0.246 C 
ATOM     17  O   LIG    1        9.759  -3.936  -0.113  0.00  0.00    -0.285 OA
BRANCH  16  18
ATOM     18  C   LIG    1        9.150  -6.199  -0.129  0.00  0.00    +0.373 C 
ATOM     19  O   LIG    1       10.307  -6.587  -0.142  0.00  0.00    -0.242 OA
BRANCH  18  20
ATOM     20  O   LIG    1        8.235  -7.006  -0.130  0.00  0.00    -0.475 OA
ATOM     21  H   LIG    1        7.347  -6.708  -0.120  0.00  0.00    +0.295 HD
ENDBRANCH  18  20
ENDBRANCH  16  18
ENDBRANCH  15  16
ENDBRANCH  13  15
ENDBRANCH   4  13
TORSDOF 6
