REMARK  Name = ZINC26377093
REMARK                            x       y       z     vdW  Elec       q    Type
REMARK                         _______ _______ _______ _____ _____    ______ ____
ROOT
ATOM      1  C   LIG    1        5.791   1.678   2.309  0.00  0.00    +0.039 C 
ATOM      2  C   LIG    1        4.292   1.827   2.354  0.00  0.00    -0.061 C 
ATOM      3  C   LIG    1        3.642   1.735   3.511  0.00  0.00    +0.093 C 
ATOM      4  C   LIG    1        2.175   1.885   3.526  0.00  0.00    +0.261 C 
ATOM      5  N   LIG    1        1.491   1.727   2.429  0.00  0.00    -0.273 N 
ATOM      6  H   LIG    1        0.398   1.847   2.440  0.00  0.00    +0.304 HD
ATOM      7  C   LIG    1        2.155   1.391   1.171  0.00  0.00    +0.181 C 
ATOM      8  C   LIG    1        3.515   2.083   1.088  0.00  0.00    +0.080 C 
ENDROOT
BRANCH   4   9
ATOM      9  N   LIG    1        1.526   2.193   4.704  0.00  0.00    -0.250 N 
ATOM     10  H   LIG    1        2.103   2.326   5.631  0.00  0.00    +0.288 HD
ATOM     11  H   LIG    1        0.432   2.305   4.716  0.00  0.00    +0.288 HD
ENDBRANCH   4   9
BRANCH   7  12
ATOM     12  C   LIG    1        1.282   1.847  -0.000  0.00  0.00    +0.076 C 
BRANCH  12  13
ATOM     13  C   LIG    1       -0.013   1.076   0.008  0.00  0.00    -0.030 C 
ATOM     14  C   LIG    1       -1.156   1.715   0.017  0.00  0.00    +0.004 C 
ENDBRANCH  12  13
ENDBRANCH   7  12
TORSDOF 3
