REMARK  Name = ZINC13835659
REMARK                            x       y       z     vdW  Elec       q    Type
REMARK                         _______ _______ _______ _____ _____    ______ ____
ROOT
ATOM      1  C   UNK A  0       -1.182  -2.065  -0.099  0.00  0.00    +0.135 C 
ATOM      2  S   UNK A  0        0.310  -2.904  -0.119  0.00  0.00    -0.019 S 
ENDROOT
BRANCH   1   3
ATOM      3  N   UNK A  0       -1.199  -0.721   0.010  0.00  0.00    -0.297 N 
ATOM      4  H   UNK A  0       -2.043  -0.253   0.102  0.00  0.00    +0.154 HD
BRANCH   3  10
ATOM      5  C   UNK A  0        1.004  -0.347  -0.907  0.00  0.00    +0.025 A 
ATOM      6  C   UNK A  0        2.187   0.364  -0.924  0.00  0.00    +0.030 A 
ATOM      7  C   UNK A  0        2.375   1.418  -0.048  0.00  0.00    +0.105 A 
ATOM      8  C   UNK A  0        1.379   1.763   0.847  0.00  0.00    +0.030 A 
ATOM      9  C   UNK A  0        0.193   1.056   0.869  0.00  0.00    +0.025 A 
ATOM     10  C   UNK A  0        0.001  -0.003  -0.009  0.00  0.00    +0.033 A 
BRANCH   7  11
ATOM     11  S   UNK A  0        3.887   2.323  -0.073  0.00  0.00    +0.056 S 
ATOM     12  O   UNK A  0        4.869   1.458  -0.627  0.00  0.00    -0.153 OA
ATOM     13  O   UNK A  0        4.029   2.912   1.213  0.00  0.00    -0.153 OA
BRANCH  11  14
ATOM     14  N   UNK A  0        3.694   3.570  -1.145  0.00  0.00    -0.204 NA
ATOM     15  H   UNK A  0        4.423   4.190  -1.303  0.00  0.00    +0.144 HD
ATOM     16  H   UNK A  0        2.853   3.679  -1.616  0.00  0.00    +0.144 HD
ENDBRANCH  11  14
ENDBRANCH   7  11
ENDBRANCH   3  10
ENDBRANCH   1   3
BRANCH   1  17
ATOM     17  N   HIS A  1       -2.340  -2.748  -0.193  0.00  0.00    -0.313 N 
ATOM     18  H   HIS A  1       -3.186  -2.272  -0.182  0.00  0.00    +0.149 HD
BRANCH  17  19
ATOM     19  CA  HIS A  1       -2.322  -4.208  -0.311  0.00  0.00    +0.187 C 
BRANCH  19  20
ATOM     20  C   HIS A  1       -2.146  -4.592  -1.758  0.00  0.00    +0.326 C 
ATOM     21  O   HIS A  1       -1.577  -5.630  -2.048  0.00  0.00    -0.249 OA
BRANCH  20  22
ATOM     22  OXT HIS A  1       -2.573  -3.865  -2.638  0.00  0.00    -0.479 OA
ATOM     23  HXT HIS A  1       -3.011  -3.067  -2.415  0.00  0.00    +0.295 HD
ENDBRANCH  20  22
ENDBRANCH  19  20
BRANCH  19  24
ATOM     24  CB  HIS A  1       -3.642  -4.778   0.211  0.00  0.00    +0.088 C 
BRANCH  24  25
ATOM     25  CG  HIS A  1       -3.761  -4.500   1.687  0.00  0.00    +0.038 A 
ATOM     26  ND1 HIS A  1       -3.418  -5.345   2.707  0.00  0.00    -0.348 N 
ATOM     27  CE1 HIS A  1       -3.682  -4.702   3.865  0.00  0.00    +0.196 A 
ATOM     28  NE2 HIS A  1       -4.171  -3.525   3.587  0.00  0.00    -0.244 NA
ATOM     29  HD1 HIS A  1       -3.051  -6.238   2.616  0.00  0.00    +0.166 HD
ATOM     30  CD2 HIS A  1       -4.231  -3.373   2.256  0.00  0.00    +0.133 A 
ENDBRANCH  24  25
ENDBRANCH  19  24
ENDBRANCH  17  19
ENDBRANCH   1  17
TORSDOF 10
