REMARK  Name = ZINC38224982
REMARK                            x       y       z     vdW  Elec       q    Type
REMARK                         _______ _______ _______ _____ _____    ______ ____
ROOT
ATOM      1  C   LIG    1       -3.310  -2.033  -3.006  0.00  0.00    +0.010 C 
ATOM      2  C   LIG    1       -4.175  -0.905  -3.573  0.00  0.00    +0.015 C 
ATOM      3  C   LIG    1       -5.387  -0.689  -2.661  0.00  0.00    +0.105 C 
ATOM      4  N   LIG    1       -6.092  -1.967  -2.500  0.00  0.00    -0.315 N 
ATOM      5  C   LIG    1       -5.333  -3.140  -2.046  0.00  0.00    +0.105 C 
ATOM      6  C   LIG    1       -4.122  -3.330  -2.964  0.00  0.00    +0.015 C 
ENDROOT
BRANCH   4   7
ATOM      7  C   LIG    1       -7.445  -2.065  -2.770  0.00  0.00    +0.134 A 
ATOM      8  C   LIG    1       -8.398  -1.832  -1.766  0.00  0.00    +0.059 A 
ATOM      9  C   LIG    1       -8.343  -1.473  -0.350  0.00  0.00    +0.032 A 
ATOM     10  C   LIG    1       -9.614  -1.392   0.079  0.00  0.00    +0.085 A 
ATOM     11  N   LIG    1      -10.471  -1.671  -0.953  0.00  0.00    -0.346 N 
ATOM     12  H   LIG    1      -11.439  -1.675  -0.887  0.00  0.00    +0.167 HD
ATOM     13  C   LIG    1       -9.762  -1.944  -2.091  0.00  0.00    +0.143 A 
ATOM     14  N   LIG    1      -10.095  -2.266  -3.340  0.00  0.00    -0.218 NA
ATOM     15  C   LIG    1       -9.168  -2.476  -4.249  0.00  0.00    +0.225 A 
ATOM     16  N   LIG    1       -7.876  -2.376  -3.988  0.00  0.00    -0.220 NA
ENDBRANCH   4   7
BRANCH   1  19
ATOM     17  N   LIG    1       -1.819  -0.847  -1.428  0.00  0.00    -0.312 N 
ATOM     18  H   LIG    1       -1.349  -0.483  -2.195  0.00  0.00    +0.149 HD
ATOM     19  C   LIG    1       -2.868  -1.673  -1.611  0.00  0.00    +0.202 C 
ATOM     20  O   LIG    1       -3.456  -2.127  -0.652  0.00  0.00    -0.277 OA
BRANCH  17  21
ATOM     21  C   LIG    1       -1.389  -0.497  -0.072  0.00  0.00    +0.139 C 
BRANCH  21  28
ATOM     22  C   LIG    1       -0.403   1.801  -0.186  0.00  0.00    +0.006 A 
ATOM     23  C   LIG    1        0.682   2.655  -0.253  0.00  0.00    +0.020 A 
ATOM     24  C   LIG    1        1.966   2.140  -0.277  0.00  0.00    +0.041 A 
ATOM     25 CL   LIG    1        3.330   3.211  -0.361  0.00  0.00    -0.084 Cl
ATOM     26  C   LIG    1        2.163   0.771  -0.236  0.00  0.00    +0.020 A 
ATOM     27  C   LIG    1        1.077  -0.081  -0.169  0.00  0.00    +0.006 A 
ATOM     28  C   LIG    1       -0.205   0.433  -0.145  0.00  0.00    -0.030 A 
ENDBRANCH  21  28
ENDBRANCH  17  21
ENDBRANCH   1  19
BRANCH   1  29
ATOM     29  N   LIG    1       -2.130  -2.221  -3.860  0.00  0.00    +0.388 N 
ATOM     30  H   LIG    1       -1.594  -1.367  -3.887  0.00  0.00    -0.089 HD
ATOM     31  H   LIG    1       -2.426  -2.462  -4.794  0.00  0.00    -0.089 HD
ATOM     32  H   LIG    1       -1.559  -2.964  -3.486  0.00  0.00    -0.089 HD
ENDBRANCH   1  29
TORSDOF 5
