REMARK  Name = ZINC15106287
REMARK                            x       y       z     vdW  Elec       q    Type
REMARK                         _______ _______ _______ _____ _____    ______ ____
ROOT
ATOM      1  C   LIG    1       -3.574   5.843  -0.138  0.00  0.00    +0.080 A 
ATOM      2  C   LIG    1       -3.625   7.227  -0.236  0.00  0.00    +0.098 A 
ATOM      3  C   LIG    1       -2.422   7.946  -0.244  0.00  0.00    +0.253 A 
ATOM      4  N   LIG    1       -1.258   7.269  -0.155  0.00  0.00    -0.295 N 
ATOM      5  C   LIG    1       -1.262   5.911  -0.060  0.00  0.00    +0.200 A 
ATOM      6  H   LIG    1       -0.416   7.751  -0.159  0.00  0.00    +0.172 HD
ATOM      7  O   LIG    1       -2.427   9.164  -0.330  0.00  0.00    -0.268 OA
ATOM      8  N   LIG    1       -2.386   5.227  -0.057  0.00  0.00    -0.216 NA
ENDROOT
BRANCH   1  12
ATOM      9  C   LIG    1       -7.171   3.573  -0.108  0.00  0.00    +0.162 A 
ATOM     10  C   LIG    1       -7.224   4.956  -0.207  0.00  0.00    +0.050 A 
ATOM     11  C   LIG    1       -6.060   5.695  -0.217  0.00  0.00    +0.014 A 
ATOM     12  C   LIG    1       -4.825   5.051  -0.127  0.00  0.00    +0.004 A 
ATOM     13  C   LIG    1       -4.771   3.660  -0.034  0.00  0.00    +0.059 A 
ATOM     14  C   LIG    1       -5.941   2.925  -0.018  0.00  0.00    +0.162 A 
BRANCH   9  16
ATOM     15  C   LIG    1       -9.547   3.578  -0.195  0.00  0.00    +0.277 C 
ATOM     16  O   LIG    1       -8.321   2.849  -0.099  0.00  0.00    -0.491 OA
ENDBRANCH   9  16
BRANCH  14  17
ATOM     17  O   LIG    1       -5.892   1.570   0.078  0.00  0.00    -0.491 OA
ATOM     18  C   LIG    1       -4.597   0.972   0.167  0.00  0.00    +0.277 C 
ENDBRANCH  14  17
ENDBRANCH   1  12
BRANCH   5  19
ATOM     19  N   LIG    1       -0.069   5.241   0.029  0.00  0.00    -0.285 N 
ATOM     20  H   LIG    1        0.767   5.726  -0.056  0.00  0.00    +0.155 HD
BRANCH  19  21
ATOM     21  C   LIG    1       -0.057   3.859   0.242  0.00  0.00    +0.034 A 
ATOM     22  C   LIG    1       -1.042   3.266   1.021  0.00  0.00    +0.023 A 
ATOM     23  C   LIG    1       -1.028   1.901   1.229  0.00  0.00    +0.002 A 
ATOM     24  C   LIG    1       -0.035   1.124   0.662  0.00  0.00    +0.000 A 
ATOM     25  C   LIG    1        0.951   1.711  -0.110  0.00  0.00    +0.002 A 
ATOM     26  C   LIG    1        0.939   3.075  -0.327  0.00  0.00    +0.023 A 
ENDBRANCH  19  21
ENDBRANCH   5  19
TORSDOF 5
