REMARK  Name = ZINC36303007
REMARK                            x       y       z     vdW  Elec       q    Type
REMARK                         _______ _______ _______ _____ _____    ______ ____
ROOT
ATOM      1  N   LIG    1        2.929  -6.390  -5.061  0.00  0.00    -0.299 N 
ATOM      2  H   LIG    1        3.265  -5.714  -5.670  0.00  0.00    +0.150 HD
ATOM      3  C   LIG    1        3.101  -7.697  -5.343  0.00  0.00    +0.300 C 
ATOM      4  N   LIG    1        3.742  -8.064  -6.470  0.00  0.00    -0.297 N 
ATOM      5  H   LIG    1        4.079  -7.388  -7.079  0.00  0.00    +0.151 HD
ATOM      6  O   LIG    1        2.679  -8.544  -4.580  0.00  0.00    -0.253 OA
ENDROOT
BRANCH   4   7
ATOM      7  C   LIG    1        3.930  -9.485  -6.777  0.00  0.00    +0.074 C 
ATOM      8  C   LIG    1        5.187  -9.997  -6.070  0.00  0.00    +0.022 C 
ATOM      9  C   LIG    1        5.383 -11.480  -6.390  0.00  0.00    +0.002 C 
ATOM     10  C   LIG    1        5.538 -11.660  -7.902  0.00  0.00    +0.000 C 
ATOM     11  C   LIG    1        4.281 -11.147  -8.608  0.00  0.00    +0.002 C 
ATOM     12  C   LIG    1        4.085  -9.664  -8.288  0.00  0.00    +0.022 C 
ENDBRANCH   4   7
BRANCH   1  13
ATOM     13  C   LIG    1        2.232  -5.991  -3.836  0.00  0.00    +0.106 C 
BRANCH  13  14
ATOM     14  C   LIG    1        2.172  -4.464  -3.758  0.00  0.00    +0.019 C 
BRANCH  14  15
ATOM     15  C   LIG    1        1.445  -4.047  -2.478  0.00  0.00    +0.002 C 
BRANCH  15  16
ATOM     16  C   LIG    1        1.385  -2.521  -2.400  0.00  0.00    +0.011 C 
BRANCH  16  17
ATOM     17  C   LIG    1        0.657  -2.104  -1.120  0.00  0.00    +0.120 C 
BRANCH  17  18
ATOM     18  C   LIG    1        0.598  -0.600  -1.043  0.00  0.00    +0.307 C 
ATOM     19  O   LIG    1        1.088   0.070  -1.921  0.00  0.00    -0.251 OA
BRANCH  18  21
ATOM     20  C   LIG    1       -0.017   1.425   0.010  0.00  0.00    +0.280 C 
ATOM     21  O   LIG    1        0.002  -0.004   0.002  0.00  0.00    -0.468 OA
ENDBRANCH  18  21
ENDBRANCH  17  18
ENDBRANCH  16  17
ENDBRANCH  15  16
ENDBRANCH  14  15
ENDBRANCH  13  14
ENDBRANCH   1  13
TORSDOF 8
