REMARK  Name = ZINC25757085
REMARK                            x       y       z     vdW  Elec       q    Type
REMARK                         _______ _______ _______ _____ _____    ______ ____
ROOT
ATOM      1  C   LIG    1       -0.038   1.538  -0.022  0.00  0.00    +0.014 C 
ATOM      2  C   LIG    1       -0.009   0.004  -0.015  0.00  0.00    +0.064 C 
ATOM      3  C   LIG    1       -1.465  -0.468  -0.056  0.00  0.00    +0.226 C 
ATOM      4  C   LIG    1       -1.649  -1.946   0.195  0.00  0.00    +0.160 C 
ATOM      5  C   LIG    1       -0.502  -2.742   0.822  0.00  0.00    +0.056 C 
ATOM      6  C   LIG    1        0.832  -2.065   1.036  0.00  0.00    +0.052 C 
ATOM      7  C   LIG    1        1.657  -2.658   2.128  0.00  0.00    -0.019 C 
ATOM      8  C   LIG    1        2.945  -2.542   2.158  0.00  0.00    -0.045 C 
ATOM      9  C   LIG    1        3.758  -1.813   1.152  0.00  0.00    +0.076 C 
ATOM     10  C   LIG    1        3.185  -0.513   0.679  0.00  0.00    +0.140 C 
ATOM     11  C   LIG    1        4.180   0.631   0.713  0.00  0.00    +0.191 C 
ATOM     12  O   LIG    1        5.353   0.583   0.399  0.00  0.00    -0.289 OA
ATOM     13  C   LIG    1        3.434   1.808   1.173  0.00  0.00    -0.009 C 
ATOM     14  C   LIG    1        3.962   3.221   1.123  0.00  0.00    +0.047 C 
ATOM     15  C   LIG    1        2.226   1.479   1.641  0.00  0.00    -0.011 C 
ATOM     16  C   LIG    1        2.039   0.000   1.535  0.00  0.00    +0.084 C 
ATOM     17  C   LIG    1       -0.979  -3.047  -0.601  0.00  0.00    +0.016 C 
ATOM     18  C   LIG    1       -1.787  -4.346  -0.788  0.00  0.00    +0.015 C 
ATOM     19  C   LIG    1       -0.117  -2.676  -1.802  0.00  0.00    +0.015 C 
ATOM     20  C   LIG    1        0.682  -0.551   1.221  0.00  0.00    +0.088 C 
ENDROOT
BRANCH  10  21
ATOM     21  O   LIG    1        2.755  -0.668  -0.674  0.00  0.00    -0.380 OA
ATOM     22  H   LIG    1        3.443  -0.993  -1.270  0.00  0.00    +0.211 HD
ENDBRANCH  10  21
BRANCH  20  23
ATOM     23  O   LIG    1       -0.166  -0.337   2.354  0.00  0.00    -0.387 OA
ATOM     24  H   LIG    1       -0.367   0.593   2.524  0.00  0.00    +0.210 HD
ENDBRANCH  20  23
BRANCH   3  25
ATOM     25  O   LIG    1       -2.023  -0.129  -1.330  0.00  0.00    -0.457 OA
BRANCH  25  26
ATOM     26  C   LIG    1       -2.615   1.071  -1.436  0.00  0.00    +0.304 C 
ATOM     27  C   LIG    1       -3.224   1.497  -2.747  0.00  0.00    +0.136 C 
ATOM     28  O   LIG    1       -2.659   1.809  -0.481  0.00  0.00    -0.251 OA
ENDBRANCH  25  26
ENDBRANCH   3  25
BRANCH   4  29
ATOM     29  O   LIG    1       -2.949  -2.281   0.711  0.00  0.00    -0.454 OA
BRANCH  29  30
ATOM     30  C   LIG    1       -3.257  -1.819   1.933  0.00  0.00    +0.305 C 
ATOM     31  C   LIG    1       -4.555  -2.221   2.585  0.00  0.00    +0.136 C 
ATOM     32  O   LIG    1       -2.493  -1.082   2.510  0.00  0.00    -0.251 OA
ENDBRANCH  29  30
ENDBRANCH   4  29
BRANCH   8  33
ATOM     33  C   LIG    1        3.673  -3.200   3.298  0.00  0.00    +0.186 C 
BRANCH  33  34
ATOM     34  O   LIG    1        2.730  -3.847   4.155  0.00  0.00    -0.391 OA
ATOM     35  H   LIG    1        3.130  -4.293   4.914  0.00  0.00    +0.210 HD
ENDBRANCH  33  34
ENDBRANCH   8  33
TORSDOF 8
