REMARK  Name = ZINC16052714
REMARK                            x       y       z     vdW  Elec       q    Type
REMARK                         _______ _______ _______ _____ _____    ______ ____
ROOT
ATOM      1  C   LIG    1        3.848  -3.878  -4.661  0.00  0.00    -0.024 A 
ATOM      2  C   LIG    1        4.826  -4.134  -3.773  0.00  0.00    +0.038 A 
ATOM      3  C   LIG    1        6.191  -3.770  -4.098  0.00  0.00    +0.084 A 
ATOM      4  C   LIG    1        6.356  -3.162  -5.361  0.00  0.00    +0.078 A 
ATOM      5  C   LIG    1        7.607  -2.761  -5.805  0.00  0.00    +0.140 A 
ATOM      6  N   LIG    1        8.656  -2.963  -5.011  0.00  0.00    -0.211 NA
ATOM      7  C   LIG    1        8.491  -3.536  -3.822  0.00  0.00    +0.163 A 
ATOM      8  N   LIG    1        7.319  -3.930  -3.368  0.00  0.00    -0.227 NA
ATOM      9  S   LIG    1        4.713  -3.122  -6.025  0.00  0.00    -0.090 S 
ENDROOT
BRANCH   7  10
ATOM     10  C   LIG    1        9.683  -3.743  -2.969  0.00  0.00    +0.030 A 
ATOM     11  C   LIG    1       10.935  -3.339  -3.407  0.00  0.00    +0.012 A 
ATOM     12  C   LIG    1       12.053  -3.532  -2.611  0.00  0.00    +0.003 A 
ATOM     13  C   LIG    1       11.942  -4.127  -1.373  0.00  0.00    +0.028 A 
ATOM     14  C   LIG    1       10.698  -4.543  -0.906  0.00  0.00    +0.066 A 
ATOM     15  N   LIG    1       10.274  -5.150   0.248  0.00  0.00    -0.277 N 
ATOM     16  H   LIG    1       10.836  -5.409   0.995  0.00  0.00    +0.189 HD
ATOM     17  N   LIG    1        8.886  -5.314   0.168  0.00  0.00    -0.181 NA
ATOM     18  C   LIG    1        8.454  -4.856  -0.972  0.00  0.00    +0.143 A 
ATOM     19  C   LIG    1        9.553  -4.348  -1.701  0.00  0.00    +0.030 A 
ENDBRANCH   7  10
BRANCH   5  20
ATOM     20  N   LIG    1        7.761  -2.166  -7.047  0.00  0.00    -0.310 N 
ATOM     21  C   LIG    1        6.592  -1.798  -7.861  0.00  0.00    +0.134 C 
ATOM     22  C   LIG    1        6.750  -0.339  -8.304  0.00  0.00    +0.178 C 
ATOM     23  O   LIG    1        8.030  -0.169  -8.917  0.00  0.00    -0.377 OA
ATOM     24  C   LIG    1        9.135  -0.417  -8.045  0.00  0.00    +0.178 C 
ATOM     25  C   LIG    1        9.099  -1.876  -7.587  0.00  0.00    +0.134 C 
ENDBRANCH   5  20
BRANCH   1  26
ATOM     26  C   LIG    1        2.374  -4.167  -4.535  0.00  0.00    -0.035 C 
BRANCH  26  30
ATOM     27  N   LIG    1        0.107  -1.653  -2.075  0.00  0.00    -0.185 NA
ATOM     28  C   LIG    1       -0.464  -1.997  -3.387  0.00  0.00    +0.090 C 
ATOM     29  C   LIG    1        0.249  -3.246  -3.915  0.00  0.00    -0.061 C 
ATOM     30  N   LIG    1        1.699  -3.012  -3.927  0.00  0.00    +0.384 N 
ATOM     31  H   LIG    1        1.901  -2.184  -4.468  0.00  0.00    -0.081 HD
ATOM     32  C   LIG    1        2.188  -2.829  -2.555  0.00  0.00    -0.061 C 
ATOM     33  C   LIG    1        1.570  -1.554  -1.961  0.00  0.00    +0.090 C 
BRANCH  27  35
ATOM     34  C   LIG    1       -1.229   0.398  -0.816  0.00  0.00    +0.215 C 
ATOM     35  S   LIG    1       -0.871  -1.380  -0.767  0.00  0.00    +0.029 S 
ATOM     36  O   LIG    1       -2.051  -2.125  -1.034  0.00  0.00    -0.158 OA
ATOM     37  O   LIG    1       -0.061  -1.685   0.360  0.00  0.00    -0.158 OA
ENDBRANCH  27  35
ENDBRANCH  26  30
ENDBRANCH   1  26
TORSDOF 5
