REMARK  Name = ZINC17654237
REMARK                            x       y       z     vdW  Elec       q    Type
REMARK                         _______ _______ _______ _____ _____    ______ ____
ROOT
ATOM      1  C   LIG    1       -5.850   3.459   0.101  0.00  0.00    +0.082 C 
ENDROOT
BRANCH   1   2
ATOM      2  C   LIG    1       -4.871   2.283   0.102  0.00  0.00    +0.236 C 
BRANCH   2   3
ATOM      3  O   LIG    1       -3.510   2.786   0.063  0.00  0.00    -0.460 OA
BRANCH   3   4
ATOM      4  C   LIG    1       -2.519   1.872   0.058  0.00  0.00    +0.360 C 
ATOM      5  O   LIG    1       -2.786   0.687   0.086  0.00  0.00    -0.243 OA
BRANCH   4  10
ATOM      6  C   LIG    1       -0.001  -1.248  -2.200  0.00  0.00    +0.132 C 
ATOM      7  N   LIG    1        0.708  -0.433  -1.210  0.00  0.00    -0.295 N 
ATOM      8  C   LIG    1        0.002  -0.004   0.002  0.00  0.00    +0.163 C 
ATOM      9  C   LIG    1       -0.018   1.503   0.010  0.00  0.00    +0.075 A 
ATOM     10  C   LIG    1       -1.115   2.310   0.019  0.00  0.00    +0.170 A 
ATOM     11  N   LIG    1       -0.672   3.595  -0.015  0.00  0.00    -0.228 NA
ATOM     12  C   LIG    1        0.631   3.596  -0.036  0.00  0.00    +0.205 A 
ATOM     13  N   LIG    1        1.072   2.308   0.004  0.00  0.00    -0.300 N 
ATOM     14  C   LIG    1        2.402   1.885   0.059  0.00  0.00    +0.060 A 
ATOM     15  C   LIG    1        3.292   2.643   0.819  0.00  0.00    +0.028 A 
ATOM     16  C   LIG    1        4.599   2.244   0.974  0.00  0.00    +0.019 A 
ATOM     17  C   LIG    1        5.045   1.068   0.363  0.00  0.00    +0.026 A 
ATOM     18  C   LIG    1        4.171   0.314  -0.409  0.00  0.00    +0.032 A 
ATOM     19  C   LIG    1        2.840   0.723  -0.580  0.00  0.00    +0.062 A 
ATOM     20  C   LIG    1        1.979  -0.100  -1.432  0.00  0.00    +0.249 C 
ATOM     21  O   LIG    1        2.480  -0.527  -2.455  0.00  0.00    -0.270 OA
BRANCH  17  22
ATOM     22  C   LIG    1        6.401   0.641   0.534  0.00  0.00    -0.070 C 
ATOM     23  C   LIG    1        7.513   0.291   0.674  0.00  0.00    +0.009 C 
ENDBRANCH  17  22
ENDBRANCH   4  10
ENDBRANCH   3   4
ENDBRANCH   2   3
ENDBRANCH   1   2
BRANCH   1  24
ATOM     24  C   LIG    1       -7.285   2.928   0.143  0.00  0.00    +0.236 C 
BRANCH  24  25
ATOM     25  O   LIG    1       -8.214   4.044   0.142  0.00  0.00    -0.460 OA
BRANCH  25  26
ATOM     26  C   LIG    1       -9.528   3.746   0.176  0.00  0.00    +0.360 C 
ATOM     27  O   LIG    1       -9.887   2.586   0.206  0.00  0.00    -0.243 OA
BRANCH  26  28
ATOM     28  C   LIG    1      -10.527   4.827   0.178  0.00  0.00    +0.170 A 
ATOM     29  C   LIG    1      -11.880   4.674   0.211  0.00  0.00    +0.075 A 
ATOM     30  N   LIG    1      -12.424   5.915   0.172  0.00  0.00    -0.300 N 
ATOM     31  C   LIG    1      -13.789   6.209   0.126  0.00  0.00    +0.060 A 
ATOM     32  C   LIG    1      -14.197   7.275  -0.675  0.00  0.00    +0.028 A 
ATOM     33  C   LIG    1      -15.531   7.573  -0.821  0.00  0.00    +0.019 A 
ATOM     34  C   LIG    1      -16.493   6.804  -0.159  0.00  0.00    +0.026 A 
ATOM     35  C   LIG    1      -16.098   5.750   0.654  0.00  0.00    +0.032 A 
ATOM     36  C   LIG    1      -14.737   5.449   0.815  0.00  0.00    +0.062 A 
ATOM     37  C   LIG    1      -14.386   4.345   1.712  0.00  0.00    +0.249 C 
ATOM     38  N   LIG    1      -13.454   3.413   1.515  0.00  0.00    -0.295 N 
ATOM     39  C   LIG    1      -13.228   2.398   2.547  0.00  0.00    +0.132 C 
ATOM     40  O   LIG    1      -15.015   4.270   2.750  0.00  0.00    -0.270 OA
ATOM     41  C   LIG    1      -11.399   6.812   0.155  0.00  0.00    +0.205 A 
ATOM     42  C   LIG    1      -12.648   3.380   0.289  0.00  0.00    +0.163 C 
ATOM     43  N   LIG    1      -10.271   6.162   0.153  0.00  0.00    -0.228 NA
BRANCH  34  44
ATOM     44  C   LIG    1      -17.884   7.102  -0.320  0.00  0.00    -0.070 C 
ATOM     45  C   LIG    1      -19.025   7.347  -0.452  0.00  0.00    +0.009 C 
ENDBRANCH  34  44
ENDBRANCH  26  28
ENDBRANCH  25  26
ENDBRANCH  24  25
ENDBRANCH   1  24
TORSDOF 10
