REMARK  Name = ZINC13831249
REMARK                            x       y       z     vdW  Elec       q    Type
REMARK                         _______ _______ _______ _____ _____    ______ ____
ROOT
ATOM      1  C   LIG    1       -6.892  -6.706   3.574  0.00  0.00    +0.045 A 
ATOM      2  C   LIG    1       -7.820  -7.237   2.572  0.00  0.00    +0.001 A 
ATOM      3  C   LIG    1       -8.649  -6.517   1.681  0.00  0.00    +0.013 A 
ATOM      4  C   LIG    1       -9.467  -7.173   0.799  0.00  0.00    +0.046 A 
ATOM      5  C   LIG    1       -9.507  -8.563   0.751  0.00  0.00    +0.118 A 
ATOM      6  C   LIG    1       -8.706  -9.296   1.612  0.00  0.00    +0.061 A 
ATOM      7  C   LIG    1       -7.881  -8.641   2.502  0.00  0.00    +0.024 A 
ATOM      8  S   LIG    1       -6.734  -9.194   3.737  0.00  0.00    -0.087 S 
ATOM      9  C   LIG    1       -6.172  -7.614   4.338  0.00  0.00    +0.031 A 
ENDROOT
BRANCH   9  10
ATOM     10  C   LIG    1       -5.182  -7.337   5.395  0.00  0.00    -0.010 A 
ATOM     11  C   LIG    1       -5.461  -6.392   6.387  0.00  0.00    +0.012 A 
ATOM     12  C   LIG    1       -4.533  -6.137   7.372  0.00  0.00    +0.046 A 
ATOM     13  C   LIG    1       -3.321  -6.816   7.381  0.00  0.00    +0.117 A 
ATOM     14  C   LIG    1       -3.039  -7.756   6.397  0.00  0.00    +0.046 A 
ATOM     15  C   LIG    1       -3.964  -8.023   5.412  0.00  0.00    +0.012 A 
BRANCH  13  16
ATOM     16  O   LIG    1       -2.409  -6.561   8.354  0.00  0.00    -0.507 OA
ATOM     17  H   LIG    1       -2.455  -7.168   9.106  0.00  0.00    +0.292 HD
ENDBRANCH  13  16
ENDBRANCH   9  10
BRANCH   1  18
ATOM     18  C   LIG    1       -6.725  -5.264   3.758  0.00  0.00    +0.195 C 
ATOM     19  O   LIG    1       -7.467  -4.656   4.509  0.00  0.00    -0.287 OA
BRANCH  18  23
ATOM     20  C   LIG    1       -3.651  -3.199   1.677  0.00  0.00    +0.030 A 
ATOM     21  C   LIG    1       -4.421  -2.529   2.623  0.00  0.00    +0.024 A 
ATOM     22  C   LIG    1       -5.418  -3.195   3.299  0.00  0.00    +0.013 A 
ATOM     23  C   LIG    1       -5.657  -4.546   3.035  0.00  0.00    +0.022 A 
ATOM     24  C   LIG    1       -4.882  -5.217   2.084  0.00  0.00    +0.013 A 
ATOM     25  C   LIG    1       -3.890  -4.544   1.408  0.00  0.00    +0.024 A 
BRANCH  20  29
ATOM     26  N   LIG    1       -0.134  -1.434   0.470  0.00  0.00    -0.297 NA
ATOM     27  C   LIG    1       -0.978  -0.819   1.504  0.00  0.00    +0.103 C 
ATOM     28  C   LIG    1       -2.452  -1.076   1.175  0.00  0.00    +0.120 C 
ATOM     29  N   LIG    1       -2.645  -2.523   0.996  0.00  0.00    -0.327 N 
ATOM     30  C   LIG    1       -1.745  -3.236   0.076  0.00  0.00    +0.120 C 
ATOM     31  C   LIG    1       -0.298  -2.894   0.448  0.00  0.00    +0.103 C 
BRANCH  26  33
ATOM     32  C   LIG    1        1.424   0.454   0.546  0.00  0.00    +0.024 C 
ATOM     33  C   LIG    1        1.276  -1.065   0.653  0.00  0.00    +0.051 C 
ATOM     34  C   LIG    1        1.749  -1.528   2.032  0.00  0.00    +0.024 C 
ENDBRANCH  26  33
ENDBRANCH  20  29
ENDBRANCH  18  23
ENDBRANCH   1  18
BRANCH   5  35
ATOM     35  O   LIG    1      -10.326  -9.196  -0.131  0.00  0.00    -0.507 OA
ATOM     36  H   LIG    1       -9.916  -9.378  -0.987  0.00  0.00    +0.292 HD
ENDBRANCH   5  35
TORSDOF 7
