REMARK  Name = ZINC45261420
REMARK                            x       y       z     vdW  Elec       q    Type
REMARK                         _______ _______ _______ _____ _____    ______ ____
ROOT
ATOM      1  C   LIG    1        2.784  -0.463  -2.476  0.00  0.00    +0.135 C 
ENDROOT
BRANCH   1   2
ATOM      2  O   LIG    1        2.163   0.105  -3.631  0.00  0.00    -0.390 OA
ATOM      3  H   LIG    1        2.181   1.072  -3.652  0.00  0.00    +0.210 HD
ENDBRANCH   1   2
BRANCH   1   4
ATOM      4  C   LIG    1        2.068   0.031  -1.217  0.00  0.00    -0.047 C 
BRANCH   4   5
ATOM      5  N   LIG    1        0.690  -0.478  -1.207  0.00  0.00    +0.384 N 
ATOM      6  H   LIG    1        0.202  -0.144  -2.024  0.00  0.00    -0.085 HD
ATOM      7  H   LIG    1        0.703  -1.487  -1.212  0.00  0.00    -0.085 HD
BRANCH   5   9
ATOM      8  C   LIG    1       -0.019   1.526   0.010  0.00  0.00    -0.010 C 
ATOM      9  C   LIG    1        0.002  -0.004   0.002  0.00  0.00    -0.070 C 
ATOM     10  C   LIG    1        0.742  -0.511   1.242  0.00  0.00    -0.010 C 
BRANCH   9  11
ATOM     11  C   LIG    1       -1.433  -0.534   0.013  0.00  0.00    +0.022 C 
BRANCH  11  12
ATOM     12  C   LIG    1       -2.139  -0.048   1.253  0.00  0.00    -0.048 A 
ATOM     13  C   LIG    1       -2.086  -0.812   2.417  0.00  0.00    +0.004 A 
ATOM     14  C   LIG    1       -2.712  -0.402   3.554  0.00  0.00    +0.009 A 
ATOM     15  C   LIG    1       -3.423   0.810   3.557  0.00  0.00    -0.018 A 
ATOM     16  C   LIG    1       -4.082   1.266   4.712  0.00  0.00    +0.008 A 
ATOM     17  C   LIG    1       -4.761   2.445   4.678  0.00  0.00    +0.001 A 
ATOM     18  C   LIG    1       -4.813   3.210   3.514  0.00  0.00    +0.001 A 
ATOM     19  C   LIG    1       -4.187   2.800   2.377  0.00  0.00    +0.008 A 
ATOM     20  C   LIG    1       -3.477   1.587   2.373  0.00  0.00    -0.018 A 
ATOM     21  C   LIG    1       -2.813   1.134   1.221  0.00  0.00    +0.012 A 
ENDBRANCH  11  12
ENDBRANCH   9  11
ENDBRANCH   5   9
ENDBRANCH   4   5
ENDBRANCH   1   4
BRANCH   1  22
ATOM     22  C   LIG    1        4.253  -0.038  -2.426  0.00  0.00    +0.258 C 
BRANCH  22  23
ATOM     23  O   LIG    1        4.948  -0.597  -3.543  0.00  0.00    -0.488 OA
BRANCH  23  24
ATOM     24  C   LIG    1        6.271  -0.315  -3.649  0.00  0.00    +0.138 A 
ATOM     25  C   LIG    1        6.893   0.478  -2.696  0.00  0.00    +0.047 A 
ATOM     26  C   LIG    1        8.239   0.764  -2.805  0.00  0.00    +0.007 A 
ATOM     27  C   LIG    1        8.979   0.263  -3.863  0.00  0.00    -0.045 A 
ATOM     28  C   LIG    1        8.378  -0.527  -4.819  0.00  0.00    +0.026 A 
ATOM     29  C   LIG    1        7.018  -0.829  -4.718  0.00  0.00    +0.094 A 
BRANCH  29  30
ATOM     30  C   LIG    1        6.388  -1.654  -5.705  0.00  0.00    +0.103 C 
ATOM     31  N   LIG    1        5.888  -2.309  -6.487  0.00  0.00    -0.191 NA
ENDBRANCH  29  30
BRANCH  27  32
ATOM     32  C   LIG    1       10.448   0.584  -3.971  0.00  0.00    +0.046 C 
BRANCH  32  33
ATOM     33  C   LIG    1       11.258  -0.483  -3.232  0.00  0.00    +0.125 C 
BRANCH  33  34
ATOM     34  C   LIG    1       12.727  -0.162  -3.339  0.00  0.00    +0.305 C 
ATOM     35  O   LIG    1       13.091   0.828  -3.950  0.00  0.00    -0.251 OA
BRANCH  34  36
ATOM     36  O   LIG    1       13.550  -0.892  -2.814  0.00  0.00    -0.481 OA
ATOM     37  H   LIG    1       13.270  -1.653  -2.345  0.00  0.00    +0.295 HD
ENDBRANCH  34  36
ENDBRANCH  33  34
ENDBRANCH  32  33
ENDBRANCH  27  32
ENDBRANCH  23  24
ENDBRANCH  22  23
ENDBRANCH   1  22
TORSDOF 14
