REMARK  Name = ZINC19793819
REMARK                            x       y       z     vdW  Elec       q    Type
REMARK                         _______ _______ _______ _____ _____    ______ ____
ROOT
ATOM      1  C   LIG    1        1.593  -2.318  -2.508  0.00  0.00    +0.000 A 
ATOM      2  C   LIG    1        2.523  -1.492  -3.114  0.00  0.00    +0.000 A 
ATOM      3  C   LIG    1        2.638  -0.177  -2.714  0.00  0.00    +0.006 A 
ATOM      4  C   LIG    1        1.826   0.324  -1.706  0.00  0.00    -0.022 A 
ATOM      5  C   LIG    1        0.902  -0.500  -1.101  0.00  0.00    -0.041 A 
ATOM      6  C   LIG    1        0.002  -0.004   0.002  0.00  0.00    +0.050 C 
ATOM      7  C   LIG    1       -0.019   1.525   0.010  0.00  0.00    +0.086 C 
ATOM      8  N   LIG    1        1.370   2.011  -0.000  0.00  0.00    -0.305 NA
ATOM      9  H   LIG    1        1.382   3.091   0.208  0.00  0.00    +0.123 HD
ATOM     10  C   LIG    1        1.983   1.768  -1.310  0.00  0.00    +0.121 C 
ATOM     11  C   LIG    1        0.786  -1.822  -1.504  0.00  0.00    +0.004 A 
ENDROOT
BRANCH  10  12
ATOM     12  C   LIG    1        3.449   2.111  -1.246  0.00  0.00    +0.011 A 
ATOM     13  C   LIG    1        4.217   2.752  -2.160  0.00  0.00    +0.013 A 
ATOM     14  C   LIG    1        5.555   2.960  -1.884  0.00  0.00    +0.008 A 
ATOM     15  C   LIG    1        6.060   2.516  -0.707  0.00  0.00    +0.045 A 
ATOM     16  S   LIG    1        4.623   1.784   0.059  0.00  0.00    -0.100 S 
ENDBRANCH  10  12
TORSDOF 1
