REMARK  Name = ZINC59514333
REMARK                            x       y       z     vdW  Elec       q    Type
REMARK                         _______ _______ _______ _____ _____    ______ ____
ROOT
ATOM      1  N   LIG    1        3.622  -0.650  -0.036  0.00  0.00    -0.151 N 
ENDROOT
BRANCH   1   2
ATOM      2  C   LIG    1        3.570  -1.803   0.722  0.00  0.00    +0.358 C 
ATOM      3  N   LIG    1        2.462  -2.464   0.835  0.00  0.00    +0.097 NA
ATOM      4  S   LIG    1        2.808  -3.774   1.817  0.00  0.00    +0.180 S 
ATOM      5  C   LIG    1        4.526  -3.474   2.128  0.00  0.00    +0.150 A 
ATOM      6  C   LIG    1        5.500  -4.106   2.844  0.00  0.00    +0.032 A 
ATOM      7  C   LIG    1        6.788  -3.587   2.858  0.00  0.00    +0.002 A 
ATOM      8  C   LIG    1        7.061  -2.425   2.159  0.00  0.00    +0.001 A 
ATOM      9  C   LIG    1        6.079  -1.782   1.440  0.00  0.00    +0.018 A 
ATOM     10  O   LIG    1        2.709  -4.948   1.023  0.00  0.00    -0.125 OA
ATOM     11  O   LIG    1        2.108  -3.594   3.041  0.00  0.00    -0.125 OA
ATOM     12  C   LIG    1        4.774  -2.298   1.406  0.00  0.00    +0.097 A 
ENDBRANCH   1   2
BRANCH   1  16
ATOM     13  C   LIG    1        0.349   0.462  -2.363  0.00  0.00    +0.000 A 
ATOM     14  C   LIG    1        0.750   1.262  -1.309  0.00  0.00    +0.004 A 
ATOM     15  C   LIG    1        1.834   0.896  -0.535  0.00  0.00    +0.049 A 
ATOM     16  C   LIG    1        2.522  -0.277  -0.818  0.00  0.00    +0.127 A 
ATOM     17  C   LIG    1        2.118  -1.079  -1.877  0.00  0.00    +0.049 A 
ATOM     18  C   LIG    1        1.033  -0.707  -2.647  0.00  0.00    +0.004 A 
ENDBRANCH   1  16
BRANCH   1  19
ATOM     19  C   LIG    1        4.773   0.144  -0.023  0.00  0.00    +0.127 A 
ATOM     20  C   LIG    1        5.728   0.003  -1.022  0.00  0.00    +0.049 A 
ATOM     21  C   LIG    1        6.863   0.789  -1.006  0.00  0.00    +0.004 A 
ATOM     22  C   LIG    1        7.050   1.716   0.002  0.00  0.00    +0.000 A 
ATOM     23  C   LIG    1        6.101   1.860   0.998  0.00  0.00    +0.004 A 
ATOM     24  C   LIG    1        4.961   1.081   0.985  0.00  0.00    +0.049 A 
ENDBRANCH   1  19
TORSDOF 3
