REMARK  Name = ZINC26898933
REMARK                            x       y       z     vdW  Elec       q    Type
REMARK                         _______ _______ _______ _____ _____    ______ ____
ROOT
ATOM      1  C   LIG    1       -4.388  -3.257   1.088  0.00  0.00    +0.105 C 
ATOM      2  N   LIG    1       -3.122  -2.512   1.079  0.00  0.00    -0.303 NA
ATOM      3  C   LIG    1       -2.293  -2.896  -0.071  0.00  0.00    +0.099 C 
ATOM      4  C   LIG    1       -0.954  -2.159   0.000  0.00  0.00    +0.101 C 
ATOM      5  N   LIG    1       -1.196  -0.709   0.010  0.00  0.00    -0.285 NA
ATOM      6  C   LIG    1       -2.025  -0.325   1.161  0.00  0.00    +0.101 C 
ATOM      7  C   LIG    1       -3.365  -1.063   1.090  0.00  0.00    +0.099 C 
ENDROOT
BRANCH   5   8
ATOM      8  C   LIG    1        0.002  -0.004   0.002  0.00  0.00    +0.124 C 
ATOM      9  C   LIG    1       -0.017   1.387   0.010  0.00  0.00    +0.035 C 
ATOM     10  C   LIG    1        1.182   2.076   0.002  0.00  0.00    +0.004 C 
ATOM     11  C   LIG    1        2.365   1.348  -0.013  0.00  0.00    +0.015 C 
ATOM     12  C   LIG    1        2.310  -0.031  -0.020  0.00  0.00    +0.082 C 
ATOM     13  N   LIG    1        1.151  -0.662  -0.013  0.00  0.00    -0.301 NA
ATOM     14  H   LIG    1        1.154  -1.762  -0.018  0.00  0.00    +0.123 HD
ENDBRANCH   5   8
TORSDOF 1
