REMARK  Name = ZINC28262450
REMARK                            x       y       z     vdW  Elec       q    Type
REMARK                         _______ _______ _______ _____ _____    ______ ____
ROOT
ATOM      1  C   LIG    1        2.377   1.439  -0.011  0.00  0.00    +0.000 A 
ATOM      2  C   LIG    1        1.164   2.103   0.002  0.00  0.00    +0.002 A 
ATOM      3  C   LIG    1       -0.017   1.392   0.010  0.00  0.00    +0.024 A 
ATOM      4  C   LIG    1        0.002  -0.004   0.002  0.00  0.00    +0.040 A 
ATOM      5  C   LIG    1        1.222  -0.660  -0.013  0.00  0.00    -0.024 A 
ATOM      6  C   LIG    1        0.967  -2.151  -0.019  0.00  0.00    +0.071 C 
ATOM      7  C   LIG    1       -0.564  -2.281  -0.005  0.00  0.00    +0.194 C 
ATOM      8  N   LIG    1       -1.067  -0.905   0.007  0.00  0.00    -0.257 N 
ATOM      9  C   LIG    1       -2.370  -0.558   0.022  0.00  0.00    +0.221 C 
ATOM     10  O   LIG    1       -3.226  -1.417   0.026  0.00  0.00    -0.275 OA
ATOM     11  C   LIG    1        2.404   0.057  -0.020  0.00  0.00    +0.005 A 
ENDROOT
BRANCH   7  12
ATOM     12  C   LIG    1       -1.017  -3.014   1.232  0.00  0.00    +0.326 C 
ATOM     13  O   LIG    1       -1.698  -2.449   2.054  0.00  0.00    -0.249 OA
BRANCH  12  14
ATOM     14  O   LIG    1       -0.665  -4.296   1.419  0.00  0.00    -0.479 OA
ATOM     15  H   LIG    1       -0.137  -4.735   0.781  0.00  0.00    +0.295 HD
ENDBRANCH  12  14
ENDBRANCH   7  12
BRANCH   9  16
ATOM     16  C   LIG    1       -2.762   0.897   0.034  0.00  0.00    +0.107 C 
BRANCH  16  17
ATOM     17  C   LIG    1       -4.287   1.013   0.049  0.00  0.00    +0.075 C 
BRANCH  17  18
ATOM     18  S   LIG    1       -4.760   2.765   0.063  0.00  0.00    -0.178 S 
ATOM     19  H   LIG    1       -5.823   3.048   0.075  0.00  0.00    +0.102 HD
ENDBRANCH  17  18
ENDBRANCH  16  17
ENDBRANCH   9  16
TORSDOF 5
