REMARK  Name = ZINC00025301
REMARK                            x       y       z     vdW  Elec       q    Type
REMARK                         _______ _______ _______ _____ _____    ______ ____
ROOT
ATOM      1  C   LIG    1        0.680  -2.088   1.091  0.00  0.00    +0.164 C 
ATOM      2  C   LIG    1        1.316  -2.709   2.163  0.00  0.00    +0.040 C 
ATOM      3  C   LIG    1        1.360  -4.100   2.197  0.00  0.00    +0.044 C 
ATOM      4  C   LIG    1        1.919  -5.093   3.128  0.00  0.00    -0.022 A 
ATOM      5  C   LIG    1        2.619  -4.998   4.329  0.00  0.00    +0.006 A 
ATOM      6  C   LIG    1        3.018  -6.144   4.982  0.00  0.00    +0.000 A 
ATOM      7  C   LIG    1        2.727  -7.389   4.447  0.00  0.00    +0.002 A 
ATOM      8  C   LIG    1        2.037  -7.499   3.260  0.00  0.00    +0.023 A 
ATOM      9  C   LIG    1        1.624  -6.353   2.585  0.00  0.00    +0.031 A 
ATOM     10  N   LIG    1        0.931  -6.168   1.403  0.00  0.00    -0.339 N 
ATOM     11  H   LIG    1        0.609  -6.884   0.832  0.00  0.00    +0.146 HD
ATOM     12  C   LIG    1        0.761  -4.825   1.151  0.00  0.00    +0.092 C 
ATOM     13  C   LIG    1        0.146  -4.120   0.116  0.00  0.00    +0.104 C 
ATOM     14  N   LIG    1        0.120  -2.808   0.121  0.00  0.00    -0.302 NA
ATOM     15  H   LIG    1       -0.320  -2.346  -0.610  0.00  0.00    +0.123 HD
ENDROOT
BRANCH   1  16
ATOM     16  C   LIG    1        0.620  -0.613   1.032  0.00  0.00    +0.324 C 
ATOM     17  O   LIG    1        1.129   0.051   1.913  0.00  0.00    -0.249 OA
BRANCH  16  19
ATOM     18  C   LIG    1       -0.017   1.425   0.010  0.00  0.00    +0.280 C 
ATOM     19  O   LIG    1        0.002  -0.004   0.002  0.00  0.00    -0.467 OA
ENDBRANCH  16  19
ENDBRANCH   1  16
TORSDOF 2
