REMARK  Name = ZINC14687377
REMARK                            x       y       z     vdW  Elec       q    Type
REMARK                         _______ _______ _______ _____ _____    ______ ____
ROOT
ATOM      1  C   LIG    1       -2.842  -2.416   0.016  0.00  0.00    +0.091 A 
ATOM      2  C   LIG    1       -3.551  -2.715  -1.208  0.00  0.00    -0.021 A 
ATOM      3  C   LIG    1       -4.779  -3.243  -1.061  0.00  0.00    +0.051 A 
ATOM      4  S   LIG    1       -4.978  -3.337   0.705  0.00  0.00    -0.081 S 
ATOM      5  C   LIG    1       -3.502  -2.711   1.202  0.00  0.00    +0.086 A 
ENDROOT
BRANCH   5   6
ATOM      6  N   LIG    1       -3.047  -2.529   2.498  0.00  0.00    -0.279 N 
ATOM      7  H   LIG    1       -2.166  -2.153   2.655  0.00  0.00    +0.155 HD
ATOM      8  C   LIG    1       -3.827  -2.875   3.541  0.00  0.00    +0.222 C 
ATOM      9  O   LIG    1       -4.928  -3.345   3.345  0.00  0.00    -0.275 OA
BRANCH   8  10
ATOM     10  C   LIG    1       -3.332  -2.677   4.951  0.00  0.00    +0.131 C 
BRANCH  10  11
ATOM     11  C   LIG    1       -4.387  -3.139   5.923  0.00  0.00    -0.038 A 
ATOM     12  C   LIG    1       -5.346  -2.252   6.375  0.00  0.00    +0.007 A 
ATOM     13  C   LIG    1       -6.313  -2.673   7.267  0.00  0.00    +0.046 A 
ATOM     14  C   LIG    1       -6.322  -3.988   7.708  0.00  0.00    +0.120 A 
ATOM     15  C   LIG    1       -5.360  -4.877   7.252  0.00  0.00    +0.046 A 
ATOM     16  C   LIG    1       -4.398  -4.452   6.357  0.00  0.00    +0.007 A 
BRANCH  14  17
ATOM     17  O   LIG    1       -7.273  -4.405   8.585  0.00  0.00    -0.495 OA
ATOM     18  C   LIG    1       -7.221  -5.772   8.996  0.00  0.00    +0.277 C 
ENDBRANCH  14  17
ENDBRANCH  10  11
ENDBRANCH   8  10
ENDBRANCH   5   6
BRANCH   2  19
ATOM     19  C   LIG    1       -2.950  -2.450  -2.565  0.00  0.00    +0.020 C 
ATOM     20  C   LIG    1       -3.860  -2.614  -3.784  0.00  0.00    +0.009 C 
ATOM     21  C   LIG    1       -2.766  -3.646  -3.501  0.00  0.00    +0.009 C 
ENDBRANCH   2  19
BRANCH   1  22
ATOM     22  C   LIG    1       -1.497  -1.838   0.006  0.00  0.00    +0.342 C 
ATOM     23  O   LIG    1       -0.523  -2.566  -0.007  0.00  0.00    -0.245 OA
BRANCH  22  24
ATOM     24  O   LIG    1       -1.339  -0.499   0.012  0.00  0.00    -0.461 OA
BRANCH  24  26
ATOM     25  C   LIG    1       -0.019   1.526   0.010  0.00  0.00    +0.048 C 
ATOM     26  C   LIG    1        0.002  -0.004   0.002  0.00  0.00    +0.229 C 
ENDBRANCH  24  26
ENDBRANCH  22  24
ENDBRANCH   1  22
TORSDOF 8
