REMARK  Name = ZINC00005389
REMARK                            x       y       z     vdW  Elec       q    Type
REMARK                         _______ _______ _______ _____ _____    ______ ____
ROOT
ATOM      1  C   LIG    1       -0.017   1.380   0.010  0.00  0.00    +0.006 A 
ATOM      2  C   LIG    1        1.166   2.089   0.002  0.00  0.00    +0.008 A 
ATOM      3  C   LIG    1        2.386   1.406  -0.013  0.00  0.00    -0.025 A 
ATOM      4  C   LIG    1        2.397   0.007  -0.021  0.00  0.00    +0.008 A 
ATOM      5  C   LIG    1        1.206  -0.687  -0.013  0.00  0.00    +0.006 A 
ATOM      6  C   LIG    1        0.002  -0.004   0.002  0.00  0.00    -0.028 A 
ENDROOT
BRANCH   3   7
ATOM      7  C   LIG    1        3.652   2.155  -0.022  0.00  0.00    +0.015 C 
ATOM      8  C   LIG    1        4.830   1.492  -0.036  0.00  0.00    +0.092 C 
BRANCH   8   9
ATOM      9  C   LIG    1        6.048   2.212  -0.045  0.00  0.00    +0.330 C 
ATOM     10  O   LIG    1        6.036   3.437  -0.038  0.00  0.00    -0.246 OA
BRANCH   9  11
ATOM     11  O   LIG    1        7.116   1.611  -0.058  0.00  0.00    -0.478 OA
ATOM     12  H   LIG    1        7.125   0.674  -0.063  0.00  0.00    +0.295 HD
ENDBRANCH   9  11
ENDBRANCH   8   9
ENDBRANCH   3   7
BRANCH   6  13
ATOM     13  C   LIG    1       -1.295  -0.771   0.010  0.00  0.00    +0.157 C 
BRANCH  13  14
ATOM     14  N   LIG    1       -1.728  -1.012  -1.368  0.00  0.00    -0.334 N 
ATOM     15  C   LIG    1       -2.525  -0.195  -2.124  0.00  0.00    +0.105 A 
ATOM     16  C   LIG    1       -2.672  -0.793  -3.322  0.00  0.00    +0.101 A 
ATOM     17  N   LIG    1       -1.984  -1.944  -3.298  0.00  0.00    -0.352 N 
ATOM     18  H   LIG    1       -1.919  -2.575  -4.032  0.00  0.00    +0.166 HD
ATOM     19  C   LIG    1       -1.412  -2.080  -2.132  0.00  0.00    +0.174 A 
ENDBRANCH  13  14
ENDBRANCH   6  13
TORSDOF 5
