REMARK  Name = ZINC18118599
REMARK                            x       y       z     vdW  Elec       q    Type
REMARK                         _______ _______ _______ _____ _____    ______ ____
ROOT
ATOM      1  C   LIG    1       -0.347   1.026   0.670  0.00  0.00    +0.001 A 
ATOM      2  C   LIG    1        0.747   1.863   0.531  0.00  0.00    +0.001 A 
ATOM      3  C   LIG    1        2.007   1.342   0.300  0.00  0.00    +0.012 A 
ATOM      4  C   LIG    1        2.182  -0.038   0.207  0.00  0.00    +0.030 A 
ATOM      5  C   LIG    1        1.067  -0.889   0.360  0.00  0.00    +0.034 A 
ATOM      6  C   LIG    1        1.251  -2.358   0.289  0.00  0.00    +0.209 C 
ATOM      7  C   LIG    1        2.578  -2.849  -0.196  0.00  0.00    +0.108 C 
ATOM      8  C   LIG    1        3.791  -2.054   0.255  0.00  0.00    +0.203 C 
ATOM      9 CL   LIG    1        4.040  -2.270   2.028  0.00  0.00    -0.106 Cl
ATOM     10  N   LIG    1        2.686  -3.888  -0.952  0.00  0.00    -0.282 NA
ATOM     11  O   LIG    1        0.367  -3.126   0.609  0.00  0.00    -0.285 OA
ATOM     12  C   LIG    1        3.520  -0.598  -0.052  0.00  0.00    +0.187 C 
ATOM     13  O   LIG    1        4.397   0.104  -0.508  0.00  0.00    -0.290 OA
ATOM     14  C   LIG    1       -0.194  -0.347   0.585  0.00  0.00    +0.012 A 
ENDROOT
BRANCH  10  15
ATOM     15  C   LIG    1        4.010  -4.424  -1.277  0.00  0.00    +0.146 C 
BRANCH  15  16
ATOM     16  C   LIG    1        4.276  -4.255  -2.774  0.00  0.00    +0.058 C 
BRANCH  16  17
ATOM     17  C   LIG    1        5.638  -4.806  -3.108  0.00  0.00    -0.045 A 
ATOM     18  C   LIG    1        6.748  -3.985  -3.048  0.00  0.00    +0.006 A 
ATOM     19  C   LIG    1        7.998  -4.489  -3.354  0.00  0.00    +0.038 A 
ATOM     20  C   LIG    1        8.138  -5.817  -3.720  0.00  0.00    +0.123 A 
ATOM     21  F   LIG    1        9.360  -6.311  -4.019  0.00  0.00    -0.205 F 
ATOM     22  C   LIG    1        7.025  -6.639  -3.779  0.00  0.00    +0.038 A 
ATOM     23  C   LIG    1        5.777  -6.134  -3.468  0.00  0.00    +0.006 A 
ENDBRANCH  16  17
ENDBRANCH  15  16
ENDBRANCH  10  15
TORSDOF 3
