REMARK  Name = ZINC17145551
REMARK                            x       y       z     vdW  Elec       q    Type
REMARK                         _______ _______ _______ _____ _____    ______ ____
ROOT
ATOM      1  C   LIG    1       -1.529   2.349   1.371  0.00  0.00    +0.071 C 
ATOM      2  C   LIG    1       -1.736   3.669   1.153  0.00  0.00    +0.188 C 
ATOM      3  C   LIG    1       -1.177   4.037  -0.165  0.00  0.00    +0.283 C 
ATOM      4  N   LIG    1       -0.632   2.955  -0.750  0.00  0.00    -0.280 N 
ATOM      5  O   LIG    1       -1.204   5.152  -0.647  0.00  0.00    -0.267 OA
ATOM      6  C   LIG    1       -0.806   1.815   0.157  0.00  0.00    +0.145 C 
ENDROOT
BRANCH   6   7
ATOM      7  C   LIG    1        0.537   1.260   0.557  0.00  0.00    -0.022 A 
ATOM      8  C   LIG    1        1.587   2.119   0.825  0.00  0.00    +0.006 A 
ATOM      9  C   LIG    1        2.821   1.610   1.185  0.00  0.00    +0.004 A 
ATOM     10  C   LIG    1        3.005   0.243   1.277  0.00  0.00    -0.045 A 
ATOM     11  C   LIG    1        1.955  -0.615   1.010  0.00  0.00    +0.004 A 
ATOM     12  C   LIG    1        0.721  -0.106   0.649  0.00  0.00    +0.006 A 
BRANCH  10  13
ATOM     13  C   LIG    1        4.350  -0.312   1.670  0.00  0.00    +0.013 C 
ATOM     14  C   LIG    1        4.730   0.207   3.058  0.00  0.00    +0.012 C 
ATOM     15  C   LIG    1        5.402   0.135   0.653  0.00  0.00    +0.012 C 
ENDBRANCH  10  13
ENDBRANCH   6   7
BRANCH   1  16
ATOM     16  C   LIG    1       -1.929   1.586   2.557  0.00  0.00    +0.195 C 
ATOM     17  O   LIG    1       -1.442   1.846   3.641  0.00  0.00    -0.287 OA
BRANCH  16  22
ATOM     18  C   LIG    1       -5.803  -2.644   2.085  0.00  0.00    +0.044 C 
ATOM     19  C   LIG    1       -4.788  -1.537   2.208  0.00  0.00    -0.050 A 
ATOM     20  C   LIG    1       -4.149  -1.320   3.417  0.00  0.00    +0.004 A 
ATOM     21  C   LIG    1       -3.220  -0.308   3.537  0.00  0.00    +0.012 A 
ATOM     22  C   LIG    1       -2.924   0.498   2.436  0.00  0.00    +0.022 A 
ATOM     23  C   LIG    1       -3.576   0.277   1.221  0.00  0.00    +0.012 A 
ATOM     24  C   LIG    1       -4.500  -0.742   1.113  0.00  0.00    +0.004 A 
ENDBRANCH  16  22
ENDBRANCH   1  16
BRANCH   2  25
ATOM     25  O   LIG    1       -2.356   4.517   2.006  0.00  0.00    -0.502 OA
ATOM     26  H   LIG    1       -2.683   4.201   2.826  0.00  0.00    +0.292 HD
ENDBRANCH   2  25
BRANCH   4  27
ATOM     27  C   LIG    1        0.021   2.922  -2.061  0.00  0.00    +0.136 C 
BRANCH  27  28
ATOM     28  C   LIG    1       -1.002   2.613  -3.124  0.00  0.00    -0.016 C 
ATOM     29  C   LIG    1       -1.148   3.419  -4.146  0.00  0.00    +0.005 C 
ENDBRANCH  27  28
ENDBRANCH   4  27
TORSDOF 7
