REMARK  Name = ZINC22065874
REMARK                            x       y       z     vdW  Elec       q    Type
REMARK                         _______ _______ _______ _____ _____    ______ ____
ROOT
ATOM      1  C   LIG    1       -1.080  -2.099   0.000  0.00  0.00    +0.022 A 
ATOM      2  C   LIG    1       -1.182  -0.743   0.009  0.00  0.00    +0.031 A 
ATOM      3  C   LIG    1        0.002  -0.004   0.002  0.00  0.00    +0.066 A 
ATOM      4  C   LIG    1        1.204  -0.709  -0.019  0.00  0.00    +0.086 A 
ATOM      5  S   LIG    1        0.683  -2.362  -0.018  0.00  0.00    -0.073 S 
ENDROOT
BRANCH   4   6
ATOM      6  N   LIG    1        2.496  -0.211  -0.034  0.00  0.00    -0.263 N 
ATOM      7  H   LIG    1        2.667   0.875  -0.030  0.00  0.00    +0.157 HD
ATOM      8  C   LIG    1        3.544  -1.058  -0.053  0.00  0.00    +0.302 C 
ATOM      9  N   LIG    1        4.802  -0.574  -0.068  0.00  0.00    -0.313 N 
ATOM     10  H   LIG    1        4.973   0.512  -0.064  0.00  0.00    +0.146 HD
ATOM     11  H   LIG    1        5.657  -1.266  -0.084  0.00  0.00    +0.146 HD
ATOM     12  O   LIG    1        3.355  -2.259  -0.057  0.00  0.00    -0.253 OA
ENDBRANCH   4   6
BRANCH   1  16
ATOM     13  C   LIG    1       -4.192  -4.990   0.013  0.00  0.00    +0.000 A 
ATOM     14  C   LIG    1       -2.870  -5.401  -0.002  0.00  0.00    +0.001 A 
ATOM     15  C   LIG    1       -1.855  -4.467  -0.006  0.00  0.00    +0.009 A 
ATOM     16  C   LIG    1       -2.163  -3.105   0.004  0.00  0.00    -0.011 A 
ATOM     17  C   LIG    1       -3.498  -2.698   0.025  0.00  0.00    +0.009 A 
ATOM     18  C   LIG    1       -4.504  -3.643   0.024  0.00  0.00    +0.001 A 
ENDBRANCH   1  16
BRANCH   3  19
ATOM     19  C   LIG    1       -0.018   1.463   0.010  0.00  0.00    +0.244 C 
ATOM     20  N   LIG    1       -1.194   2.120   0.019  0.00  0.00    -0.325 N 
ATOM     21  H   LIG    1       -2.139   1.558   0.021  0.00  0.00    +0.145 HD
ATOM     22  H   LIG    1       -1.209   3.220   0.025  0.00  0.00    +0.145 HD
ATOM     23  O   LIG    1        1.028   2.085   0.003  0.00  0.00    -0.270 OA
ENDBRANCH   3  19
TORSDOF 3
