REMARK  Name = ZINC28354101
REMARK                            x       y       z     vdW  Elec       q    Type
REMARK                         _______ _______ _______ _____ _____    ______ ____
ROOT
ATOM      1  C   LIG    1       -2.977   7.069   0.056  0.00  0.00    +0.005 A 
ATOM      2  C   LIG    1       -1.882   6.220   0.051  0.00  0.00    +0.033 A 
ATOM      3  C   LIG    1       -2.088   4.839   0.039  0.00  0.00    +0.127 A 
ATOM      4  N   LIG    1       -3.313   4.339   0.042  0.00  0.00    -0.236 NA
ATOM      5  CA  LIG    1       -4.381   5.122   0.052  0.00  0.00    +0.148 A 
ATOM      6  C   LIG    1       -4.246   6.512   0.059  0.00  0.00    +0.035 A 
ENDROOT
BRANCH   3   7
ATOM      7  C   LIG    1       -0.923   3.924   0.028  0.00  0.00    +0.268 C 
ATOM      8  N   LIG    1       -1.114   2.590   0.022  0.00  0.00    -0.259 N 
ATOM      9  H   LIG    1       -2.135   2.180   0.025  0.00  0.00    +0.157 HD
ATOM     10  O   LIG    1        0.205   4.377   0.025  0.00  0.00    -0.268 OA
BRANCH   8  11
ATOM     11  C   LIG    1       -0.021   1.732   0.012  0.00  0.00    +0.165 A 
ATOM     12  N   LIG    1        1.264   2.027   0.001  0.00  0.00    -0.233 NA
ATOM     13  C   LIG    1        2.182   1.081  -0.013  0.00  0.00    +0.120 A 
ATOM     14  C   LIG    1        1.777  -0.212  -0.016  0.00  0.00    +0.068 A 
ATOM     15  S   LIG    1        0.002  -0.004   0.002  0.00  0.00    -0.061 S 
ENDBRANCH   8  11
ENDBRANCH   3   7
BRANCH   5  16
ATOM     16  C   LIG    1       -5.733   4.517   0.055  0.00  0.00    +0.355 C 
ATOM     17  O   LIG    1       -6.717   5.229   0.064  0.00  0.00    -0.243 OA
BRANCH  16  18
ATOM     18  OXT LIG    1       -5.872   3.177   0.049  0.00  0.00    -0.476 OA
ATOM     19  HXT LIG    1       -5.112   2.628   0.042  0.00  0.00    +0.295 HD
ENDBRANCH  16  18
ENDBRANCH   5  16
TORSDOF 4
