REMARK  Name = ZINC14806786
REMARK                            x       y       z     vdW  Elec       q    Type
REMARK                         _______ _______ _______ _____ _____    ______ ____
ROOT
ATOM      1  C   LIG    1       -2.005   5.519   0.806  0.00  0.00    +0.184 C 
ATOM      2  C   LIG    1       -0.684   6.224   0.502  0.00  0.00    +0.049 C 
ATOM      3  C   LIG    1       -0.912   7.721   0.451  0.00  0.00    +0.031 C 
ATOM      4  C   LIG    1       -1.902   8.003  -0.650  0.00  0.00    -0.023 C 
ATOM      5  C   LIG    1       -2.849   7.135  -0.954  0.00  0.00    -0.045 C 
ATOM      6  C   LIG    1       -3.740   7.418  -2.098  0.00  0.00    -0.000 C 
ATOM      7  C   LIG    1       -4.448   6.436  -2.629  0.00  0.00    -0.023 C 
ATOM      8  C   LIG    1       -4.440   5.025  -2.123  0.00  0.00    +0.012 C 
ATOM      9  C   LIG    1       -5.694   4.793  -1.279  0.00  0.00    +0.012 C 
ATOM     10  C   LIG    1       -3.204   4.739  -1.269  0.00  0.00    +0.007 C 
ATOM     11  C   LIG    1       -3.065   5.844  -0.220  0.00  0.00    +0.063 C 
ENDROOT
BRANCH   1  12
ATOM     12  O   LIG    1       -1.783   4.085   0.817  0.00  0.00    -0.461 OA
BRANCH  12  13
ATOM     13  C   LIG    1       -1.422   3.533   1.987  0.00  0.00    +0.310 C 
ATOM     14  O   LIG    1       -1.296   4.226   2.968  0.00  0.00    -0.251 OA
BRANCH  13  15
ATOM     15  C   LIG    1       -1.174   2.049   2.075  0.00  0.00    +0.094 C 
ATOM     16  C   LIG    1       -0.043   1.663   1.120  0.00  0.00    +0.019 C 
BRANCH  15  18
ATOM     17  C   LIG    1       -0.649   0.163   3.628  0.00  0.00    +0.004 C 
ATOM     18  C   LIG    1       -0.779   1.683   3.507  0.00  0.00    +0.011 C 
ENDBRANCH  15  18
ENDBRANCH  13  15
ENDBRANCH  12  13
ENDBRANCH   1  12
BRANCH  10  19
ATOM     19  C   LIG    1       -3.364   3.387  -0.571  0.00  0.00    +0.007 C 
BRANCH  19  20
ATOM     20  C   LIG    1       -3.986   2.382  -1.543  0.00  0.00    +0.032 C 
BRANCH  20  21
ATOM     21  C   LIG    1       -4.147   1.030  -0.845  0.00  0.00    +0.117 C 
BRANCH  21  22
ATOM     22  O   LIG    1       -2.857   0.501  -0.529  0.00  0.00    -0.392 OA
ATOM     23  H   LIG    1       -2.291   0.359  -1.299  0.00  0.00    +0.210 HD
ENDBRANCH  21  22
BRANCH  21  24
ATOM     24  C   LIG    1       -4.882   0.061  -1.774  0.00  0.00    +0.063 C 
BRANCH  24  25
ATOM     25  C   LIG    1       -5.152  -1.250  -1.032  0.00  0.00    +0.128 C 
BRANCH  25  26
ATOM     26  O   LIG    1       -6.053  -1.007   0.051  0.00  0.00    -0.391 OA
ATOM     27  H   LIG    1       -6.910  -0.652  -0.223  0.00  0.00    +0.210 HD
ENDBRANCH  25  26
BRANCH  25  28
ATOM     28  C   LIG    1       -5.775  -2.262  -1.996  0.00  0.00    +0.151 C 
BRANCH  28  29
ATOM     29  C   LIG    1       -5.928  -3.590  -1.300  0.00  0.00    +0.307 C 
ATOM     30  O   LIG    1       -5.576  -3.714  -0.150  0.00  0.00    -0.251 OA
BRANCH  29  31
ATOM     31  O   LIG    1       -6.456  -4.635  -1.956  0.00  0.00    -0.481 OA
ATOM     32  H   LIG    1       -6.729  -4.539  -2.847  0.00  0.00    +0.295 HD
ENDBRANCH  29  31
ENDBRANCH  28  29
ENDBRANCH  25  28
ENDBRANCH  24  25
ENDBRANCH  21  24
ENDBRANCH  20  21
ENDBRANCH  19  20
ENDBRANCH  10  19
TORSDOF 14
