REMARK  Name = ZINC19632927
REMARK                            x       y       z     vdW  Elec       q    Type
REMARK                         _______ _______ _______ _____ _____    ______ ____
ROOT
ATOM      1  C   LIG    1        2.097  -4.553   1.057  0.00  0.00    +0.217 C 
ATOM      2  N   LIG    1        2.215  -5.882   1.248  0.00  0.00    -0.264 N 
ATOM      3  C   LIG    1        2.993  -6.380   2.291  0.00  0.00    +0.063 A 
ATOM      4  C   LIG    1        4.347  -6.084   2.350  0.00  0.00    +0.027 A 
ATOM      5  C   LIG    1        5.128  -6.609   3.361  0.00  0.00    +0.002 A 
ATOM      6  C   LIG    1        4.566  -7.436   4.319  0.00  0.00    +0.001 A 
ATOM      7  C   LIG    1        3.220  -7.729   4.283  0.00  0.00    +0.015 A 
ATOM      8  C   LIG    1        2.413  -7.189   3.277  0.00  0.00    +0.063 A 
ATOM      9  C   LIG    1        0.965  -7.431   3.294  0.00  0.00    +0.258 A 
ATOM     10  N   LIG    1        0.197  -7.621   2.232  0.00  0.00    -0.319 N 
ATOM     11  H   LIG    1       -0.750  -7.748   2.401  0.00  0.00    +0.169 HD
ATOM     12  C   LIG    1        0.601  -7.659   0.901  0.00  0.00    +0.085 A 
ATOM     13  C   LIG    1        0.028  -8.591   0.041  0.00  0.00    +0.031 A 
ATOM     14  C   LIG    1        0.392  -8.581  -1.285  0.00  0.00    +0.022 A 
ATOM     15  C   LIG    1        1.313  -7.651  -1.722  0.00  0.00    +0.113 A 
ATOM     16  N   LIG    1        1.859  -6.792  -0.884  0.00  0.00    -0.236 NA
ATOM     17  O   LIG    1        0.422  -7.458   4.382  0.00  0.00    -0.267 OA
ATOM     18  C   LIG    1        1.553  -6.780   0.406  0.00  0.00    +0.164 A 
ATOM     19  O   LIG    1        2.675  -3.781   1.793  0.00  0.00    -0.274 OA
ENDROOT
BRANCH   1  20
ATOM     20  C   LIG    1        1.247  -4.025  -0.070  0.00  0.00    +0.022 C 
BRANCH  20  25
ATOM     21  C   LIG    1       -0.018   1.465   0.010  0.00  0.00    +0.104 C 
ATOM     22  N   LIG    1        0.002  -0.004   0.002  0.00  0.00    -0.309 NA
ATOM     23  C   LIG    1        0.605  -0.516  -1.237  0.00  0.00    +0.065 C 
ATOM     24  C   LIG    1        0.553  -2.045  -1.232  0.00  0.00    -0.063 C 
ATOM     25  N   LIG    1        1.282  -2.557  -0.064  0.00  0.00    +0.387 N 
ATOM     26  H   LIG    1        2.241  -2.244  -0.103  0.00  0.00    -0.081 HD
ATOM     27  C   LIG    1        0.653  -2.057   1.165  0.00  0.00    -0.063 C 
ATOM     28  C   LIG    1        0.707  -0.528   1.181  0.00  0.00    +0.065 C 
ENDBRANCH  20  25
ENDBRANCH   1  20
TORSDOF 2
