REMARK  Name = ZINC13981527
REMARK                            x       y       z     vdW  Elec       q    Type
REMARK                         _______ _______ _______ _____ _____    ______ ____
ROOT
ATOM      1  C   LIG    1       -1.482   3.309   2.559  0.00  0.00    +0.166 A 
ATOM      2  N   LIG    1       -0.861   2.866   1.472  0.00  0.00    -0.230 NA
ATOM      3  C   LIG    1       -0.720   1.573   1.247  0.00  0.00    +0.066 A 
ATOM      4  C   LIG    1       -1.240   0.660   2.171  0.00  0.00    +0.113 A 
ATOM      5  C   LIG    1       -1.890   1.169   3.317  0.00  0.00    +0.138 A 
ATOM      6  N   LIG    1       -1.988   2.484   3.466  0.00  0.00    -0.212 NA
ENDROOT
BRANCH   3   7
ATOM      7  C   LIG    1       -0.013   1.086   0.008  0.00  0.00    +0.022 C 
ATOM      8  C   LIG    1        1.423   1.617  -0.003  0.00  0.00    +0.006 C 
ATOM      9  C   LIG    1        2.116   1.167  -1.292  0.00  0.00    -0.018 C 
ATOM     10  C   LIG    1        1.318   1.672  -2.497  0.00  0.00    -0.083 C 
ATOM     11  N   LIG    1       -0.053   1.129  -2.449  0.00  0.00    +0.379 N 
ATOM     12  H   LIG    1       -0.571   1.445  -3.277  0.00  0.00    -0.086 HD
ATOM     13  H   LIG    1       -0.010   0.103  -2.443  0.00  0.00    -0.086 HD
ATOM     14  C   LIG    1       -0.749   1.594  -1.234  0.00  0.00    -0.073 C 
ENDBRANCH   3   7
BRANCH   1  18
ATOM     15  C   LIG    1       -1.863   7.506   3.155  0.00  0.00    +0.049 A 
ATOM     16  C   LIG    1       -2.384   6.631   4.088  0.00  0.00    +0.050 A 
ATOM     17  C   LIG    1       -2.264   5.263   3.902  0.00  0.00    +0.128 A 
ATOM     18  C   LIG    1       -1.614   4.769   2.765  0.00  0.00    +0.064 A 
ATOM     19  C   LIG    1       -1.086   5.659   1.830  0.00  0.00    +0.060 A 
ATOM     20  C   LIG    1       -1.218   7.022   2.025  0.00  0.00    +0.118 A 
BRANCH  17  21
ATOM     21  O   LIG    1       -2.776   4.403   4.820  0.00  0.00    -0.506 OA
ATOM     22  H   LIG    1       -2.156   4.162   5.522  0.00  0.00    +0.292 HD
ENDBRANCH  17  21
BRANCH  20  23
ATOM     23  O   LIG    1       -0.708   7.891   1.111  0.00  0.00    -0.507 OA
ATOM     24  H   LIG    1        0.208   8.149   1.283  0.00  0.00    +0.292 HD
ENDBRANCH  20  23
ENDBRANCH   1  18
BRANCH   5  25
ATOM     25  N   LIG    1       -2.418   0.313   4.262  0.00  0.00    -0.342 N 
ATOM     26  H   LIG    1       -2.341  -0.646   4.145  0.00  0.00    +0.144 HD
ATOM     27  H   LIG    1       -2.866   0.672   5.045  0.00  0.00    +0.144 HD
ENDBRANCH   5  25
BRANCH   4  28
ATOM     28  C   LIG    1       -1.114  -0.751   1.962  0.00  0.00    +0.104 C 
ATOM     29  N   LIG    1       -1.014  -1.870   1.797  0.00  0.00    -0.191 NA
ENDBRANCH   4  28
TORSDOF 6
