REMARK  Name = ZINC14979644
REMARK                            x       y       z     vdW  Elec       q    Type
REMARK                         _______ _______ _______ _____ _____    ______ ____
ROOT
ATOM      1  C   LIG    1       -3.607  -2.123  -2.607  0.00  0.00    +0.125 C 
ATOM      2  N   LIG    1       -3.058  -1.784  -3.741  0.00  0.00    -0.382 N 
ATOM      3  H   LIG    1       -2.224  -1.287  -3.746  0.00  0.00    +0.158 HD
ATOM      4  H   LIG    1       -3.483  -2.027  -4.578  0.00  0.00    +0.158 HD
ENDROOT
BRANCH   1   5
ATOM      5  N   LIG    1       -3.004  -1.778  -1.420  0.00  0.00    -0.325 N 
ATOM      6  H   LIG    1       -3.412  -2.030  -0.577  0.00  0.00    +0.148 HD
BRANCH   5   7
ATOM      7  C   LIG    1       -1.745  -1.028  -1.429  0.00  0.00    +0.108 C 
BRANCH   7   8
ATOM      8  C   LIG    1       -1.293  -0.775   0.011  0.00  0.00    +0.054 C 
BRANCH   8  15
ATOM      9  C   LIG    1       -0.017   1.378   0.010  0.00  0.00    +0.005 A 
ATOM     10  C   LIG    1        1.171   2.086   0.002  0.00  0.00    +0.014 A 
ATOM     11  C   LIG    1        2.378   1.411  -0.013  0.00  0.00    +0.013 A 
ATOM     12  I   LIG    1        4.178   2.482  -0.025  0.00  0.00    -0.044 I 
ATOM     13  C   LIG    1        2.396   0.028  -0.021  0.00  0.00    +0.014 A 
ATOM     14  C   LIG    1        1.208  -0.679  -0.013  0.00  0.00    +0.005 A 
ATOM     15  C   LIG    1        0.002  -0.004   0.002  0.00  0.00    -0.046 A 
ENDBRANCH   8  15
ENDBRANCH   7   8
ENDBRANCH   5   7
ENDBRANCH   1   5
BRANCH   1  16
ATOM     16  S   LIG    1       -5.121  -3.025  -2.597  0.00  0.00    -0.093 S 
BRANCH  16  17
ATOM     17  C   LIG    1       -5.515  -3.240  -4.355  0.00  0.00    +0.077 C 
BRANCH  17  18
ATOM     18  C   LIG    1       -6.825  -4.019  -4.492  0.00  0.00    +0.017 C 
BRANCH  18  19
ATOM     19  C   LIG    1       -7.158  -4.200  -5.974  0.00  0.00    +0.055 C 
BRANCH  19  20
ATOM     20  C   LIG    1       -8.448  -4.967  -6.109  0.00  0.00    +0.033 A 
ATOM     21  C   LIG    1       -8.578  -6.307  -6.090  0.00  0.00    +0.105 A 
ATOM     22  N   LIG    1       -9.911  -6.578  -6.242  0.00  0.00    -0.352 N 
ATOM     23  C   LIG    1      -10.550  -5.393  -6.349  0.00  0.00    +0.171 A 
ATOM     24  H   LIG    1      -10.320  -7.457  -6.268  0.00  0.00    +0.166 HD
ATOM     25  N   LIG    1       -9.669  -4.434  -6.263  0.00  0.00    -0.350 N 
ATOM     26  H   LIG    1       -9.867  -3.485  -6.306  0.00  0.00    +0.166 HD
ENDBRANCH  19  20
ENDBRANCH  18  19
ENDBRANCH  17  18
ENDBRANCH  16  17
ENDBRANCH   1  16
TORSDOF 9
