REMARK  Name = ZINC22862791
REMARK                            x       y       z     vdW  Elec       q    Type
REMARK                         _______ _______ _______ _____ _____    ______ ____
ROOT
ATOM      1  C   LIG    1       -3.069   2.572  -2.456  0.00  0.00    +0.020 A 
ATOM      2  C   LIG    1       -1.776   2.892  -2.799  0.00  0.00    +0.007 A 
ATOM      3  C   LIG    1       -0.689   2.367  -2.058  0.00  0.00    -0.024 A 
ATOM      4  C   LIG    1       -0.960   1.619  -0.992  0.00  0.00    +0.066 A 
ATOM      5  C   LIG    1       -0.013   1.086   0.008  0.00  0.00    +0.136 C 
ATOM      6  C   LIG    1        1.433   1.387   0.048  0.00  0.00    -0.021 A 
ATOM      7  C   LIG    1        2.110   0.643   1.039  0.00  0.00    +0.007 A 
ATOM      8  C   LIG    1        3.471   0.717   1.192  0.00  0.00    +0.020 A 
ATOM      9  C   LIG    1        4.192   1.536   0.339  0.00  0.00    +0.041 A 
ATOM     10 CL   LIG    1        5.921   1.625   0.458  0.00  0.00    -0.084 Cl
ATOM     11  C   LIG    1        3.520   2.276  -0.600  0.00  0.00    +0.024 A 
ATOM     12  C   LIG    1        2.111   2.233  -0.721  0.00  0.00    -0.041 A 
ATOM     13  C   LIG    1        1.662   3.262  -1.736  0.00  0.00    +0.040 C 
ATOM     14  N   LIG    1       -2.236   1.285  -0.709  0.00  0.00    -0.258 NA
ATOM     15  C   LIG    1        0.618   2.782  -2.697  0.00  0.00    +0.041 C 
ATOM     16  C   LIG    1       -3.267   1.719  -1.386  0.00  0.00    +0.111 A 
ENDROOT
BRANCH   5  17
ATOM     17  N   LIG    1       -0.549   1.462   1.323  0.00  0.00    -0.294 NA
ATOM     18  C   LIG    1       -0.928   2.882   1.350  0.00  0.00    +0.066 C 
ATOM     19  C   LIG    1       -1.406   3.253   2.756  0.00  0.00    -0.067 C 
ATOM     20  N   LIG    1       -2.544   2.399   3.125  0.00  0.00    +0.381 N 
ATOM     21  H   LIG    1       -3.368   2.559   2.413  0.00  0.00    -0.086 HD
ATOM     22  H   LIG    1       -2.881   2.656   4.140  0.00  0.00    -0.086 HD
ATOM     23  C   LIG    1       -2.165   0.980   3.098  0.00  0.00    -0.067 C 
ATOM     24  C   LIG    1       -1.687   0.609   1.692  0.00  0.00    +0.066 C 
ENDBRANCH   5  17
TORSDOF 1
