REMARK  Name = ZINC14627207
REMARK                            x       y       z     vdW  Elec       q    Type
REMARK                         _______ _______ _______ _____ _____    ______ ____
ROOT
ATOM      1  C   LIG    1       -0.781  -5.258   1.498  0.00  0.00    +0.106 A 
ATOM      2  C   LIG    1       -1.744  -5.965   0.801  0.00  0.00    +0.030 A 
ATOM      3  C   LIG    1       -1.455  -7.219   0.301  0.00  0.00    +0.025 A 
ATOM      4  C   LIG    1       -0.196  -7.771   0.498  0.00  0.00    +0.034 A 
ATOM      5  C   LIG    1        0.769  -7.058   1.198  0.00  0.00    +0.025 A 
ATOM      6  C   LIG    1        0.476  -5.802   1.692  0.00  0.00    +0.030 A 
ENDROOT
BRANCH   4   7
ATOM      7  N   LIG    1        0.100  -9.041  -0.007  0.00  0.00    -0.280 N 
ATOM      8  H   LIG    1       -0.301  -9.338  -0.838  0.00  0.00    +0.155 HD
ATOM      9  C   LIG    1        0.943  -9.852   0.662  0.00  0.00    +0.267 C 
ATOM     10  O   LIG    1        1.371  -9.520   1.750  0.00  0.00    -0.268 OA
BRANCH   9  11
ATOM     11  C   LIG    1        1.348 -11.149   0.071  0.00  0.00    +0.126 A 
ATOM     12  C   LIG    1        2.215 -11.986   0.770  0.00  0.00    +0.033 A 
ATOM     13  C   LIG    1        2.585 -13.196   0.204  0.00  0.00    +0.004 A 
ATOM     14  C   LIG    1        2.074 -13.527  -1.041  0.00  0.00    +0.020 A 
ATOM     15  C   LIG    1        1.216 -12.646  -1.680  0.00  0.00    +0.111 A 
ATOM     16  N   LIG    1        0.877 -11.506  -1.118  0.00  0.00    -0.250 NA
ENDBRANCH   9  11
ENDBRANCH   4   7
BRANCH   1  17
ATOM     17  S   LIG    1       -1.154  -3.658   2.136  0.00  0.00    +0.061 S 
ATOM     18  O   LIG    1       -2.565  -3.603   2.294  0.00  0.00    -0.153 OA
ATOM     19  O   LIG    1       -0.257  -3.432   3.214  0.00  0.00    -0.153 OA
BRANCH  17  24
ATOM     20  C   LIG    1       -0.568   1.501  -0.296  0.00  0.00    +0.007 C 
ATOM     21  C   LIG    1       -0.469  -0.025  -0.260  0.00  0.00    -0.012 C 
ATOM     22  C   LIG    1       -1.861  -0.622  -0.041  0.00  0.00    +0.020 C 
ATOM     23  C   LIG    1       -1.763  -2.151  -0.041  0.00  0.00    +0.110 C 
ATOM     24  N   LIG    1       -0.766  -2.560   0.959  0.00  0.00    -0.177 NA
ATOM     25  C   LIG    1        0.580  -1.976   0.894  0.00  0.00    +0.110 C 
ATOM     26  C   LIG    1        0.456  -0.449   0.883  0.00  0.00    +0.020 C 
ENDBRANCH  17  24
ENDBRANCH   1  17
TORSDOF 4
