REMARK  Name = ZINC00029912
REMARK                            x       y       z     vdW  Elec       q    Type
REMARK                         _______ _______ _______ _____ _____    ______ ____
ROOT
ATOM      1  C   LIG    1        0.958  -4.968   0.927  0.00  0.00    +0.162 A 
ATOM      2  C   LIG    1        0.072  -4.308   0.087  0.00  0.00    +0.050 A 
ATOM      3  C   LIG    1        0.070  -2.932   0.026  0.00  0.00    +0.017 A 
ATOM      4  C   LIG    1        0.969  -2.197   0.804  0.00  0.00    +0.041 A 
ATOM      5  C   LIG    1        1.860  -2.861   1.651  0.00  0.00    +0.062 A 
ATOM      6  C   LIG    1        1.853  -4.241   1.710  0.00  0.00    +0.162 A 
ENDROOT
BRANCH   4   7
ATOM      7  C   LIG    1        0.972  -0.723   0.737  0.00  0.00    +0.248 C 
ATOM      8  N   LIG    1       -0.132  -0.064   0.331  0.00  0.00    -0.271 N 
ATOM      9  O   LIG    1        1.970  -0.102   1.048  0.00  0.00    -0.270 OA
BRANCH   8  10
ATOM     10  C   LIG    1       -1.359  -0.806   0.032  0.00  0.00    +0.228 C 
BRANCH  10  11
ATOM     11  C   LIG    1       -1.546  -0.878  -1.427  0.00  0.00    +0.082 C 
ATOM     12  N   LIG    1       -1.690  -0.934  -2.552  0.00  0.00    -0.195 NA
ENDBRANCH  10  11
ENDBRANCH   8  10
BRANCH   8  13
ATOM     13  C   LIG    1       -0.104   1.394   0.188  0.00  0.00    +0.228 C 
BRANCH  13  14
ATOM     14  C   LIG    1       -0.499   2.019   1.461  0.00  0.00    +0.082 C 
ATOM     15  N   LIG    1       -0.804   2.501   2.443  0.00  0.00    -0.195 NA
ENDBRANCH  13  14
ENDBRANCH   8  13
ENDBRANCH   4   7
BRANCH   1  17
ATOM     16  C   LIG    1        0.008  -7.007   0.158  0.00  0.00    +0.277 C 
ATOM     17  O   LIG    1        0.952  -6.325   0.987  0.00  0.00    -0.491 OA
ENDBRANCH   1  17
BRANCH   6  18
ATOM     18  O   LIG    1        2.720  -4.891   2.533  0.00  0.00    -0.491 OA
ATOM     19  C   LIG    1        3.610  -4.083   3.306  0.00  0.00    +0.277 C 
ENDBRANCH   6  18
TORSDOF 7
