REMARK  Name = ZINC17857596
REMARK                            x       y       z     vdW  Elec       q    Type
REMARK                         _______ _______ _______ _____ _____    ______ ____
ROOT
ATOM      1  C   LIG    1       -7.343   4.400   0.095  0.00  0.00    +0.059 A 
ATOM      2  C   LIG    1       -7.174   5.787   0.106  0.00  0.00    +0.017 A 
ATOM      3  C   LIG    1       -8.276   6.613   0.115  0.00  0.00    +0.025 A 
ATOM      4  C   LIG    1       -9.556   6.068   0.125  0.00  0.00    +0.044 A 
ATOM      5  C   LIG    1       -9.727   4.688   0.120  0.00  0.00    +0.025 A 
ATOM      6  C   LIG    1       -8.630   3.856   0.105  0.00  0.00    +0.017 A 
ENDROOT
BRANCH   4   7
ATOM      7  N   LIG    1      -10.672   6.909   0.141  0.00  0.00    -0.210 N 
ATOM      8  C   LIG    1      -11.970   6.457   0.145  0.00  0.00    +0.231 C 
ATOM      9  C   LIG    1      -12.787   7.648  -0.240  0.00  0.00    +0.095 C 
ATOM     10  C   LIG    1      -14.172   7.954   0.333  0.00  0.00    +0.025 C 
ATOM     11  C   LIG    1      -13.895   8.856   1.625  0.00  0.00    +0.016 C 
ATOM     12  C   LIG    1      -12.850   9.784   0.844  0.00  0.00    +0.025 C 
ATOM     13  C   LIG    1      -13.739  10.118  -0.352  0.00  0.00    -0.027 C 
ATOM     14  C   LIG    1      -14.552   9.114  -0.632  0.00  0.00    -0.027 C 
ATOM     15  C   LIG    1      -11.910   8.677   0.581  0.00  0.00    +0.095 C 
ATOM     16  O   LIG    1      -12.366   5.341   0.406  0.00  0.00    -0.274 OA
ATOM     17  C   LIG    1      -10.594   8.292   0.147  0.00  0.00    +0.231 C 
ATOM     18  O   LIG    1       -9.653   8.999  -0.141  0.00  0.00    -0.274 OA
ENDBRANCH   4   7
BRANCH   1  19
ATOM     19  C   LIG    1       -6.165   3.512   0.080  0.00  0.00    +0.340 C 
ATOM     20  O   LIG    1       -6.314   2.306   0.075  0.00  0.00    -0.245 OA
BRANCH  19  21
ATOM     21  O   LIG    1       -4.925   4.038   0.070  0.00  0.00    -0.453 OA
BRANCH  21  22
ATOM     22  C   LIG    1       -3.813   3.104   0.055  0.00  0.00    +0.311 C 
BRANCH  22  23
ATOM     23  C   LIG    1       -2.514   3.870   0.046  0.00  0.00    +0.200 C 
ATOM     24  O   LIG    1       -2.526   5.082   0.052  0.00  0.00    -0.288 OA
BRANCH  23  29
ATOM     25  C   LIG    1        2.490   1.041  -0.016  0.00  0.00    +0.044 C 
ATOM     26  C   LIG    1        1.178   1.782   0.000  0.00  0.00    -0.047 A 
ATOM     27  C   LIG    1       -0.013   1.076   0.008  0.00  0.00    +0.004 A 
ATOM     28  C   LIG    1       -1.217   1.747   0.017  0.00  0.00    +0.012 A 
ATOM     29  C   LIG    1       -1.234   3.146   0.031  0.00  0.00    +0.021 A 
ATOM     30  C   LIG    1       -0.027   3.852   0.022  0.00  0.00    +0.015 A 
ATOM     31  C   LIG    1        1.169   3.166   0.007  0.00  0.00    -0.047 A 
ATOM     32  C   LIG    1        2.471   3.925  -0.001  0.00  0.00    +0.044 C 
ENDBRANCH  23  29
ENDBRANCH  22  23
ENDBRANCH  21  22
ENDBRANCH  19  21
ENDBRANCH   1  19
TORSDOF 6
