REMARK  Name = ZINC00002028
REMARK                            x       y       z     vdW  Elec       q    Type
REMARK                         _______ _______ _______ _____ _____    ______ ____
ROOT
ATOM      1  C   LIG    1       -0.017   1.377   0.010  0.00  0.00    +0.007 A 
ATOM      2  C   LIG    1        1.169   2.087   0.002  0.00  0.00    +0.045 A 
ATOM      3  C   LIG    1        2.382   1.413  -0.013  0.00  0.00    +0.120 A 
ATOM      4  C   LIG    1        2.404   0.027  -0.021  0.00  0.00    +0.090 A 
ATOM      5  C   LIG    1        1.212  -0.683  -0.013  0.00  0.00    +0.120 A 
ATOM      6  C   LIG    1        0.002  -0.004   0.002  0.00  0.00    +0.045 A 
ENDROOT
BRANCH   3   7
ATOM      7  O   LIG    1        3.548   2.111  -0.021  0.00  0.00    -0.507 OA
ATOM      8  H   LIG    1        3.894   2.309   0.860  0.00  0.00    +0.292 HD
ENDBRANCH   3   7
BRANCH   5   9
ATOM      9  O   LIG    1        1.230  -2.042  -0.021  0.00  0.00    -0.507 OA
ATOM     10  H   LIG    1        1.244  -2.440   0.860  0.00  0.00    +0.292 HD
ENDBRANCH   5   9
TORSDOF 2
