REMARK  Name = ZINC15778673
REMARK                            x       y       z     vdW  Elec       q    Type
REMARK                         _______ _______ _______ _____ _____    ______ ____
ROOT
ATOM      1  N   LIG    1        0.041  -1.974   1.439  0.00  0.00    -0.283 NA
ENDROOT
BRANCH   1   2
ATOM      2  C   LIG    1        0.421  -2.536   2.742  0.00  0.00    +0.160 C 
BRANCH   2   3
ATOM      3  S   LIG    1        2.205  -2.328   2.994  0.00  0.00    -0.109 S 
BRANCH   3  10
ATOM      4  C   LIG    1        4.969  -2.739   4.180  0.00  0.00    +0.045 C 
ATOM      5  C   LIG    1        3.818  -3.272   4.993  0.00  0.00    -0.037 A 
ATOM      6  C   LIG    1        4.057  -3.902   6.199  0.00  0.00    +0.004 A 
ATOM      7  C   LIG    1        3.002  -4.392   6.946  0.00  0.00    +0.000 A 
ATOM      8  C   LIG    1        1.703  -4.253   6.490  0.00  0.00    +0.001 A 
ATOM      9  C   LIG    1        1.456  -3.619   5.288  0.00  0.00    +0.015 A 
ATOM     10  C   LIG    1        2.515  -3.131   4.532  0.00  0.00    +0.012 A 
ENDBRANCH   3  10
ENDBRANCH   2   3
ENDBRANCH   1   2
BRANCH   1  11
ATOM     11  C   LIG    1       -1.129  -2.669   0.887  0.00  0.00    +0.160 C 
BRANCH  11  12
ATOM     12  S   LIG    1       -1.130  -2.510  -0.920  0.00  0.00    -0.109 S 
BRANCH  12  13
ATOM     13  C   LIG    1        0.127  -3.628  -1.446  0.00  0.00    +0.012 A 
ATOM     14  C   LIG    1        0.842  -4.364  -0.509  0.00  0.00    +0.015 A 
ATOM     15  C   LIG    1        1.822  -5.243  -0.925  0.00  0.00    +0.001 A 
ATOM     16  C   LIG    1        2.100  -5.383  -2.273  0.00  0.00    +0.000 A 
ATOM     17  C   LIG    1        1.395  -4.648  -3.208  0.00  0.00    +0.004 A 
ATOM     18  C   LIG    1        0.409  -3.771  -2.799  0.00  0.00    -0.037 A 
ATOM     19  C   LIG    1       -0.358  -2.970  -3.819  0.00  0.00    +0.045 C 
ENDBRANCH  12  13
ENDBRANCH  11  12
ENDBRANCH   1  11
BRANCH   1  20
ATOM     20  C   LIG    1       -0.203  -0.529   1.540  0.00  0.00    +0.090 C 
BRANCH  20  21
ATOM     21  C   LIG    1       -0.179   0.091   0.142  0.00  0.00    +0.050 C 
BRANCH  21  22
ATOM     22  C   LIG    1       -0.430   1.573   0.245  0.00  0.00    -0.046 A 
ATOM     23  C   LIG    1       -1.722   2.062   0.182  0.00  0.00    +0.003 A 
ATOM     24  C   LIG    1       -1.952   3.421   0.282  0.00  0.00    +0.000 A 
ATOM     25  C   LIG    1       -0.890   4.293   0.435  0.00  0.00    +0.000 A 
ATOM     26  C   LIG    1        0.402   3.805   0.493  0.00  0.00    +0.000 A 
ATOM     27  C   LIG    1        0.632   2.445   0.398  0.00  0.00    +0.003 A 
ENDBRANCH  21  22
ENDBRANCH  20  21
ENDBRANCH   1  20
TORSDOF 9
