REMARK  Name = ZINC36330645
REMARK                            x       y       z     vdW  Elec       q    Type
REMARK                         _______ _______ _______ _____ _____    ______ ____
ROOT
ATOM      1  N   LIG    1        3.682  -5.782   1.721  0.00  0.00    -0.296 N 
ATOM      2  H   LIG    1        3.167  -5.662   2.534  0.00  0.00    +0.151 HD
ATOM      3  C   LIG    1        4.372  -6.923   1.523  0.00  0.00    +0.300 C 
ATOM      4  N   LIG    1        4.347  -7.896   2.455  0.00  0.00    -0.294 N 
ATOM      5  H   LIG    1        3.832  -7.776   3.268  0.00  0.00    +0.151 HD
ATOM      6  O   LIG    1        5.018  -7.074   0.504  0.00  0.00    -0.253 OA
ENDROOT
BRANCH   4   7
ATOM      7  C   LIG    1        5.098  -9.136   2.240  0.00  0.00    +0.037 C 
ATOM      8  C   LIG    1        6.585  -8.812   2.084  0.00  0.00    +0.029 C 
ATOM      9  C   LIG    1        7.368 -10.106   1.860  0.00  0.00    -0.008 C 
ATOM     10  C   LIG    1        7.171 -11.036   3.059  0.00  0.00    +0.007 C 
ATOM     11  C   LIG    1        5.684 -11.360   3.214  0.00  0.00    -0.008 C 
ATOM     12  C   LIG    1        5.178 -12.050   1.946  0.00  0.00    +0.007 C 
ATOM     13  C   LIG    1        5.374 -11.120   0.747  0.00  0.00    -0.008 C 
ATOM     14  C   LIG    1        6.861 -10.796   0.591  0.00  0.00    +0.007 C 
ATOM     15  C   LIG    1        4.590  -9.825   0.971  0.00  0.00    +0.029 C 
ATOM     16  C   LIG    1        4.901 -10.066   3.439  0.00  0.00    +0.029 C 
ENDBRANCH   4   7
BRANCH   1  21
ATOM     17  C   LIG    1        3.696  -0.685  -0.037  0.00  0.00    +0.247 C 
ATOM     18  N   LIG    1        3.714  -2.028  -0.146  0.00  0.00    -0.297 N 
ATOM     19  C   LIG    1        2.461  -2.787  -0.256  0.00  0.00    +0.110 C 
ATOM     20  C   LIG    1        2.445  -3.871   0.827  0.00  0.00    +0.041 C 
ATOM     21  C   LIG    1        3.710  -4.724   0.708  0.00  0.00    +0.077 C 
ATOM     22  C   LIG    1        4.943  -3.844   0.923  0.00  0.00    +0.041 C 
ATOM     23  C   LIG    1        4.988  -2.760  -0.165  0.00  0.00    +0.110 C 
ATOM     24  O   LIG    1        2.637  -0.099   0.084  0.00  0.00    -0.270 OA
BRANCH  17  28
ATOM     25  C   LIG    1        7.336   1.502  -0.115  0.00  0.00    +0.000 A 
ATOM     26  C   LIG    1        6.341   1.853   0.780  0.00  0.00    +0.001 A 
ATOM     27  C   LIG    1        5.156   1.147   0.810  0.00  0.00    +0.013 A 
ATOM     28  C   LIG    1        4.963   0.077  -0.065  0.00  0.00    +0.037 A 
ATOM     29  C   LIG    1        5.970  -0.272  -0.965  0.00  0.00    +0.013 A 
ATOM     30  C   LIG    1        7.151   0.442  -0.985  0.00  0.00    +0.001 A 
ENDBRANCH  17  28
ENDBRANCH   1  21
TORSDOF 3
