REMARK  Name = ZINC00017560
REMARK                            x       y       z     vdW  Elec       q    Type
REMARK                         _______ _______ _______ _____ _____    ______ ____
ROOT
ATOM      1  C   LIG    1        0.932   9.991  -0.381  0.00  0.00    -0.095 C 
ATOM      2  N   LIG    1        0.712   8.512  -0.257  0.00  0.00    +0.384 N 
ATOM      3  H   LIG    1        1.549   8.017  -0.585  0.00  0.00    -0.081 HD
ATOM      4  C   LIG    1       -0.458   8.098  -1.034  0.00  0.00    -0.045 C 
ATOM      5  C   LIG    1       -0.459   6.582  -1.010  0.00  0.00    -0.038 C 
ATOM      6  C   LIG    1        0.017   5.934   0.034  0.00  0.00    -0.046 C 
ATOM      7  C   LIG    1        0.607   6.628   1.229  0.00  0.00    +0.020 C 
ATOM      8  C   LIG    1       -1.642   8.544  -0.136  0.00  0.00    -0.013 C 
ATOM      9  C   LIG    1       -1.068   8.502   1.297  0.00  0.00    -0.016 C 
ATOM     10  C   LIG    1        0.420   8.143   1.122  0.00  0.00    -0.064 C 
ENDROOT
BRANCH   6  11
ATOM     11  C   LIG    1       -0.025   4.457   0.026  0.00  0.00    -0.004 A 
ATOM     12  C   LIG    1       -1.251   3.780   0.034  0.00  0.00    +0.012 A 
ATOM     13  C   LIG    1       -1.236   2.397   0.021  0.00  0.00    +0.041 A 
ATOM     14  C   LIG    1       -0.021   1.732   0.012  0.00  0.00    +0.129 A 
ATOM     15 CL   LIG    1        0.002  -0.004   0.002  0.00  0.00    -0.062 Cl
ATOM     16  N   LIG    1        1.119   2.397   0.004  0.00  0.00    -0.243 NA
ATOM     17  C   LIG    1        1.155   3.714   0.011  0.00  0.00    +0.120 A 
ENDBRANCH   6  11
TORSDOF 1
