REMARK  Name = ZINC28129559
REMARK                            x       y       z     vdW  Elec       q    Type
REMARK                         _______ _______ _______ _____ _____    ______ ____
ROOT
ATOM      1  C   LIG    1       -2.159  -0.379   0.225  0.00  0.00    +0.242 C 
ATOM      2  N   LIG    1       -3.389  -0.929   0.211  0.00  0.00    -0.312 N 
ATOM      3  H   LIG    1       -3.489  -1.891   0.130  0.00  0.00    +0.149 HD
ATOM      4  O   LIG    1       -2.033   0.828   0.326  0.00  0.00    -0.270 OA
ENDROOT
BRANCH   1   7
ATOM      5  C   LIG    1        0.332   0.857   0.254  0.00  0.00    +0.061 C 
ATOM      6  C   LIG    1        0.206  -0.640   0.136  0.00  0.00    +0.014 C 
ATOM      7  C   LIG    1       -1.012  -1.204   0.121  0.00  0.00    +0.043 C 
ATOM      8  C   LIG    1       -1.186  -2.691  -0.005  0.00  0.00    +0.094 C 
ATOM      9  C   LIG    1        0.103  -3.404   0.289  0.00  0.00    +0.065 C 
ATOM     10  C   LIG    1        1.278  -2.752   0.298  0.00  0.00    +0.016 C 
ATOM     11  C   LIG    1        2.548  -3.510   0.590  0.00  0.00    +0.061 C 
ATOM     12  N   LIG    1        1.336  -1.408   0.040  0.00  0.00    -0.321 N 
ATOM     13  H   LIG    1        2.179  -0.998  -0.207  0.00  0.00    +0.152 HD
BRANCH   8  14
ATOM     14  C   LIG    1       -1.627  -3.022  -1.407  0.00  0.00    -0.035 A 
ATOM     15  C   LIG    1       -0.824  -2.689  -2.481  0.00  0.00    +0.007 A 
ATOM     16  C   LIG    1       -1.228  -2.993  -3.768  0.00  0.00    +0.033 A 
ATOM     17  C   LIG    1       -2.436  -3.631  -3.980  0.00  0.00    +0.122 A 
ATOM     18  C   LIG    1       -3.240  -3.965  -2.906  0.00  0.00    +0.033 A 
ATOM     19  C   LIG    1       -2.833  -3.664  -1.619  0.00  0.00    +0.007 A 
BRANCH  17  20
ATOM     20  N   LIG    1       -2.870  -3.955  -5.358  0.00  0.00    +0.006 N 
ATOM     21  O   LIG    1       -2.167  -3.663  -6.297  0.00  0.00    -0.130 OA
BRANCH  20  22
ATOM     22  O   LIG    1       -3.926  -4.513  -5.543  0.00  0.00    -0.396 OA
ATOM     23  H   LIG    1       -4.471  -4.739  -4.815  0.00  0.00    +0.329 HD
ENDBRANCH  20  22
ENDBRANCH  17  20
ENDBRANCH   8  14
BRANCH   9  24
ATOM     24  C   LIG    1        0.079  -4.791   0.562  0.00  0.00    +0.337 C 
ATOM     25  O   LIG    1       -0.336  -5.194   1.633  0.00  0.00    -0.245 OA
BRANCH  24  26
ATOM     26  O   LIG    1        0.517  -5.669  -0.364  0.00  0.00    -0.465 OA
ATOM     27  C   LIG    1        0.465  -7.055  -0.021  0.00  0.00    +0.280 C 
ENDBRANCH  24  26
ENDBRANCH   9  24
ENDBRANCH   1   7
BRANCH   2  28
ATOM     28  C   LIG    1       -4.575  -0.076   0.318  0.00  0.00    +0.102 C 
BRANCH  28  29
ATOM     29  C   LIG    1       -5.834  -0.944   0.277  0.00  0.00    +0.000 C 
BRANCH  29  30
ATOM     30  C   LIG    1       -7.072  -0.053   0.390  0.00  0.00    -0.077 C 
BRANCH  30  31
ATOM     31  N   LIG    1       -8.281  -0.887   0.350  0.00  0.00    +0.380 N 
ATOM     32  H   LIG    1       -8.227  -1.590   1.072  0.00  0.00    -0.082 HD
ATOM     33  C   LIG    1       -8.380  -1.540  -0.960  0.00  0.00    -0.078 C 
ATOM     34  C   LIG    1       -9.593  -2.473  -0.978  0.00  0.00    -0.003 C 
ATOM     35  C   LIG    1      -10.862  -1.657  -0.716  0.00  0.00    +0.017 C 
ATOM     36  C   LIG    1      -10.717  -0.920   0.619  0.00  0.00    -0.003 C 
ATOM     37  C   LIG    1       -9.462  -0.045   0.578  0.00  0.00    -0.078 C 
BRANCH  35  38
ATOM     38  C   LIG    1      -11.056  -0.656  -1.826  0.00  0.00    -0.037 A 
ATOM     39  C   LIG    1      -11.032  -1.071  -3.144  0.00  0.00    +0.004 A 
ATOM     40  C   LIG    1      -11.209  -0.153  -4.162  0.00  0.00    +0.000 A 
ATOM     41  C   LIG    1      -11.411   1.181  -3.861  0.00  0.00    +0.000 A 
ATOM     42  C   LIG    1      -11.436   1.597  -2.543  0.00  0.00    +0.000 A 
ATOM     43  C   LIG    1      -11.263   0.678  -1.525  0.00  0.00    +0.004 A 
ENDBRANCH  35  38
BRANCH  35  44
ATOM     44  C   LIG    1      -12.052  -2.580  -0.655  0.00  0.00    -0.037 A 
ATOM     45  C   LIG    1      -11.876  -3.944  -0.793  0.00  0.00    +0.004 A 
ATOM     46  C   LIG    1      -12.967  -4.791  -0.737  0.00  0.00    +0.000 A 
ATOM     47  C   LIG    1      -14.234  -4.274  -0.543  0.00  0.00    +0.000 A 
ATOM     48  C   LIG    1      -14.410  -2.909  -0.404  0.00  0.00    +0.000 A 
ATOM     49  C   LIG    1      -13.318  -2.063  -0.456  0.00  0.00    +0.004 A 
ENDBRANCH  35  44
ENDBRANCH  30  31
ENDBRANCH  29  30
ENDBRANCH  28  29
ENDBRANCH   2  28
TORSDOF 12
