REMARK  Name = ZINC26967571
REMARK                            x       y       z     vdW  Elec       q    Type
REMARK                         _______ _______ _______ _____ _____    ______ ____
ROOT
ATOM      1  N   LIG    1       -0.017   1.393   0.010  0.00  0.00    -0.239 N 
ATOM      2  C   LIG    1        1.245   1.863   0.000  0.00  0.00    +0.123 A 
ATOM      3  C   LIG    1        2.100   0.777  -0.014  0.00  0.00    +0.022 A 
ATOM      4  C   LIG    1        1.249  -0.419  -0.012  0.00  0.00    +0.100 A 
ATOM      5  N   LIG    1        0.002  -0.004   0.002  0.00  0.00    -0.166 NA
ENDROOT
BRANCH   3   6
ATOM      6  C   LIG    1        3.566   0.813  -0.028  0.00  0.00    +0.032 C 
ATOM      7  C   LIG    1        4.217   2.006  -0.028  0.00  0.00    +0.077 C 
ATOM      8  C   LIG    1        5.664   2.287  -0.035  0.00  0.00    +0.258 C 
ATOM      9  N   LIG    1        6.022   3.560  -0.036  0.00  0.00    -0.254 N 
ATOM     10  C   LIG    1        5.105   4.549  -0.021  0.00  0.00    +0.121 C 
ATOM     11  S   LIG    1        5.366   6.241  -0.013  0.00  0.00    -0.027 S 
ATOM     12  O   LIG    1        6.489   1.391  -0.043  0.00  0.00    -0.269 OA
ATOM     13  S   LIG    1        3.553   3.666  -0.011  0.00  0.00    -0.061 S 
BRANCH   9  14
ATOM     14  C   LIG    1        7.446   3.903  -0.048  0.00  0.00    +0.140 C 
BRANCH  14  15
ATOM     15  C   LIG    1        7.956   4.013   1.390  0.00  0.00    +0.217 C 
BRANCH  15  16
ATOM     16  S   LIG    1        9.720   4.439   1.375  0.00  0.00    +0.081 S 
ATOM     17  O   LIG    1        9.901   5.757   0.877  0.00  0.00    -0.147 OA
ATOM     18  O   LIG    1       10.480   3.357   0.855  0.00  0.00    -0.147 OA
BRANCH  16  19
ATOM     19  O   LIG    1       10.114   4.521   2.843  0.00  0.00    -0.254 OA
ATOM     20  H   LIG    1       10.015   3.648   3.254  0.00  0.00    +0.244 HD
ENDBRANCH  16  19
ENDBRANCH  15  16
ENDBRANCH  14  15
ENDBRANCH   9  14
ENDBRANCH   3   6
BRANCH   4  21
ATOM     21  C   LIG    1        1.709  -1.827  -0.024  0.00  0.00    +0.003 A 
ATOM     22  C   LIG    1        2.856  -2.183  -0.733  0.00  0.00    +0.011 A 
ATOM     23  C   LIG    1        3.282  -3.495  -0.737  0.00  0.00    +0.020 A 
ATOM     24  C   LIG    1        2.568  -4.460  -0.046  0.00  0.00    +0.041 A 
ATOM     25 CL   LIG    1        3.107  -6.110  -0.060  0.00  0.00    -0.084 Cl
ATOM     26  C   LIG    1        1.426  -4.113   0.655  0.00  0.00    +0.020 A 
ATOM     27  C   LIG    1        0.994  -2.803   0.670  0.00  0.00    +0.011 A 
ENDBRANCH   4  21
BRANCH   1  31
ATOM     28  C   LIG    1       -3.456   3.748   0.041  0.00  0.00    +0.000 A 
ATOM     29  C   LIG    1       -3.563   2.369   0.034  0.00  0.00    +0.002 A 
ATOM     30  C   LIG    1       -2.426   1.586   0.023  0.00  0.00    +0.028 A 
ATOM     31  C   LIG    1       -1.173   2.185   0.020  0.00  0.00    +0.065 A 
ATOM     32  C   LIG    1       -1.068   3.569   0.032  0.00  0.00    +0.028 A 
ATOM     33  C   LIG    1       -2.209   4.347   0.037  0.00  0.00    +0.002 A 
ENDBRANCH   1  31
TORSDOF 7
