REMARK  Name = ZINC58590440
REMARK                            x       y       z     vdW  Elec       q    Type
REMARK                         _______ _______ _______ _____ _____    ______ ____
ROOT
ATOM      1  N   LIG    1        1.478  -4.449  -1.652  0.00  0.00    -0.292 NA
ATOM      2  C   LIG    1        0.170  -4.677  -2.323  0.00  0.00    +0.061 C 
ATOM      3  C   LIG    1       -0.396  -5.940  -1.635  0.00  0.00    +0.020 C 
ATOM      4  C   LIG    1        0.844  -6.694  -1.112  0.00  0.00    +0.020 C 
ATOM      5  C   LIG    1        0.466  -5.018  -3.793  0.00  0.00    +0.063 C 
ATOM      6  C   LIG    1        1.238  -6.355  -3.832  0.00  0.00    +0.176 C 
ATOM      7  C   LIG    1        2.479  -6.257  -2.940  0.00  0.00    +0.063 C 
ATOM      8  C   LIG    1        2.047  -5.818  -1.532  0.00  0.00    +0.061 C 
ENDROOT
BRANCH   1   9
ATOM      9  C   LIG    1        1.292  -3.838  -0.330  0.00  0.00    +0.127 C 
BRANCH   9  14
ATOM     10  C   LIG    1        0.987   1.789  -0.908  0.00  0.00    +0.051 C 
ATOM     11  C   LIG    1        0.805   0.299  -0.768  0.00  0.00    -0.013 A 
ATOM     12  C   LIG    1       -0.341  -0.424  -0.759  0.00  0.00    +0.011 A 
ATOM     13  C   LIG    1       -0.267  -1.797  -0.618  0.00  0.00    +0.013 A 
ATOM     14  C   LIG    1        0.950  -2.380  -0.493  0.00  0.00    +0.004 A 
ATOM     15  S   LIG    1        2.045  -0.972  -0.581  0.00  0.00    -0.097 S 
ENDBRANCH   9  14
ENDBRANCH   1   9
BRANCH   6  16
ATOM     16  O   LIG    1        0.398  -7.411  -3.364  0.00  0.00    -0.489 OA
BRANCH  16  17
ATOM     17  C   LIG    1       -0.418  -8.001  -4.276  0.00  0.00    +0.122 A 
ATOM     18  C   LIG    1       -0.492  -7.498  -5.568  0.00  0.00    +0.046 A 
ATOM     19  C   LIG    1       -1.321  -8.094  -6.501  0.00  0.00    +0.004 A 
ATOM     20  C   LIG    1       -2.079  -9.193  -6.154  0.00  0.00    +0.013 A 
ATOM     21  C   LIG    1       -2.011  -9.706  -4.858  0.00  0.00    +0.040 A 
ATOM     22  C   LIG    1       -1.170  -9.107  -3.919  0.00  0.00    +0.058 A 
BRANCH  21  23
ATOM     23  C   LIG    1       -2.823 -10.883  -4.482  0.00  0.00    +0.242 C 
ATOM     24  N   LIG    1       -3.631 -11.463  -5.392  0.00  0.00    -0.325 N 
ATOM     25  H   LIG    1       -4.163 -12.236  -5.145  0.00  0.00    +0.145 HD
ATOM     26  H   LIG    1       -3.680 -11.108  -6.293  0.00  0.00    +0.145 HD
ATOM     27  O   LIG    1       -2.762 -11.329  -3.352  0.00  0.00    -0.270 OA
ENDBRANCH  21  23
ENDBRANCH  16  17
ENDBRANCH   6  16
TORSDOF 5
