REMARK  Name = ZINC29396939
REMARK                            x       y       z     vdW  Elec       q    Type
REMARK                         _______ _______ _______ _____ _____    ______ ____
ROOT
ATOM      1  C   LIG    1        2.268   2.024   1.126  0.00  0.00    +0.111 A 
ATOM      2  N   LIG    1        3.457   2.375   0.713  0.00  0.00    -0.232 NA
ATOM      3  C   LIG    1        3.443   2.532  -0.619  0.00  0.00    +0.096 A 
ATOM      4  C   LIG    1        4.442   2.910  -1.616  0.00  0.00    +0.048 A 
ATOM      5  C   LIG    1        4.079   2.973  -2.912  0.00  0.00    +0.092 A 
ATOM      6  N   LIG    1        2.804   2.692  -3.305  0.00  0.00    -0.305 N 
ATOM      7  C   LIG    1        1.847   2.338  -2.425  0.00  0.00    +0.277 A 
ATOM      8  O   LIG    1        0.719   2.095  -2.820  0.00  0.00    -0.265 OA
ATOM      9  C   LIG    1        2.144   2.250  -1.055  0.00  0.00    +0.134 A 
ATOM     10  N   LIG    1        1.425   1.928   0.077  0.00  0.00    -0.319 N 
ENDROOT
BRANCH   1  11
ATOM     11  C   LIG    1        1.895   1.761   2.562  0.00  0.00    +0.074 C 
BRANCH  11  12
ATOM     12  C   LIG    1        2.259   0.321   2.929  0.00  0.00    +0.007 C 
BRANCH  12  14
ATOM     13  C   LIG    1        2.350  -1.351   4.783  0.00  0.00    +0.004 C 
ATOM     14  C   LIG    1        1.987   0.089   4.417  0.00  0.00    -0.003 C 
ENDBRANCH  12  14
ENDBRANCH  11  12
ENDBRANCH   1  11
BRANCH   6  15
ATOM     15  C   LIG    1        2.464   2.776  -4.727  0.00  0.00    +0.220 C 
BRANCH  15  16
ATOM     16  C   LIG    1        2.700   1.438  -5.380  0.00  0.00    +0.235 C 
ATOM     17  N   LIG    1        2.454   1.277  -6.695  0.00  0.00    -0.306 N 
ATOM     18  C   LIG    1        1.957   2.402  -7.490  0.00  0.00    +0.131 C 
ATOM     19  C   LIG    1        2.683  -0.024  -7.329  0.00  0.00    +0.131 C 
ATOM     20  O   LIG    1        3.111   0.506  -4.721  0.00  0.00    -0.274 OA
ENDBRANCH  15  16
ENDBRANCH   6  15
BRANCH  10  21
ATOM     21  C   LIG    1        0.009   1.557   0.131  0.00  0.00    +0.158 C 
BRANCH  21  22
ATOM     22  C   LIG    1       -0.826   2.792   0.351  0.00  0.00    -0.028 A 
ATOM     23  C   LIG    1       -1.230   3.131   1.630  0.00  0.00    +0.006 A 
ATOM     24  C   LIG    1       -1.989   4.264   1.839  0.00  0.00    +0.009 A 
ATOM     25  C   LIG    1       -2.360   5.061   0.757  0.00  0.00    -0.017 A 
ATOM     26  C   LIG    1       -1.954   4.711  -0.530  0.00  0.00    +0.009 A 
ATOM     27  C   LIG    1       -1.190   3.579  -0.726  0.00  0.00    +0.006 A 
BRANCH  25  28
ATOM     28  C   LIG    1       -3.181   6.276   0.974  0.00  0.00    -0.007 A 
ATOM     29  C   LIG    1       -2.788   7.494   0.426  0.00  0.00    +0.009 A 
ATOM     30  C   LIG    1       -3.559   8.621   0.626  0.00  0.00    +0.001 A 
ATOM     31  C   LIG    1       -4.719   8.552   1.379  0.00  0.00    +0.001 A 
ATOM     32  C   LIG    1       -5.120   7.353   1.933  0.00  0.00    +0.012 A 
ATOM     33  C   LIG    1       -4.357   6.205   1.737  0.00  0.00    +0.030 A 
BRANCH  33  34
ATOM     34  C   LIG    1       -4.784   4.915   2.331  0.00  0.00    +0.205 A 
ATOM     35  N   LIG    1       -5.859   4.703   3.066  0.00  0.00    -0.133 NA
ATOM     36  N   LIG    1       -5.876   3.456   3.388  0.00  0.00    -0.176 N 
ATOM     37  H   LIG    1       -6.567   3.019   3.936  0.00  0.00    +0.214 HD
ATOM     38  N   LIG    1       -4.847   2.870   2.882  0.00  0.00    -0.049 NA
ATOM     39  N   LIG    1       -4.155   3.736   2.221  0.00  0.00    -0.108 NA
ENDBRANCH  33  34
ENDBRANCH  25  28
ENDBRANCH  21  22
ENDBRANCH  10  21
TORSDOF 9
