REMARK  Name = ZINC53274795
REMARK                            x       y       z     vdW  Elec       q    Type
REMARK                         _______ _______ _______ _____ _____    ______ ____
ROOT
ATOM      1  C   LIG    1        5.757  -3.612  -0.083  0.00  0.00    +0.122 C 
ENDROOT
BRANCH   1   2
ATOM      2  N   LIG    1        5.954  -4.042  -1.474  0.00  0.00    -0.295 NA
ATOM      3  C   LIG    1        4.666  -4.245  -2.149  0.00  0.00    +0.103 C 
ATOM      4  C   LIG    1        4.910  -4.515  -3.638  0.00  0.00    +0.123 C 
ATOM      5  N   LIG    1        5.860  -5.631  -3.761  0.00  0.00    -0.297 N 
ATOM      6  C   LIG    1        7.118  -5.561  -3.001  0.00  0.00    +0.123 C 
ATOM      7  C   LIG    1        6.786  -5.250  -1.538  0.00  0.00    +0.103 C 
BRANCH   5   8
ATOM      8  C   LIG    1        5.578  -6.718  -4.570  0.00  0.00    +0.218 A 
ATOM      9  N   LIG    1        4.438  -6.744  -5.244  0.00  0.00    -0.223 NA
ATOM     10  C   LIG    1        4.138  -7.768  -6.026  0.00  0.00    +0.116 A 
ATOM     11  C   LIG    1        5.033  -8.820  -6.135  0.00  0.00    +0.039 A 
ATOM     12  C   LIG    1        6.217  -8.761  -5.416  0.00  0.00    +0.116 A 
ATOM     13  N   LIG    1        6.458  -7.705  -4.656  0.00  0.00    -0.223 NA
ENDBRANCH   5   8
ENDBRANCH   1   2
BRANCH   1  16
ATOM     14  N   LIG    1        3.624  -0.652  -0.037  0.00  0.00    -0.240 N 
ATOM     15  C   LIG    1        3.786  -1.994  -0.052  0.00  0.00    +0.119 A 
ATOM     16  C   LIG    1        5.115  -2.248  -0.065  0.00  0.00    +0.004 A 
ATOM     17  C   LIG    1        5.788  -1.022  -0.059  0.00  0.00    +0.139 A 
ATOM     18  N   LIG    1        4.895  -0.065  -0.048  0.00  0.00    -0.174 NA
BRANCH  14  22
ATOM     19  C   LIG    1       -0.017   1.379   0.010  0.00  0.00    +0.000 A 
ATOM     20  C   LIG    1        1.170   2.089   0.002  0.00  0.00    +0.002 A 
ATOM     21  C   LIG    1        2.377   1.419  -0.013  0.00  0.00    +0.028 A 
ATOM     22  C   LIG    1        2.399   0.031  -0.021  0.00  0.00    +0.065 A 
ATOM     23  C   LIG    1        1.207  -0.680  -0.013  0.00  0.00    +0.028 A 
ATOM     24  C   LIG    1        0.002  -0.004   0.002  0.00  0.00    +0.002 A 
ENDBRANCH  14  22
ENDBRANCH   1  16
TORSDOF 4
