REMARK  Name = ZINC35645588
REMARK                            x       y       z     vdW  Elec       q    Type
REMARK                         _______ _______ _______ _____ _____    ______ ____
ROOT
ATOM      1  C   LIG    1        0.036  -2.497  -0.449  0.00  0.00    -0.018 A 
ATOM      2  C   LIG    1        0.119  -3.869  -0.737  0.00  0.00    +0.044 A 
ATOM      3  C   LIG    1        1.335  -4.447  -0.968  0.00  0.00    +0.167 A 
ATOM      4  C   LIG    1        2.496  -3.683  -0.919  0.00  0.00    +0.189 A 
ATOM      5  C   LIG    1        2.429  -2.318  -0.633  0.00  0.00    +0.161 A 
ATOM      6  C   LIG    1        1.207  -1.722  -0.405  0.00  0.00    +0.057 A 
ENDROOT
BRANCH   1   8
ATOM      7  C   LIG    1       -2.230  -2.616   0.420  0.00  0.00    +0.060 C 
ATOM      8  C   LIG    1       -1.225  -1.895  -0.210  0.00  0.00    +0.023 C 
BRANCH   7  10
ATOM      9  C   LIG    1       -2.580  -5.165   0.378  0.00  0.00    +0.092 C 
ATOM     10  C   LIG    1       -1.942  -3.939   0.978  0.00  0.00    +0.163 C 
ATOM     11  O   LIG    1       -1.189  -4.048   1.923  0.00  0.00    -0.292 OA
ENDBRANCH   7  10
BRANCH   7  12
ATOM     12  C   LIG    1       -3.577  -2.055   0.527  0.00  0.00    +0.163 C 
ATOM     13  C   LIG    1       -4.678  -2.857   1.171  0.00  0.00    +0.092 C 
ATOM     14  O   LIG    1       -3.807  -0.944   0.098  0.00  0.00    -0.292 OA
ENDBRANCH   7  12
ENDBRANCH   1   8
BRANCH   3  15
ATOM     15  N   LIG    1        1.417  -5.893  -1.271  0.00  0.00    +0.010 N 
ATOM     16  O   LIG    1        0.409  -6.560  -1.313  0.00  0.00    -0.130 OA
BRANCH  15  17
ATOM     17  O   LIG    1        2.491  -6.408  -1.476  0.00  0.00    -0.396 OA
ATOM     18  H   LIG    1        3.272  -5.891  -1.442  0.00  0.00    +0.329 HD
ENDBRANCH  15  17
ENDBRANCH   3  15
BRANCH   4  19
ATOM     19  O   LIG    1        3.699  -4.268  -1.149  0.00  0.00    -0.502 OA
ATOM     20  H   LIG    1        3.968  -4.261  -2.078  0.00  0.00    +0.292 HD
ENDBRANCH   4  19
BRANCH   5  21
ATOM     21  O   LIG    1        3.568  -1.576  -0.586  0.00  0.00    -0.503 OA
ATOM     22  H   LIG    1        3.818  -1.185  -1.435  0.00  0.00    +0.292 HD
ENDBRANCH   5  21
TORSDOF 7
