REMARK  Name = ZINC13819631
REMARK                            x       y       z     vdW  Elec       q    Type
REMARK                         _______ _______ _______ _____ _____    ______ ____
ROOT
ATOM      1  O   LIG    1       -1.482   3.962   0.098  0.00  0.00    -0.492 OA
ENDROOT
BRANCH   1   2
ATOM      2  C   LIG    1       -1.571   5.305   0.289  0.00  0.00    +0.139 A 
ATOM      3  C   LIG    1       -2.220   5.817   1.408  0.00  0.00    +0.051 A 
ATOM      4  C   LIG    1       -2.285   7.192   1.560  0.00  0.00    +0.063 A 
ATOM      5  C   LIG    1       -1.705   8.006   0.601  0.00  0.00    +0.213 A 
ATOM      6  F   LIG    1       -1.764   9.348   0.742  0.00  0.00    -0.184 F 
ATOM      7  N   LIG    1       -1.096   7.487  -0.449  0.00  0.00    -0.224 NA
ATOM      8  C   LIG    1       -1.010   6.182  -0.626  0.00  0.00    +0.159 A 
ENDBRANCH   1   2
BRANCH   1   9
ATOM      9  C   LIG    1       -0.799   3.516  -1.075  0.00  0.00    +0.213 C 
BRANCH   9  11
ATOM     10  C   LIG    1       -2.240   1.476  -1.018  0.00  0.00    -0.010 C 
ATOM     11  C   LIG    1       -0.802   1.987  -1.117  0.00  0.00    -0.034 C 
BRANCH  11  12
ATOM     12  N   LIG    1       -0.030   1.473   0.034  0.00  0.00    +0.380 N 
ATOM     13  H   LIG    1       -0.486   1.778   0.903  0.00  0.00    -0.082 HD
ATOM     14  C   LIG    1        1.346   2.010   0.000  0.00  0.00    -0.096 C 
ATOM     15  C   LIG    1        0.002  -0.004   0.002  0.00  0.00    -0.096 C 
ENDBRANCH  11  12
ENDBRANCH   9  11
ENDBRANCH   1   9
TORSDOF 4
