REMARK  Name = ZINC13836509
REMARK                            x       y       z     vdW  Elec       q    Type
REMARK                         _______ _______ _______ _____ _____    ______ ____
ROOT
ATOM      1  C   LIG    1        0.564   1.056   4.666  0.00  0.00    +0.050 C 
ATOM      2  C   LIG    1       -0.725   0.220   4.873  0.00  0.00    +0.129 C 
ATOM      3  C   LIG    1       -0.913   0.277   6.409  0.00  0.00    +0.106 C 
ATOM      4  C   LIG    1        0.497   0.200   6.966  0.00  0.00    +0.140 C 
ATOM      5  O   LIG    1        0.812  -0.183   8.067  0.00  0.00    -0.297 OA
ATOM      6  C   LIG    1        1.437   0.691   5.884  0.00  0.00    +0.065 C 
ENDROOT
BRANCH   2   7
ATOM      7  O   LIG    1       -1.834   0.823   4.203  0.00  0.00    -0.391 OA
ATOM      8  H   LIG    1       -2.665   0.337   4.302  0.00  0.00    +0.210 HD
ENDBRANCH   2   7
BRANCH   1  10
ATOM      9  C   LIG    1        1.464   1.556   2.452  0.00  0.00    -0.028 C 
ATOM     10  C   LIG    1        1.251   0.660   3.385  0.00  0.00    -0.024 C 
BRANCH   9  11
ATOM     11  C   LIG    1        2.152   1.160   1.171  0.00  0.00    +0.058 C 
BRANCH  11  12
ATOM     12  C   LIG    1        1.274   1.550  -0.020  0.00  0.00    +0.124 C 
BRANCH  12  13
ATOM     13  C   LIG    1        2.032   1.282  -1.322  0.00  0.00    -0.003 C 
ATOM     14  C   LIG    1        2.974   2.426  -1.734  0.00  0.00    +0.009 C 
ATOM     15  C   LIG    1        2.514   2.179  -3.180  0.00  0.00    +0.001 C 
ATOM     16  C   LIG    1        1.218   1.602  -2.586  0.00  0.00    +0.009 C 
BRANCH  13  17
ATOM     17  C   LIG    1        2.693  -0.098  -1.351  0.00  0.00    +0.009 C 
BRANCH  17  19
ATOM     18  C   LIG    1        4.272  -1.574  -2.605  0.00  0.00    +0.004 C 
ATOM     19  C   LIG    1        3.532  -0.234  -2.623  0.00  0.00    -0.003 C 
ENDBRANCH  17  19
ENDBRANCH  13  17
ENDBRANCH  12  13
BRANCH  12  20
ATOM     20  O   LIG    1        0.073   0.776  -0.001  0.00  0.00    -0.391 OA
ATOM     21  H   LIG    1        0.219  -0.178  -0.054  0.00  0.00    +0.210 HD
ENDBRANCH  12  20
ENDBRANCH  11  12
ENDBRANCH   9  11
ENDBRANCH   1  10
BRANCH   6  22
ATOM     22  C   LIG    1        2.195   1.927   6.373  0.00  0.00    +0.012 C 
BRANCH  22  23
ATOM     23  C   LIG    1        3.150   1.527   7.500  0.00  0.00    +0.001 C 
BRANCH  23  24
ATOM     24  C   LIG    1        3.909   2.763   7.988  0.00  0.00    +0.000 C 
BRANCH  24  25
ATOM     25  C   LIG    1        4.863   2.363   9.115  0.00  0.00    +0.001 C 
BRANCH  25  26
ATOM     26  C   LIG    1        5.622   3.599   9.603  0.00  0.00    +0.011 C 
BRANCH  26  27
ATOM     27  C   LIG    1        6.576   3.199  10.730  0.00  0.00    +0.120 C 
BRANCH  27  28
ATOM     28  C   LIG    1        7.324   4.416  11.211  0.00  0.00    +0.305 C 
ATOM     29  O   LIG    1        7.114   5.493  10.704  0.00  0.00    -0.251 OA
BRANCH  28  30
ATOM     30  O   LIG    1        8.222   4.304  12.202  0.00  0.00    -0.481 OA
ATOM     31  H   LIG    1        8.384   3.469  12.595  0.00  0.00    +0.295 HD
ENDBRANCH  28  30
ENDBRANCH  27  28
ENDBRANCH  26  27
ENDBRANCH  25  26
ENDBRANCH  24  25
ENDBRANCH  23  24
ENDBRANCH  22  23
ENDBRANCH   6  22
TORSDOF 16
