REMARK  Name = ZINC13813802
REMARK                            x       y       z     vdW  Elec       q    Type
REMARK                         _______ _______ _______ _____ _____    ______ ____
ROOT
ATOM      1  C   LIG    1        0.134   1.286  -0.248  0.00  0.00    +0.002 A 
ATOM      2  C   LIG    1        0.929   2.367   0.086  0.00  0.00    +0.002 A 
ATOM      3  C   LIG    1        1.974   2.208   0.977  0.00  0.00    +0.031 A 
ATOM      4  C   LIG    1        2.224   0.968   1.535  0.00  0.00    +0.137 A 
ATOM      5  C   LIG    1        1.428  -0.113   1.202  0.00  0.00    +0.148 A 
ATOM      6  C   LIG    1        0.384   0.046   0.310  0.00  0.00    +0.034 A 
ENDROOT
BRANCH   4   7
ATOM      7  S   LIG    1        3.556   0.765   2.669  0.00  0.00    +0.082 S 
ATOM      8  O   LIG    1        3.038   0.044   3.779  0.00  0.00    -0.151 OA
ATOM      9  O   LIG    1        4.170   2.039   2.807  0.00  0.00    -0.151 OA
BRANCH   7  10
ATOM     10  N   LIG    1        4.671  -0.222   1.944  0.00  0.00    -0.071 NA
ATOM     11  H   LIG    1        4.891  -1.079   2.340  0.00  0.00    +0.181 HD
BRANCH  10  12
ATOM     12  O   LIG    1        5.304   0.187   0.745  0.00  0.00    -0.295 OA
ATOM     13  H   LIG    1        5.939  -0.454   0.397  0.00  0.00    +0.238 HD
ENDBRANCH  10  12
ENDBRANCH   7  10
ENDBRANCH   4   7
BRANCH   5  14
ATOM     14  N   LIG    1        1.696  -1.440   1.799  0.00  0.00    +0.008 N 
ATOM     15  O   LIG    1        0.776  -2.159   2.113  0.00  0.00    -0.130 OA
BRANCH  14  16
ATOM     16  O   LIG    1        2.836  -1.806   1.972  0.00  0.00    -0.396 OA
ATOM     17  H   LIG    1        3.549  -1.250   1.728  0.00  0.00    +0.329 HD
ENDBRANCH  14  16
ENDBRANCH   5  14
TORSDOF 5
