REMARK  Name = ZINC28882889
REMARK                            x       y       z     vdW  Elec       q    Type
REMARK                         _______ _______ _______ _____ _____    ______ ____
ROOT
ATOM      1  N   LIG    1        0.025  -0.055   2.427  0.00  0.00    -0.253 N 
ATOM      2  H   LIG    1        0.074   0.914   2.455  0.00  0.00    +0.158 HD
ATOM      3  C   LIG    1       -0.056  -0.759   3.573  0.00  0.00    +0.403 C 
ATOM      4  O   LIG    1       -0.040  -1.977   3.542  0.00  0.00    -0.230 OA
ENDROOT
BRANCH   1  11
ATOM      5  C   LIG    1       -1.246   1.185   0.165  0.00  0.00    +0.047 C 
ATOM      6  C   LIG    1       -0.564  -0.156   0.076  0.00  0.00    -0.011 A 
ATOM      7  C   LIG    1       -0.524  -0.842  -1.120  0.00  0.00    +0.115 A 
ATOM      8  N   LIG    1        0.072  -2.017  -1.206  0.00  0.00    -0.263 NA
ATOM      9  C   LIG    1        0.650  -2.584  -0.164  0.00  0.00    +0.112 A 
ATOM     10  C   LIG    1        0.654  -1.963   1.067  0.00  0.00    +0.043 A 
ATOM     11  C   LIG    1        0.040  -0.718   1.200  0.00  0.00    +0.042 A 
ENDBRANCH   1  11
BRANCH   3  12
ATOM     12  N   LIG    1       -0.155  -0.120   4.746  0.00  0.00    +0.016 NA
ATOM     13  C   LIG    1       -0.235  -0.813   5.874  0.00  0.00    +0.418 C 
ATOM     14  N   LIG    1       -0.219  -2.149   5.938  0.00  0.00    -0.037 NA
ATOM     15  C   LIG    1       -0.310  -2.597   7.161  0.00  0.00    +0.299 C 
ATOM     16  C   LIG    1       -0.403  -1.382   8.061  0.00  0.00    +0.302 C 
ATOM     17  N   LIG    1       -0.339  -0.250   7.118  0.00  0.00    -0.214 N 
ATOM     18  C   LIG    1       -0.380   1.178   7.443  0.00  0.00    +0.229 C 
BRANCH  15  19
ATOM     19  O   LIG    1       -0.320  -3.883   7.545  0.00  0.00    -0.482 OA
ATOM     20  H   LIG    1       -0.258  -4.564   6.905  0.00  0.00    +0.295 HD
ENDBRANCH  15  19
ENDBRANCH   3  12
TORSDOF 3
