REMARK  Name = ZINC35079613
REMARK                            x       y       z     vdW  Elec       q    Type
REMARK                         _______ _______ _______ _____ _____    ______ ____
ROOT
ATOM      1  C   LIG    1        1.630  -2.375   2.337  0.00  0.00    +0.061 C 
ATOM      2  C   LIG    1        1.484  -3.684   2.599  0.00  0.00    +0.013 C 
ATOM      3  C   LIG    1        0.793  -4.566   1.592  0.00  0.00    +0.061 C 
ATOM      4  N   LIG    1        1.948  -4.232   3.760  0.00  0.00    -0.331 N 
ATOM      5  H   LIG    1        2.072  -5.191   3.827  0.00  0.00    +0.147 HD
ATOM      6  C   LIG    1        2.245  -3.415   4.849  0.00  0.00    +0.144 C 
ATOM      7  C   LIG    1        2.427  -2.054   4.659  0.00  0.00    +0.053 C 
ATOM      8  C   LIG    1        2.720  -1.256   5.758  0.00  0.00    +0.062 C 
ATOM      9  C   LIG    1        2.822  -1.858   7.021  0.00  0.00    +0.023 C 
ATOM     10  C   LIG    1        2.627  -3.211   7.134  0.00  0.00    +0.060 C 
ATOM     11  C   LIG    1        2.705  -3.929   8.458  0.00  0.00    +0.019 C 
ATOM     12  C   LIG    1        3.442  -3.076   9.489  0.00  0.00    +0.002 C 
ATOM     13  C   LIG    1        2.804  -1.682   9.508  0.00  0.00    +0.000 C 
ATOM     14  C   LIG    1        3.149  -0.977   8.197  0.00  0.00    +0.006 C 
ATOM     15  N   LIG    1        2.351  -3.940   6.059  0.00  0.00    -0.295 NA
ATOM     16  H   LIG    1        2.222  -4.896   6.164  0.00  0.00    +0.124 HD
ATOM     17  C   LIG    1        2.322  -1.442   3.288  0.00  0.00    +0.065 C 
ENDROOT
BRANCH  17  18
ATOM     18  C   LIG    1        3.703  -1.140   2.769  0.00  0.00    -0.036 A 
ATOM     19  C   LIG    1        4.609  -2.167   2.575  0.00  0.00    +0.004 A 
ATOM     20  C   LIG    1        5.877  -1.893   2.098  0.00  0.00    +0.004 A 
ATOM     21  C   LIG    1        6.243  -0.592   1.814  0.00  0.00    +0.045 A 
ATOM     22  C   LIG    1        5.337   0.440   2.007  0.00  0.00    +0.120 A 
ATOM     23  C   LIG    1        4.063   0.162   2.480  0.00  0.00    +0.050 A 
BRANCH  22  24
ATOM     24  O   LIG    1        5.695   1.721   1.729  0.00  0.00    -0.495 OA
ATOM     25  C   LIG    1        7.021   1.933   1.240  0.00  0.00    +0.277 C 
ENDBRANCH  22  24
ENDBRANCH  17  18
BRANCH   8  26
ATOM     26  N   LIG    1        2.909   0.115   5.609  0.00  0.00    -0.327 NA
ATOM     27  H   LIG    1        3.113   0.663   6.383  0.00  0.00    +0.118 HD
ATOM     28  H   LIG    1        2.836   0.522   4.732  0.00  0.00    +0.118 HD
ENDBRANCH   8  26
BRANCH   1  29
ATOM     29  C   LIG    1        1.121  -1.860   1.124  0.00  0.00    +0.337 C 
ATOM     30  O   LIG    1        0.109  -1.184   1.127  0.00  0.00    -0.245 OA
BRANCH  29  31
ATOM     31  O   LIG    1        1.758  -2.117  -0.038  0.00  0.00    -0.462 OA
BRANCH  31  33
ATOM     32  C   LIG    1        2.042  -1.959  -2.433  0.00  0.00    +0.048 C 
ATOM     33  C   LIG    1        1.188  -1.564  -1.226  0.00  0.00    +0.229 C 
ENDBRANCH  31  33
ENDBRANCH  29  31
ENDBRANCH   1  29
TORSDOF 6
