REMARK  Name = ZINC13781172
REMARK                            x       y       z     vdW  Elec       q    Type
REMARK                         _______ _______ _______ _____ _____    ______ ____
ROOT
ATOM      1  C   LIG    1       -0.564   1.643  -1.325  0.00  0.00    +0.176 C 
ATOM      2  C   LIG    1       -0.013   1.086   0.008  0.00  0.00    +0.042 C 
ATOM      3  C   LIG    1       -0.811   1.616   1.200  0.00  0.00    +0.012 C 
ATOM      4  C   LIG    1        1.423   1.663  -0.003  0.00  0.00    +0.130 C 
ATOM      5  C   LIG    1        1.706   1.904  -1.469  0.00  0.00    +0.237 C 
ATOM      6  N   LIG    1        0.619   1.887  -2.158  0.00  0.00    -0.277 N 
ATOM      7  H   LIG    1        0.655   2.046  -3.245  0.00  0.00    +0.304 HD
ENDROOT
BRANCH   5   8
ATOM      8  N   LIG    1        2.954   2.114  -1.994  0.00  0.00    -0.254 N 
ATOM      9  H   LIG    1        3.835   2.114  -1.335  0.00  0.00    +0.288 HD
ATOM     10  H   LIG    1        3.075   2.282  -3.074  0.00  0.00    +0.288 HD
ENDBRANCH   5   8
BRANCH   1  12
ATOM     11  C   LIG    1       -2.112   1.229  -3.242  0.00  0.00    +0.008 C 
ATOM     12  C   LIG    1       -1.480   0.614  -1.992  0.00  0.00    +0.046 C 
ENDBRANCH   1  12
TORSDOF 2
