REMARK  Name = ZINC13834539
REMARK                            x       y       z     vdW  Elec       q    Type
REMARK                         _______ _______ _______ _____ _____    ______ ____
ROOT
ATOM      1  C   LIG    1        0.002  -0.004   0.002  0.00  0.00    +0.003 A 
ATOM      2  C   LIG    1       -0.017   1.378   0.010  0.00  0.00    +0.015 A 
ATOM      3  C   LIG    1        1.176   2.098   0.002  0.00  0.00    +0.064 A 
ATOM      4  C   LIG    1        2.406   1.404  -0.014  0.00  0.00    +0.102 A 
ATOM      5  C   LIG    1        2.402  -0.002  -0.021  0.00  0.00    +0.067 A 
ATOM      6  N   LIG    1        3.729  -0.389  -0.037  0.00  0.00    -0.338 N 
ATOM      7  C   LIG    1        4.481   0.754  -0.039  0.00  0.00    +0.139 A 
ATOM      8  H   LIG    1        4.075  -1.328  -0.046  0.00  0.00    +0.167 HD
ATOM      9  N   LIG    1        3.690   1.802  -0.025  0.00  0.00    -0.227 NA
ATOM     10  C   LIG    1        1.200  -0.693  -0.013  0.00  0.00    +0.028 A 
ENDROOT
BRANCH   7  11
ATOM     11  C   LIG    1        5.957   0.802  -0.053  0.00  0.00    +0.017 A 
ATOM     12  C   LIG    1        6.695  -0.384  -0.061  0.00  0.00    +0.013 A 
ATOM     13  C   LIG    1        8.071  -0.336  -0.081  0.00  0.00    +0.023 A 
ATOM     14  C   LIG    1        8.726   0.891  -0.081  0.00  0.00    +0.025 A 
ATOM     15  C   LIG    1        7.993   2.074  -0.067  0.00  0.00    +0.023 A 
ATOM     16  C   LIG    1        6.617   2.033  -0.054  0.00  0.00    +0.013 A 
BRANCH  14  17
ATOM     17  N   LIG    1       10.118   0.936  -0.095  0.00  0.00    -0.358 N 
ATOM     18  H   LIG    1       10.630   0.112  -0.104  0.00  0.00    +0.142 HD
ATOM     19  H   LIG    1       10.576   1.792  -0.095  0.00  0.00    +0.142 HD
ENDBRANCH  14  17
ENDBRANCH   7  11
BRANCH   3  20
ATOM     20  C   LIG    1        1.154   3.571   0.010  0.00  0.00    +0.244 C 
ATOM     21  N   LIG    1       -0.023   4.228   0.024  0.00  0.00    -0.325 N 
ATOM     22  H   LIG    1       -0.037   5.198   0.029  0.00  0.00    +0.145 HD
ATOM     23  H   LIG    1       -0.856   3.730   0.029  0.00  0.00    +0.145 HD
ATOM     24  O   LIG    1        2.198   4.195   0.003  0.00  0.00    -0.270 OA
ENDBRANCH   3  20
TORSDOF 3
