REMARK  Name = ZINC17747527
REMARK                            x       y       z     vdW  Elec       q    Type
REMARK                         _______ _______ _______ _____ _____    ______ ____
ROOT
ATOM      1  C   LIG    1       -1.985  -3.116  -0.206  0.00  0.00    +0.080 A 
ATOM      2  C   LIG    1       -3.360  -2.716   0.116  0.00  0.00    +0.127 A 
ATOM      3  N   LIG    1       -4.059  -3.818   0.247  0.00  0.00    -0.077 NA
ATOM      4  O   LIG    1       -3.200  -4.919   0.025  0.00  0.00    -0.349 OA
ATOM      5  C   LIG    1       -1.966  -4.471  -0.250  0.00  0.00    +0.249 A 
ENDROOT
BRANCH   1   9
ATOM      6  C   LIG    1        0.418   0.404  -2.802  0.00  0.00    +0.073 C 
ATOM      7  C   LIG    1        0.217  -0.588  -1.685  0.00  0.00    +0.076 A 
ATOM      8  N   LIG    1       -0.800  -1.384  -1.482  0.00  0.00    -0.244 NA
ATOM      9  C   LIG    1       -0.834  -2.208  -0.445  0.00  0.00    +0.084 A 
ATOM     10  C   LIG    1        0.246  -2.180   0.394  0.00  0.00    +0.075 A 
ATOM     11  S   LIG    1        1.251  -0.939  -0.405  0.00  0.00    -0.080 S 
ENDBRANCH   1   9
BRANCH   2  12
ATOM     12  C   LIG    1       -3.864  -1.330   0.265  0.00  0.00    +0.046 A 
ATOM     13  C   LIG    1       -2.975  -0.256   0.231  0.00  0.00    +0.017 A 
ATOM     14  C   LIG    1       -3.446   1.032   0.369  0.00  0.00    +0.046 A 
ATOM     15  C   LIG    1       -4.806   1.264   0.543  0.00  0.00    +0.120 A 
ATOM     16  C   LIG    1       -5.696   0.201   0.579  0.00  0.00    +0.091 A 
ATOM     17  C   LIG    1       -5.233  -1.096   0.434  0.00  0.00    +0.130 A 
BRANCH  15  18
ATOM     18  O   LIG    1       -5.263   2.535   0.680  0.00  0.00    -0.507 OA
ATOM     19  H   LIG    1       -5.498   2.961  -0.155  0.00  0.00    +0.292 HD
ENDBRANCH  15  18
BRANCH  17  20
ATOM     20  O   LIG    1       -6.104  -2.137   0.463  0.00  0.00    -0.506 OA
ATOM     21  H   LIG    1       -6.258  -2.497   1.347  0.00  0.00    +0.292 HD
ENDBRANCH  17  20
ENDBRANCH   2  12
BRANCH   5  22
ATOM     22  C   LIG    1       -0.764  -5.327  -0.553  0.00  0.00    +0.454 C 
ATOM     23  F   LIG    1        0.127  -4.612  -1.360  0.00  0.00    -0.163 F 
ATOM     24  F   LIG    1       -1.173  -6.486  -1.222  0.00  0.00    -0.163 F 
ATOM     25  F   LIG    1       -0.129  -5.679   0.644  0.00  0.00    -0.163 F 
ENDBRANCH   5  22
TORSDOF 5
