REMARK  Name = ZINC22453679
REMARK                            x       y       z     vdW  Elec       q    Type
REMARK                         _______ _______ _______ _____ _____    ______ ____
ROOT
ATOM      1  C   LIG    1       -2.707   2.942   4.742  0.00  0.00    +0.049 A 
ATOM      2  C   LIG    1       -2.443   4.106   5.389  0.00  0.00    +0.041 A 
ATOM      3  C   LIG    1       -3.357   4.173   6.523  0.00  0.00    +0.059 A 
ATOM      4  C   LIG    1       -4.131   2.996   6.482  0.00  0.00    +0.144 A 
ATOM      5  N   LIG    1       -5.051   2.807   7.426  0.00  0.00    -0.218 NA
ATOM      6  C   LIG    1       -5.235   3.700   8.375  0.00  0.00    +0.225 A 
ATOM      7  N   LIG    1       -4.533   4.816   8.451  0.00  0.00    -0.220 NA
ATOM      8  C   LIG    1       -3.591   5.096   7.556  0.00  0.00    +0.132 A 
ATOM      9  N   LIG    1       -3.717   2.272   5.398  0.00  0.00    -0.339 N 
ATOM     10  H   LIG    1       -4.068   1.300   5.021  0.00  0.00    +0.167 HD
ENDROOT
BRANCH   1  14
ATOM     11  C   LIG    1       -0.718   1.572   1.248  0.00  0.00    -0.033 A 
ATOM     12  C   LIG    1       -0.357   2.780   1.817  0.00  0.00    +0.005 A 
ATOM     13  C   LIG    1       -1.003   3.234   2.948  0.00  0.00    +0.010 A 
ATOM     14  C   LIG    1       -2.014   2.465   3.526  0.00  0.00    -0.002 A 
ATOM     15  C   LIG    1       -2.370   1.244   2.950  0.00  0.00    +0.010 A 
ATOM     16  C   LIG    1       -1.720   0.805   1.816  0.00  0.00    +0.005 A 
BRANCH  11  17
ATOM     17  C   LIG    1       -0.013   1.086   0.008  0.00  0.00    +0.119 C 
BRANCH  17  21
ATOM     18  N   LIG    1       -2.012   1.308  -3.707  0.00  0.00    -0.300 NA
ATOM     19  C   LIG    1       -0.677   1.914  -3.606  0.00  0.00    +0.100 C 
ATOM     20  C   LIG    1        0.059   1.323  -2.401  0.00  0.00    +0.100 C 
ATOM     21  N   LIG    1       -0.723   1.572  -1.182  0.00  0.00    -0.296 NA
ATOM     22  C   LIG    1       -2.058   0.966  -1.283  0.00  0.00    +0.100 C 
ATOM     23  C   LIG    1       -2.794   1.557  -2.488  0.00  0.00    +0.100 C 
BRANCH  18  25
ATOM     24  C   LIG    1       -3.992   0.967  -5.107  0.00  0.00    +0.020 C 
ATOM     25  C   LIG    1       -2.723   1.794  -4.897  0.00  0.00    +0.081 C 
ENDBRANCH  18  25
ENDBRANCH  17  21
ENDBRANCH  11  17
ENDBRANCH   1  14
BRANCH   8  26
ATOM     26  N   LIG    1       -2.859   6.267   7.639  0.00  0.00    -0.322 N 
ATOM     27  H   LIG    1       -2.083   6.484   6.891  0.00  0.00    +0.148 HD
BRANCH  26  28
ATOM     28  C   LIG    1       -3.118   7.217   8.723  0.00  0.00    +0.099 C 
ATOM     29  C   LIG    1       -4.273   8.140   8.328  0.00  0.00    +0.033 C 
BRANCH  28  30
ATOM     30  C   LIG    1       -1.881   8.040   8.976  0.00  0.00    -0.028 A 
ATOM     31  C   LIG    1       -1.114   8.479   7.913  0.00  0.00    +0.005 A 
ATOM     32  C   LIG    1        0.018   9.238   8.145  0.00  0.00    +0.000 A 
ATOM     33  C   LIG    1        0.388   9.550   9.439  0.00  0.00    +0.000 A 
ATOM     34  C   LIG    1       -0.376   9.107  10.502  0.00  0.00    +0.000 A 
ATOM     35  C   LIG    1       -1.511   8.351  10.271  0.00  0.00    +0.005 A 
ENDBRANCH  28  30
ENDBRANCH  26  28
ENDBRANCH   8  26
TORSDOF 7
