REMARK  Name = ZINC00003106
REMARK                            x       y       z     vdW  Elec       q    Type
REMARK                         _______ _______ _______ _____ _____    ______ ____
ROOT
ATOM      1  C   LIG    1       -1.587   2.287  -2.509  0.00  0.00    +0.088 C 
ATOM      2  C   LIG    1       -1.960   2.483  -1.062  0.00  0.00    +0.135 A 
ATOM      3  N   LIG    1       -3.032   3.079  -0.613  0.00  0.00    -0.134 NA
ATOM      4  N   LIG    1       -3.035   3.076   0.672  0.00  0.00    -0.129 NA
ATOM      5  C   LIG    1       -1.956   2.469   1.118  0.00  0.00    +0.169 A 
ATOM      6  N   LIG    1       -1.240   2.070   0.019  0.00  0.00    -0.276 N 
ENDROOT
BRANCH   5   7
ATOM      7  C   LIG    1       -1.588   2.256   2.533  0.00  0.00    +0.020 A 
ATOM      8  C   LIG    1       -0.595   1.332   2.865  0.00  0.00    +0.012 A 
ATOM      9  C   LIG    1       -0.249   1.138   4.184  0.00  0.00    +0.009 A 
ATOM     10  C   LIG    1       -0.897   1.857   5.188  0.00  0.00    -0.018 A 
ATOM     11  C   LIG    1       -1.891   2.778   4.858  0.00  0.00    +0.009 A 
ATOM     12  C   LIG    1       -2.235   2.976   3.539  0.00  0.00    +0.012 A 
BRANCH  10  13
ATOM     13  C   LIG    1       -0.527   1.644   6.609  0.00  0.00    -0.018 A 
ATOM     14  C   LIG    1       -1.168   2.365   7.614  0.00  0.00    +0.008 A 
ATOM     15  C   LIG    1       -0.823   2.159   8.935  0.00  0.00    +0.001 A 
ATOM     16  C   LIG    1        0.164   1.246   9.260  0.00  0.00    +0.000 A 
ATOM     17  C   LIG    1        0.806   0.530   8.266  0.00  0.00    +0.001 A 
ATOM     18  C   LIG    1        0.467   0.725   6.942  0.00  0.00    +0.008 A 
ENDBRANCH  10  13
ENDBRANCH   5   7
BRANCH   6  19
ATOM     19  C   LIG    1       -0.017   1.383   0.010  0.00  0.00    +0.091 A 
ATOM     20  C   LIG    1        0.002  -0.004   0.002  0.00  0.00    +0.030 A 
ATOM     21  C   LIG    1        1.208  -0.678  -0.013  0.00  0.00    +0.002 A 
ATOM     22  C   LIG    1        2.398   0.026  -0.021  0.00  0.00    +0.004 A 
ATOM     23  C   LIG    1        2.387   1.408  -0.014  0.00  0.00    +0.048 A 
ATOM     24  C   LIG    1        1.182   2.092   0.002  0.00  0.00    +0.144 A 
BRANCH  24  25
ATOM     25  O   LIG    1        1.170   3.451   0.009  0.00  0.00    -0.493 OA
ATOM     26  C   LIG    1        2.437   4.112   0.000  0.00  0.00    +0.277 C 
ENDBRANCH  24  25
ENDBRANCH   6  19
TORSDOF 4
