REMARK  Name = ZINC22198192
REMARK                            x       y       z     vdW  Elec       q    Type
REMARK                         _______ _______ _______ _____ _____    ______ ____
ROOT
ATOM      1  C   LIG    1        2.732  -5.841   1.139  0.00  0.00    +0.215 C 
ATOM      2  N   LIG    1        3.471  -6.449   2.089  0.00  0.00    -0.286 N 
ATOM      3  H   LIG    1        3.963  -5.918   2.734  0.00  0.00    +0.155 HD
ATOM      4  O   LIG    1        2.185  -6.500   0.281  0.00  0.00    -0.276 OA
ENDROOT
BRANCH   2   5
ATOM      5  C   LIG    1        3.527  -7.846   2.143  0.00  0.00    +0.033 A 
ATOM      6  C   LIG    1        3.601  -8.492   3.370  0.00  0.00    +0.025 A 
ATOM      7  C   LIG    1        3.656  -9.871   3.420  0.00  0.00    +0.030 A 
ATOM      8  C   LIG    1        3.638 -10.609   2.250  0.00  0.00    +0.105 A 
ATOM      9  C   LIG    1        3.564  -9.968   1.027  0.00  0.00    +0.030 A 
ATOM     10  C   LIG    1        3.503  -8.589   0.970  0.00  0.00    +0.025 A 
BRANCH   8  11
ATOM     11  S   LIG    1        3.709 -12.368   2.319  0.00  0.00    +0.056 S 
ATOM     12  O   LIG    1        4.323 -12.702   3.556  0.00  0.00    -0.153 OA
ATOM     13  O   LIG    1        4.227 -12.802   1.069  0.00  0.00    -0.153 OA
BRANCH  11  14
ATOM     14  N   LIG    1        2.149 -12.918   2.401  0.00  0.00    -0.204 NA
ATOM     15  H   LIG    1        1.466 -12.376   2.826  0.00  0.00    +0.144 HD
ATOM     16  H   LIG    1        1.919 -13.781   2.024  0.00  0.00    +0.144 HD
ENDBRANCH  11  14
ENDBRANCH   8  11
ENDBRANCH   2   5
BRANCH   1  17
ATOM     17  C   LIG    1        2.587  -4.341   1.143  0.00  0.00    +0.077 C 
BRANCH  17  18
ATOM     18  C   LIG    1        1.706  -3.910  -0.031  0.00  0.00    -0.070 C 
BRANCH  18  23
ATOM     19  C   LIG    1        0.009   1.534  -0.003  0.00  0.00    +0.007 C 
ATOM     20  C   LIG    1        0.023   0.004  -0.006  0.00  0.00    -0.018 C 
ATOM     21  C   LIG    1        0.740  -0.499  -1.262  0.00  0.00    -0.016 C 
ATOM     22  C   LIG    1        0.820  -2.026  -1.219  0.00  0.00    -0.079 C 
ATOM     23  N   LIG    1        1.565  -2.448  -0.027  0.00  0.00    +0.380 N 
ATOM     24  H   LIG    1        2.480  -2.023  -0.036  0.00  0.00    -0.082 HD
ATOM     25  C   LIG    1        0.846  -2.031   1.183  0.00  0.00    -0.079 C 
ATOM     26  C   LIG    1        0.766  -0.503   1.233  0.00  0.00    -0.016 C 
ENDBRANCH  18  23
ENDBRANCH  17  18
ENDBRANCH   1  17
TORSDOF 6
