REMARK  Name = ZINC49018566
REMARK                            x       y       z     vdW  Elec       q    Type
REMARK                         _______ _______ _______ _____ _____    ______ ____
ROOT
ATOM      1  C   LIG    1        0.862  -2.011   1.160  0.00  0.00    -0.049 A 
ATOM      2  C   LIG    1       -0.132  -2.814   1.690  0.00  0.00    +0.004 A 
ATOM      3  C   LIG    1       -0.015  -4.189   1.631  0.00  0.00    +0.015 A 
ATOM      4  C   LIG    1        1.102  -4.765   1.040  0.00  0.00    +0.013 A 
ATOM      5  C   LIG    1        2.098  -3.955   0.508  0.00  0.00    +0.015 A 
ATOM      6  C   LIG    1        1.973  -2.581   0.565  0.00  0.00    +0.004 A 
ENDROOT
BRANCH   1   7
ATOM      7  C   LIG    1        0.732  -0.511   1.226  0.00  0.00    +0.018 C 
BRANCH   7   9
ATOM      8  C   LIG    1       -0.018   1.523  -0.017  0.00  0.00    -0.014 C 
ATOM      9  C   LIG    1        0.005  -0.007  -0.023  0.00  0.00    -0.074 C 
BRANCH   9  10
ATOM     10  N   LIG    1       -1.373  -0.517  -0.026  0.00  0.00    +0.380 N 
ATOM     11  H   LIG    1       -1.358  -1.526  -0.030  0.00  0.00    -0.090 HD
ATOM     12  H   LIG    1       -1.852  -0.185  -0.850  0.00  0.00    -0.090 HD
ATOM     13  H   LIG    1       -1.855  -0.191   0.798  0.00  0.00    -0.090 HD
ENDBRANCH   9  10
ENDBRANCH   7   9
ENDBRANCH   1   7
BRANCH   4  14
ATOM     14  S   LIG    1        1.255  -6.519   0.963  0.00  0.00    -0.089 S 
BRANCH  14  15
ATOM     15  C   LIG    1       -0.126  -7.108   1.886  0.00  0.00    +0.013 A 
ATOM     16  C   LIG    1       -1.303  -7.455   1.234  0.00  0.00    +0.015 A 
ATOM     17  C   LIG    1       -2.382  -7.917   1.961  0.00  0.00    +0.001 A 
ATOM     18  C   LIG    1       -2.293  -8.033   3.336  0.00  0.00    +0.000 A 
ATOM     19  C   LIG    1       -1.124  -7.688   3.989  0.00  0.00    +0.001 A 
ATOM     20  C   LIG    1       -0.038  -7.231   3.268  0.00  0.00    +0.015 A 
ENDBRANCH  14  15
ENDBRANCH   4  14
TORSDOF 5
