REMARK  Name = ZINC13980680
REMARK                            x       y       z     vdW  Elec       q    Type
REMARK                         _______ _______ _______ _____ _____    ______ ____
ROOT
ATOM      1  C   LIG    1        5.724  -1.967  -0.442  0.00  0.00    +0.000 A 
ATOM      2  C   LIG    1        5.625  -2.034  -1.820  0.00  0.00    +0.002 A 
ATOM      3  C   LIG    1        4.404  -2.286  -2.414  0.00  0.00    +0.024 A 
ATOM      4  C   LIG    1        3.273  -2.463  -1.627  0.00  0.00    +0.040 A 
ATOM      5  C   LIG    1        3.382  -2.422  -0.244  0.00  0.00    -0.024 A 
ATOM      6  C   LIG    1        2.171  -2.678   0.617  0.00  0.00    +0.068 C 
ATOM      7  C   LIG    1        0.920  -2.149  -0.085  0.00  0.00    +0.164 C 
ATOM      8  C   LIG    1        0.898  -2.626  -1.514  0.00  0.00    +0.241 C 
ATOM      9  O   LIG    1       -0.156  -2.938  -2.026  0.00  0.00    -0.273 OA
ATOM     10  N   LIG    1        2.034  -2.708  -2.226  0.00  0.00    -0.267 N 
ATOM     11  C   LIG    1        4.604  -2.163   0.345  0.00  0.00    +0.005 A 
ENDROOT
BRANCH   7  12
ATOM     12  N   LIG    1        0.930  -0.684  -0.061  0.00  0.00    -0.299 N 
ATOM     13  H   LIG    1        1.771  -0.206   0.009  0.00  0.00    +0.150 HD
ATOM     14  C   LIG    1       -0.230  -0.001  -0.135  0.00  0.00    +0.261 C 
ATOM     15  O   LIG    1       -1.285  -0.601  -0.223  0.00  0.00    -0.269 OA
BRANCH  14  16
ATOM     16  C   LIG    1       -0.220   1.463  -0.111  0.00  0.00    +0.103 A 
ATOM     17  C   LIG    1       -1.316   2.267  -0.184  0.00  0.00    +0.041 A 
ATOM     18  C   LIG    1       -0.880   3.622  -0.126  0.00  0.00    +0.009 A 
ATOM     19  C   LIG    1       -1.438   4.970  -0.145  0.00  0.00    +0.037 A 
ATOM     20  C   LIG    1       -0.606   6.019  -0.067  0.00  0.00    +0.081 A 
ATOM     21 CL   LIG    1       -1.003   7.709  -0.070  0.00  0.00    -0.076 Cl
ATOM     22  S   LIG    1        1.004   5.262   0.040  0.00  0.00    -0.059 S 
ATOM     23  C   LIG    1        0.513   3.558  -0.024  0.00  0.00    +0.087 A 
ATOM     24  N   LIG    1        0.906   2.262  -0.015  0.00  0.00    -0.345 N 
ATOM     25  H   LIG    1        1.822   1.947   0.048  0.00  0.00    +0.167 HD
ENDBRANCH  14  16
ENDBRANCH   7  12
BRANCH  10  26
ATOM     26  C   LIG    1        1.974  -3.058  -3.647  0.00  0.00    +0.147 C 
BRANCH  26  27
ATOM     27  C   LIG    1        2.208  -4.561  -3.812  0.00  0.00    +0.157 C 
BRANCH  27  28
ATOM     28  O   LIG    1        1.131  -5.280  -3.207  0.00  0.00    -0.388 OA
ATOM     29  H   LIG    1        0.275  -5.141  -3.636  0.00  0.00    +0.210 HD
ENDBRANCH  27  28
BRANCH  27  30
ATOM     30  C   LIG    1        2.277  -4.906  -5.301  0.00  0.00    +0.188 C 
BRANCH  30  31
ATOM     31  O   LIG    1        2.611  -6.287  -5.456  0.00  0.00    -0.392 OA
ATOM     32  H   LIG    1        2.672  -6.577  -6.376  0.00  0.00    +0.210 HD
ENDBRANCH  30  31
ENDBRANCH  27  30
ENDBRANCH  26  27
ENDBRANCH  10  26
TORSDOF 7
