REMARK  Name = ZINC14947254
REMARK                            x       y       z     vdW  Elec       q    Type
REMARK                         _______ _______ _______ _____ _____    ______ ____
ROOT
ATOM      1  C   LIG    1       -5.843   1.491  -7.614  0.00  0.00    +0.000 C 
ENDROOT
BRANCH   1   2
ATOM      2  C   LIG    1       -4.418   1.420  -7.060  0.00  0.00    +0.000 C 
BRANCH   2   3
ATOM      3  C   LIG    1       -4.313   2.300  -5.812  0.00  0.00    +0.001 C 
BRANCH   3   4
ATOM      4  C   LIG    1       -2.889   2.229  -5.258  0.00  0.00    +0.015 C 
BRANCH   4   5
ATOM      5  C   LIG    1       -2.783   3.108  -4.010  0.00  0.00    +0.081 C 
BRANCH   5   6
ATOM      6  N   LIG    1       -1.415   3.040  -3.478  0.00  0.00    -0.313 NA
ATOM      7  H   LIG    1       -0.746   3.375  -4.155  0.00  0.00    +0.122 HD
BRANCH   6  20
ATOM      8  C   LIG    1       -0.755   7.208  -3.431  0.00  0.00    +0.000 C 
ATOM      9  C   LIG    1       -0.660   7.871  -2.210  0.00  0.00    +0.002 C 
ATOM     10  C   LIG    1       -0.773   7.196  -1.034  0.00  0.00    +0.019 C 
ATOM     11  C   LIG    1       -0.990   5.807  -1.044  0.00  0.00    +0.058 C 
ATOM     12  N   LIG    1       -1.099   5.159   0.166  0.00  0.00    -0.310 NA
ATOM     13  H   LIG    1       -1.026   5.661   1.059  0.00  0.00    +0.122 HD
ATOM     14  C   LIG    1       -1.310   3.811   0.112  0.00  0.00    +0.058 C 
ATOM     15  C   LIG    1       -1.407   3.155   1.468  0.00  0.00    +0.019 C 
ATOM     16  C   LIG    1       -2.065   1.782   1.356  0.00  0.00    +0.002 C 
ATOM     17  C   LIG    1       -1.336   0.982   0.270  0.00  0.00    +0.000 C 
ATOM     18  C   LIG    1       -1.665   1.603  -1.087  0.00  0.00    +0.006 C 
ATOM     19  C   LIG    1       -1.422   3.089  -1.063  0.00  0.00    +0.023 C 
ATOM     20  C   LIG    1       -1.311   3.742  -2.287  0.00  0.00    +0.063 C 
ATOM     21  C   LIG    1       -1.089   5.137  -2.287  0.00  0.00    +0.023 C 
ATOM     22  C   LIG    1       -0.966   5.862  -3.479  0.00  0.00    +0.006 C 
ENDBRANCH   6  20
ENDBRANCH   5   6
ENDBRANCH   4   5
ENDBRANCH   3   4
ENDBRANCH   2   3
ENDBRANCH   1   2
BRANCH   1  23
ATOM     23  C   LIG    1       -5.948   0.611  -8.862  0.00  0.00    +0.000 C 
BRANCH  23  24
ATOM     24  C   LIG    1       -7.372   0.682  -9.416  0.00  0.00    +0.001 C 
BRANCH  24  25
ATOM     25  C   LIG    1       -7.478  -0.198 -10.664  0.00  0.00    +0.015 C 
BRANCH  25  26
ATOM     26  C   LIG    1       -8.902  -0.127 -11.219  0.00  0.00    +0.081 C 
BRANCH  26  27
ATOM     27  N   LIG    1       -9.004  -0.972 -12.416  0.00  0.00    -0.313 NA
ATOM     28  H   LIG    1       -8.284  -0.741 -13.084  0.00  0.00    +0.122 HD
BRANCH  27  29
ATOM     29  C   LIG    1      -10.263  -0.873 -12.988  0.00  0.00    +0.063 C 
ATOM     30  C   LIG    1      -10.576   0.187 -13.867  0.00  0.00    +0.023 C 
ATOM     31  C   LIG    1       -9.634   1.169 -14.200  0.00  0.00    +0.006 C 
ATOM     32  C   LIG    1       -9.978   2.170 -15.058  0.00  0.00    +0.000 C 
ATOM     33  C   LIG    1      -11.255   2.227 -15.611  0.00  0.00    +0.002 C 
ATOM     34  C   LIG    1      -12.193   1.286 -15.312  0.00  0.00    +0.019 C 
ATOM     35  C   LIG    1      -11.873   0.238 -14.432  0.00  0.00    +0.058 C 
ATOM     36  N   LIG    1      -12.847  -0.695 -14.153  0.00  0.00    -0.310 NA
ATOM     37  H   LIG    1      -13.784  -0.642 -14.570  0.00  0.00    +0.122 HD
ATOM     38  C   LIG    1      -12.498  -1.694 -13.290  0.00  0.00    +0.058 C 
ATOM     39  C   LIG    1      -13.609  -2.677 -13.015  0.00  0.00    +0.019 C 
ATOM     40  C   LIG    1      -13.050  -3.969 -12.423  0.00  0.00    +0.002 C 
ATOM     41  C   LIG    1      -12.156  -3.609 -11.231  0.00  0.00    +0.000 C 
ATOM     42  C   LIG    1      -10.894  -2.934 -11.765  0.00  0.00    +0.006 C 
ATOM     43  C   LIG    1      -11.249  -1.814 -12.706  0.00  0.00    +0.023 C 
ENDBRANCH  27  29
ENDBRANCH  26  27
ENDBRANCH  25  26
ENDBRANCH  24  25
ENDBRANCH  23  24
ENDBRANCH   1  23
TORSDOF 12
