REMARK  Name = ZINC26937514
REMARK                            x       y       z     vdW  Elec       q    Type
REMARK                         _______ _______ _______ _____ _____    ______ ____
ROOT
ATOM      1  C   LIG    1       -1.371  -0.682   2.282  0.00  0.00    +0.068 C 
ATOM      2  C   LIG    1       -1.260   0.820   2.246  0.00  0.00    +0.071 A 
ATOM      3  C   LIG    1       -0.650   1.562   1.286  0.00  0.00    +0.064 A 
ATOM      4  C   LIG    1       -0.818   2.899   1.719  0.00  0.00    +0.363 A 
ATOM      5  O   LIG    1       -1.507   2.837   2.869  0.00  0.00    -0.326 OA
ATOM      6  O   LIG    1       -0.420   3.905   1.157  0.00  0.00    -0.243 OA
ATOM      7  N   LIG    1       -1.750   1.690   3.167  0.00  0.00    -0.125 N 
ATOM      8  C   LIG    1       -2.424   1.320   4.274  0.00  0.00    +0.350 C 
ATOM      9  N   LIG    1       -2.820   2.252   5.164  0.00  0.00    -0.281 N 
ATOM     10  C   LIG    1       -3.418   1.856   6.446  0.00  0.00    +0.112 C 
ATOM     11  C   LIG    1       -4.762   2.565   6.608  0.00  0.00    +0.050 C 
ATOM     12  C   LIG    1       -4.563   4.073   6.447  0.00  0.00    +0.118 C 
ATOM     13  C   LIG    1       -4.024   4.371   5.046  0.00  0.00    +0.050 C 
ATOM     14  C   LIG    1       -2.667   3.683   4.869  0.00  0.00    +0.112 C 
ATOM     15  O   LIG    1       -2.675   0.147   4.470  0.00  0.00    -0.246 OA
ENDROOT
BRANCH   3  16
ATOM     16  C   LIG    1        0.051   1.072   0.046  0.00  0.00    +0.022 C 
ATOM     17  C   LIG    1       -0.637   1.652  -1.192  0.00  0.00    +0.012 C 
ATOM     18  C   LIG    1        1.513   1.524   0.075  0.00  0.00    +0.012 C 
ENDBRANCH   3  16
BRANCH  12  19
ATOM     19  O   LIG    1       -5.814   4.740   6.627  0.00  0.00    -0.392 OA
ATOM     20  H   LIG    1       -5.869   5.836   6.547  0.00  0.00    +0.210 HD
ENDBRANCH  12  19
TORSDOF 2
