REMARK  Name = ZINC19798714
REMARK                            x       y       z     vdW  Elec       q    Type
REMARK                         _______ _______ _______ _____ _____    ______ ____
ROOT
ATOM      1  N   LIG    1        2.361   3.882  -0.205  0.00  0.00    -0.188 N 
ATOM      2  C   LIG    1        2.327   5.229  -0.273  0.00  0.00    +0.264 C 
ATOM      3  C   LIG    1        3.596   5.965  -0.145  0.00  0.00    +0.100 C 
ATOM      4  C   LIG    1        4.820   5.166   0.037  0.00  0.00    +0.218 C 
ATOM      5  N   LIG    1        4.704   3.823   0.081  0.00  0.00    -0.127 NA
ATOM      6  C   LIG    1        3.638   7.354  -0.200  0.00  0.00    +0.064 C 
ATOM      7  O   LIG    1        1.275   5.820  -0.430  0.00  0.00    -0.269 OA
ATOM      8  C   LIG    1        3.513   3.219  -0.037  0.00  0.00    +0.340 C 
ATOM      9  O   LIG    1        3.476   2.005   0.011  0.00  0.00    -0.250 OA
ENDROOT
BRANCH   1  13
ATOM     10  C   LIG    1       -1.192   1.730  -0.546  0.00  0.00    +0.000 A 
ATOM     11  C   LIG    1       -0.750   2.139   0.699  0.00  0.00    +0.002 A 
ATOM     12  C   LIG    1        0.428   2.851   0.815  0.00  0.00    +0.024 A 
ATOM     13  C   LIG    1        1.165   3.161  -0.320  0.00  0.00    +0.046 A 
ATOM     14  C   LIG    1        0.716   2.753  -1.569  0.00  0.00    +0.024 A 
ATOM     15  C   LIG    1       -0.463   2.042  -1.679  0.00  0.00    +0.002 A 
ENDBRANCH   1  13
BRANCH   6  16
ATOM     16  C   LIG    1        2.445   8.094  -0.187  0.00  0.00    +0.129 A 
ATOM     17  C   LIG    1        2.196   9.258  -0.898  0.00  0.00    +0.049 A 
ATOM     18  C   LIG    1        0.888   9.643  -0.584  0.00  0.00    +0.042 A 
ATOM     19  C   LIG    1        0.396   8.726   0.283  0.00  0.00    +0.195 A 
ATOM     20  O   LIG    1        1.330   7.796   0.515  0.00  0.00    -0.464 OA
ENDBRANCH   6  16
BRANCH   4  21
ATOM     21  O   LIG    1        5.907   5.703   0.145  0.00  0.00    -0.493 OA
ATOM     22  H   LIG    1        5.973   6.637   0.113  0.00  0.00    +0.294 HD
ENDBRANCH   4  21
TORSDOF 3
