REMARK  Name = ZINC17994338
REMARK                            x       y       z     vdW  Elec       q    Type
REMARK                         _______ _______ _______ _____ _____    ______ ____
ROOT
ATOM      1  C   LIG    1        3.678  -0.675   0.012  0.00  0.00    +0.163 C 
ATOM      2  C   LIG    1        4.047  -1.236   1.403  0.00  0.00    +0.125 C 
ATOM      3  C   LIG    1        4.730  -2.598   1.086  0.00  0.00    +0.138 C 
ATOM      4  C   LIG    1        4.647  -2.699  -0.445  0.00  0.00    +0.206 C 
ATOM      5  C   LIG    1        5.937  -2.269  -1.086  0.00  0.00    +0.204 C 
ATOM      6  C   LIG    1        6.431  -3.416  -1.872  0.00  0.00    +0.031 A 
ATOM      7  C   LIG    1        7.577  -3.557  -2.658  0.00  0.00    +0.012 A 
ATOM      8  C   LIG    1        7.828  -4.749  -3.309  0.00  0.00    +0.001 A 
ATOM      9  C   LIG    1        6.950  -5.812  -3.189  0.00  0.00    +0.001 A 
ATOM     10  C   LIG    1        5.810  -5.694  -2.417  0.00  0.00    +0.012 A 
ATOM     11  C   LIG    1        5.537  -4.498  -1.751  0.00  0.00    +0.031 A 
ATOM     12  O   LIG    1        6.471  -1.186  -0.977  0.00  0.00    -0.288 OA
ATOM     13  C   LIG    1        4.408  -4.118  -0.879  0.00  0.00    +0.204 C 
ATOM     14  O   LIG    1        3.467  -4.818  -0.571  0.00  0.00    -0.288 OA
ATOM     15  C   LIG    1        6.161  -2.378   1.520  0.00  0.00    +0.234 C 
ATOM     16  N   LIG    1        6.295  -1.138   2.004  0.00  0.00    -0.210 N 
ATOM     17  O   LIG    1        7.051  -3.198   1.441  0.00  0.00    -0.274 OA
ATOM     18  C   LIG    1        5.159  -0.399   1.995  0.00  0.00    +0.233 C 
ATOM     19  O   LIG    1        5.042   0.741   2.391  0.00  0.00    -0.274 OA
ATOM     20  O   LIG    1        3.585  -1.832  -0.849  0.00  0.00    -0.348 OA
ENDROOT
BRANCH  16  21
ATOM     21  C   LIG    1        7.513  -0.640   2.490  0.00  0.00    +0.045 A 
ATOM     22  C   LIG    1        8.162   0.386   1.817  0.00  0.00    +0.025 A 
ATOM     23  C   LIG    1        9.361   0.875   2.297  0.00  0.00    +0.023 A 
ATOM     24  C   LIG    1        9.916   0.343   3.447  0.00  0.00    +0.059 A 
ATOM     25 CL   LIG    1       11.424   0.960   4.048  0.00  0.00    -0.082 Cl
ATOM     26  C   LIG    1        9.271  -0.681   4.120  0.00  0.00    +0.061 A 
ATOM     27 CL   LIG    1        9.969  -1.346   5.563  0.00  0.00    -0.082 Cl
ATOM     28  C   LIG    1        8.068  -1.170   3.646  0.00  0.00    +0.045 A 
ENDBRANCH  16  21
BRANCH   1  32
ATOM     29  C   LIG    1       -0.075   1.358   0.177  0.00  0.00    +0.000 A 
ATOM     30  C   LIG    1        1.103   2.081   0.177  0.00  0.00    +0.000 A 
ATOM     31  C   LIG    1        2.318   1.423   0.124  0.00  0.00    +0.006 A 
ATOM     32  C   LIG    1        2.354   0.042   0.071  0.00  0.00    -0.018 A 
ATOM     33  C   LIG    1        1.176  -0.681   0.072  0.00  0.00    +0.006 A 
ATOM     34  C   LIG    1       -0.039  -0.023   0.123  0.00  0.00    +0.000 A 
ENDBRANCH   1  32
TORSDOF 2
