REMARK  Name = ZINC18117761
REMARK                            x       y       z     vdW  Elec       q    Type
REMARK                         _______ _______ _______ _____ _____    ______ ____
ROOT
ATOM      1  C   LIG    1       -1.352   6.040   0.046  0.00  0.00    +0.065 C 
ATOM      2  C   LIG    1       -1.372   7.395   0.155  0.00  0.00    +0.050 C 
ATOM      3  C   LIG    1       -2.555   8.271   0.290  0.00  0.00    +0.008 A 
ATOM      4  C   LIG    1       -3.924   8.021   0.345  0.00  0.00    +0.010 A 
ATOM      5  C   LIG    1       -4.807   9.073   0.477  0.00  0.00    +0.001 A 
ATOM      6  C   LIG    1       -4.332  10.372   0.555  0.00  0.00    +0.002 A 
ATOM      7  C   LIG    1       -2.976  10.630   0.502  0.00  0.00    +0.024 A 
ATOM      8  C   LIG    1       -2.070   9.585   0.369  0.00  0.00    +0.042 A 
ATOM      9  N   LIG    1       -0.681   9.572   0.292  0.00  0.00    -0.281 N 
ATOM     10  H   LIG    1       -0.125  10.366   0.326  0.00  0.00    +0.155 HD
ATOM     11  C   LIG    1       -0.207   8.320   0.172  0.00  0.00    +0.249 C 
ATOM     12  O   LIG    1        0.962   8.001   0.088  0.00  0.00    -0.270 OA
ENDROOT
BRANCH   1  13
ATOM     13  C   LIG    1       -0.086   5.342  -0.216  0.00  0.00    +0.187 C 
ATOM     14  O   LIG    1        0.935   5.980  -0.387  0.00  0.00    -0.287 OA
BRANCH  13  18
ATOM     15  C   LIG    1        0.007   1.099  -0.377  0.00  0.00    +0.000 A 
ATOM     16  C   LIG    1       -1.189   1.753  -0.136  0.00  0.00    +0.001 A 
ATOM     17  C   LIG    1       -1.225   3.130  -0.076  0.00  0.00    +0.012 A 
ATOM     18  C   LIG    1       -0.054   3.866  -0.271  0.00  0.00    +0.022 A 
ATOM     19  C   LIG    1        1.149   3.199  -0.520  0.00  0.00    +0.012 A 
ATOM     20  C   LIG    1        1.171   1.821  -0.571  0.00  0.00    +0.001 A 
ENDBRANCH  13  18
ENDBRANCH   1  13
TORSDOF 2
