REMARK  Name = ZINC34189055
REMARK                            x       y       z     vdW  Elec       q    Type
REMARK                         _______ _______ _______ _____ _____    ______ ____
ROOT
ATOM      1  C   LIG    1        2.842  -4.072   6.508  0.00  0.00    -0.021 C 
ATOM      2  C   LIG    1        2.102  -3.583   7.498  0.00  0.00    +0.063 C 
ENDROOT
BRANCH   2   3
ATOM      3  C   LIG    1        2.740  -2.849   8.601  0.00  0.00    +0.237 C 
ATOM      4  N   LIG    1        1.990  -2.353   9.605  0.00  0.00    -0.309 N 
ATOM      5  H   LIG    1        1.028  -2.481   9.600  0.00  0.00    +0.149 HD
ATOM      6  O   LIG    1        3.946  -2.689   8.607  0.00  0.00    -0.271 OA
BRANCH   4   7
ATOM      7  C   LIG    1        2.626  -1.622  10.704  0.00  0.00    +0.138 C 
BRANCH   7   8
ATOM      8  C   LIG    1        1.558  -1.171  11.702  0.00  0.00    +0.076 C 
ATOM      9  C   LIG    1        2.223  -0.408  12.849  0.00  0.00    +0.042 C 
ATOM     10  C   LIG    1        0.830  -2.397  12.259  0.00  0.00    +0.042 C 
BRANCH   8  11
ATOM     11  O   LIG    1        0.620  -0.319  11.043  0.00  0.00    -0.388 OA
ATOM     12  H   LIG    1        1.012   0.480  10.665  0.00  0.00    +0.210 HD
ENDBRANCH   8  11
ENDBRANCH   7   8
ENDBRANCH   4   7
ENDBRANCH   2   3
BRANCH   1  13
ATOM     13  C   LIG    1        2.188  -4.824   5.377  0.00  0.00    +0.031 C 
BRANCH  13  14
ATOM     14  C   LIG    1        2.575  -4.179   4.045  0.00  0.00    +0.031 C 
BRANCH  14  16
ATOM     15  C   LIG    1        1.174  -4.279   2.023  0.00  0.00    -0.004 C 
ATOM     16  C   LIG    1        1.920  -4.931   2.914  0.00  0.00    -0.027 C 
BRANCH  15  18
ATOM     17  C   LIG    1        0.423  -2.150   1.104  0.00  0.00    -0.000 C 
ATOM     18  C   LIG    1        1.099  -2.816   2.062  0.00  0.00    -0.000 C 
BRANCH  17  21
ATOM     19  C   LIG    1       -0.398   1.475   0.235  0.00  0.00    +0.035 C 
ATOM     20  C   LIG    1       -0.321  -0.029   0.196  0.00  0.00    -0.030 C 
ATOM     21  C   LIG    1        0.348  -0.688   1.143  0.00  0.00    -0.005 C 
ENDBRANCH  17  21
ENDBRANCH  15  18
ENDBRANCH  14  16
ENDBRANCH  13  14
ENDBRANCH   1  13
TORSDOF 9
