REMARK  Name = ZINC15878789
REMARK                            x       y       z     vdW  Elec       q    Type
REMARK                         _______ _______ _______ _____ _____    ______ ____
ROOT
ATOM      1  C   LIG    1        2.836  -2.741  -6.630  0.00  0.00    +0.253 C 
ATOM      2  C   LIG    1        2.851  -1.796  -7.858  0.00  0.00    +0.195 C 
ATOM      3  C   LIG    1        3.638  -0.577  -7.320  0.00  0.00    +0.178 C 
ATOM      4  C   LIG    1        3.514  -0.694  -5.788  0.00  0.00    +0.178 C 
ATOM      5  O   LIG    1        2.691  -1.839  -5.512  0.00  0.00    -0.346 OA
ENDROOT
BRANCH   1  16
ATOM      6  C   LIG    1        0.458  -3.456  -6.173  0.00  0.00    +0.203 A 
ATOM      7  N   LIG    1       -0.304  -4.481  -6.423  0.00  0.00    -0.229 NA
ATOM      8  C   LIG    1        0.403  -5.408  -7.114  0.00  0.00    +0.172 A 
ATOM      9  C   LIG    1        0.102  -6.687  -7.638  0.00  0.00    +0.280 A 
ATOM     10  N   LIG    1        1.076  -7.356  -8.294  0.00  0.00    -0.293 N 
ATOM     11  C   LIG    1        2.313  -6.803  -8.442  0.00  0.00    +0.195 A 
ATOM     12  N   LIG    1        2.605  -5.616  -7.959  0.00  0.00    -0.196 NA
ATOM     13  H   LIG    1        0.871  -8.353  -8.713  0.00  0.00    +0.172 HD
ATOM     14  O   LIG    1       -1.008  -7.172  -7.502  0.00  0.00    -0.265 OA
ATOM     15  C   LIG    1        1.692  -4.894  -7.298  0.00  0.00    +0.171 A 
ATOM     16  N   LIG    1        1.700  -3.664  -6.699  0.00  0.00    -0.285 N 
BRANCH  11  17
ATOM     17  N   LIG    1        3.281  -7.507  -9.113  0.00  0.00    -0.329 N 
ATOM     18  H   LIG    1        3.054  -8.502  -9.522  0.00  0.00    +0.145 HD
ATOM     19  H   LIG    1        4.285  -7.076  -9.240  0.00  0.00    +0.145 HD
ENDBRANCH  11  17
ENDBRANCH   1  16
BRANCH   2  20
ATOM     20  O   LIG    1        3.534  -2.400  -8.959  0.00  0.00    -0.385 OA
ATOM     21  H   LIG    1        3.632  -1.856  -9.910  0.00  0.00    +0.210 HD
ENDBRANCH   2  20
BRANCH   3  22
ATOM     22  O   LIG    1        5.009  -0.652  -7.717  0.00  0.00    -0.386 OA
ATOM     23  H   LIG    1        5.713   0.139  -7.418  0.00  0.00    +0.210 HD
ENDBRANCH   3  22
BRANCH   4  24
ATOM     24  C   LIG    1        2.857   0.567  -5.222  0.00  0.00    +0.206 C 
BRANCH  24  25
ATOM     25  O   LIG    1        2.837   0.494  -3.795  0.00  0.00    -0.284 OA
BRANCH  25  26
ATOM     26  P   LIG    1        2.216   1.653  -2.866  0.00  0.00    +0.483 P 
ATOM     27  O   LIG    1        0.819   1.919  -3.276  0.00  0.00    -0.227 OA
BRANCH  26  28
ATOM     28  O   LIG    1        3.088   2.997  -3.031  0.00  0.00    -0.302 OA
ATOM     29  H   LIG    1        3.072   3.281  -3.958  0.00  0.00    +0.222 HD
ENDBRANCH  26  28
BRANCH  26  30
ATOM     30  O   LIG    1        2.243   1.181  -1.328  0.00  0.00    -0.186 OA
BRANCH  30  31
ATOM     31  P   LIG    1        1.451   1.638  -0.003  0.00  0.00    +0.490 P 
ATOM     32  O   LIG    1        1.314   3.111   0.006  0.00  0.00    -0.227 OA
BRANCH  31  33
ATOM     33  O   LIG    1       -0.011   0.963   0.007  0.00  0.00    -0.302 OA
ATOM     34  H   LIG    1       -0.504   1.247  -0.779  0.00  0.00    +0.222 HD
ENDBRANCH  31  33
BRANCH  31  35
ATOM     35  O   LIG    1        2.268   1.166   1.301  0.00  0.00    -0.211 OA
BRANCH  35  36
ATOM     36  P   LIG    1        2.201   1.551   2.863  0.00  0.00    +0.312 P 
ATOM     37  S   LIG    1        0.509   1.146   3.530  0.00  0.00    +0.023 S 
BRANCH  36  38
ATOM     38  O   LIG    1        2.485   3.126   3.040  0.00  0.00    -0.327 OA
ATOM     39  H   LIG    1        2.480   3.576   4.044  0.00  0.00    +0.219 HD
ENDBRANCH  36  38
BRANCH  36  40
ATOM     40  O   LIG    1        3.312   0.712   3.671  0.00  0.00    -0.327 OA
ATOM     41  H   LIG    1        3.417   0.842   4.758  0.00  0.00    +0.219 HD
ENDBRANCH  36  40
ENDBRANCH  35  36
ENDBRANCH  31  35
ENDBRANCH  30  31
ENDBRANCH  26  30
ENDBRANCH  25  26
ENDBRANCH  24  25
ENDBRANCH   4  24
TORSDOF 15
