REMARK  Name = ZINC27097319
REMARK                            x       y       z     vdW  Elec       q    Type
REMARK                         _______ _______ _______ _____ _____    ______ ____
ROOT
ATOM      1  C   LIG    1       -0.017   1.378   0.010  0.00  0.00    +0.001 A 
ATOM      2  C   LIG    1        1.171   2.086   0.002  0.00  0.00    +0.007 A 
ATOM      3  C   LIG    1        2.377   1.411  -0.013  0.00  0.00    -0.014 A 
ATOM      4  C   LIG    1        2.396   0.029  -0.020  0.00  0.00    +0.013 A 
ATOM      5  C   LIG    1        1.208  -0.679  -0.012  0.00  0.00    -0.014 A 
ATOM      6  C   LIG    1        0.002  -0.004   0.002  0.00  0.00    +0.007 A 
ENDROOT
BRANCH   3   7
ATOM      7  C   LIG    1        3.672   2.182  -0.022  0.00  0.00    +0.231 C 
BRANCH   7   8
ATOM      8  N   LIG    1        4.105   2.425   1.356  0.00  0.00    -0.275 N 
ATOM      9  H   LIG    1        3.571   2.099   2.097  0.00  0.00    +0.258 HD
BRANCH   8  10
ATOM     10  C   LIG    1        5.236   3.096   1.592  0.00  0.00    +0.341 C 
ATOM     11  N   LIG    1        5.636   3.321   2.865  0.00  0.00    -0.292 N 
ATOM     12  H   LIG    1        6.457   3.808   3.037  0.00  0.00    +0.255 HD
ATOM     13  H   LIG    1        5.102   2.995   3.606  0.00  0.00    +0.255 HD
BRANCH  10  14
ATOM     14  N   LIG    1        5.981   3.551   0.558  0.00  0.00    -0.292 N 
ATOM     15  H   LIG    1        6.802   4.038   0.729  0.00  0.00    +0.255 HD
ATOM     16  H   LIG    1        5.694   3.390  -0.355  0.00  0.00    +0.255 HD
ENDBRANCH  10  14
ENDBRANCH   8  10
ENDBRANCH   7   8
ENDBRANCH   3   7
BRANCH   5  17
ATOM     17  C   LIG    1        1.229  -2.186  -0.020  0.00  0.00    +0.231 C 
BRANCH  17  18
ATOM     18  N   LIG    1        1.250  -2.681   1.359  0.00  0.00    -0.275 N 
ATOM     19  H   LIG    1        1.249  -2.055   2.099  0.00  0.00    +0.258 HD
ATOM     20  C   LIG    1        1.270  -3.996   1.595  0.00  0.00    +0.341 C 
BRANCH  20  21
ATOM     21  N   LIG    1        1.289  -4.454   2.869  0.00  0.00    -0.292 N 
ATOM     22  H   LIG    1        1.304  -5.408   3.041  0.00  0.00    +0.255 HD
ATOM     23  H   LIG    1        1.288  -3.827   3.610  0.00  0.00    +0.255 HD
ENDBRANCH  20  21
BRANCH  20  24
ATOM     24  N   LIG    1        1.271  -4.870   0.562  0.00  0.00    -0.292 N 
ATOM     25  H   LIG    1        1.286  -5.824   0.734  0.00  0.00    +0.255 HD
ATOM     26  H   LIG    1        1.258  -4.541  -0.351  0.00  0.00    +0.255 HD
ENDBRANCH  20  24
ENDBRANCH  17  18
ENDBRANCH   5  17
TORSDOF 8
