REMARK  Name = ZINC29043262
REMARK                            x       y       z     vdW  Elec       q    Type
REMARK                         _______ _______ _______ _____ _____    ______ ____
ROOT
ATOM      1  N   LIG    1        8.147   8.852  -0.750  0.00  0.00    -0.262 N 
ATOM      2  C   LIG    1        9.440   8.482  -0.594  0.00  0.00    +0.266 A 
ATOM      3  C   LIG    1        9.956   7.433  -1.485  0.00  0.00    +0.065 A 
ATOM      4  C   LIG    1       11.271   6.980  -1.406  0.00  0.00    +0.015 A 
ATOM      5  C   LIG    1       11.703   5.994  -2.266  0.00  0.00    +0.001 A 
ATOM      6  C   LIG    1       10.838   5.450  -3.208  0.00  0.00    +0.002 A 
ATOM      7  C   LIG    1        9.535   5.883  -3.302  0.00  0.00    +0.028 A 
ATOM      8  C   LIG    1        9.074   6.882  -2.442  0.00  0.00    +0.078 A 
ATOM      9  N   LIG    1        7.797   7.335  -2.498  0.00  0.00    -0.235 NA
ATOM     10  O   LIG    1       10.148   8.998   0.252  0.00  0.00    -0.267 OA
ATOM     11  C   LIG    1        7.370   8.267  -1.700  0.00  0.00    +0.104 A 
ENDROOT
BRANCH   1  17
ATOM     12  C   LIG    1        7.651  11.183  -0.322  0.00  0.00    +0.144 A 
ATOM     13  C   LIG    1        7.114  12.164   0.496  0.00  0.00    +0.048 A 
ATOM     14  C   LIG    1        6.534  11.816   1.702  0.00  0.00    +0.004 A 
ATOM     15  C   LIG    1        6.489  10.492   2.096  0.00  0.00    +0.002 A 
ATOM     16  C   LIG    1        7.018   9.507   1.283  0.00  0.00    +0.030 A 
ATOM     17  C   LIG    1        7.606   9.848   0.074  0.00  0.00    +0.093 A 
BRANCH  12  18
ATOM     18  O   LIG    1        8.221  11.523  -1.509  0.00  0.00    -0.490 OA
BRANCH  18  20
ATOM     19  C   LIG    1        8.909  13.097  -3.209  0.00  0.00    +0.048 C 
ATOM     20  C   LIG    1        8.232  12.911  -1.849  0.00  0.00    +0.226 C 
ENDBRANCH  18  20
ENDBRANCH  12  18
ENDBRANCH   1  17
BRANCH  11  21
ATOM     21  C   LIG    1        5.938   8.717  -1.829  0.00  0.00    -0.003 C 
ATOM     22  C   LIG    1        5.369   8.233  -3.165  0.00  0.00    -0.005 C 
BRANCH  21  23
ATOM     23  N   LIG    1        5.146   8.155  -0.727  0.00  0.00    +0.388 N 
ATOM     24  H   LIG    1        5.605   8.477   0.219  0.00  0.00    -0.081 HD
ATOM     25  C   LIG    1        3.769   8.669  -0.752  0.00  0.00    -0.059 C 
ATOM     26  C   LIG    1        3.032   8.205   0.508  0.00  0.00    +0.089 C 
ATOM     27  N   LIG    1        3.148   6.742   0.606  0.00  0.00    -0.302 N 
ATOM     28  C   LIG    1        2.057   5.972   0.787  0.00  0.00    +0.253 C 
ATOM     29  O   LIG    1        0.961   6.484   0.872  0.00  0.00    -0.272 OA
ATOM     30  C   LIG    1        4.487   6.143   0.508  0.00  0.00    +0.089 C 
ATOM     31  C   LIG    1        5.167   6.687  -0.759  0.00  0.00    -0.059 C 
BRANCH  28  32
ATOM     32  C   LIG    1        2.199   4.475   0.885  0.00  0.00    +0.324 C 
BRANCH  32  33
ATOM     33  O   LIG    1        0.911   3.886   1.075  0.00  0.00    -0.483 OA
BRANCH  33  34
ATOM     34  C   LIG    1        0.862   2.532   1.183  0.00  0.00    +0.121 A 
ATOM     35  C   LIG    1       -0.355   1.893   1.369  0.00  0.00    +0.047 A 
ATOM     36  C   LIG    1       -0.403   0.517   1.478  0.00  0.00    +0.023 A 
ATOM     37  C   LIG    1        0.762  -0.225   1.403  0.00  0.00    +0.041 A 
ATOM     38 CL   LIG    1        0.700  -1.954   1.541  0.00  0.00    -0.084 Cl
ATOM     39  C   LIG    1        1.978   0.410   1.219  0.00  0.00    +0.023 A 
ATOM     40  C   LIG    1        2.030   1.786   1.109  0.00  0.00    +0.047 A 
ENDBRANCH  33  34
ENDBRANCH  32  33
ENDBRANCH  28  32
ENDBRANCH  21  23
ENDBRANCH  11  21
TORSDOF 8
