REMARK  Name = ZINC13778327
REMARK                            x       y       z     vdW  Elec       q    Type
REMARK                         _______ _______ _______ _____ _____    ______ ____
ROOT
ATOM      1  C   LIG    1       -2.560  -0.123  -0.334  0.00  0.00    +0.044 C 
ATOM      2  C   LIG    1       -1.250  -0.787   0.004  0.00  0.00    -0.043 C 
ATOM      3  C   LIG    1       -1.216  -2.079   0.306  0.00  0.00    +0.002 C 
ATOM      4  C   LIG    1        0.079  -2.760   0.662  0.00  0.00    +0.045 C 
ATOM      5  C   LIG    1        0.023  -4.221   0.215  0.00  0.00    +0.036 C 
ATOM      6  C   LIG    1        0.284  -2.700   2.178  0.00  0.00    +0.036 C 
ATOM      7  N   LIG    1        1.200  -2.089  -0.008  0.00  0.00    -0.335 N 
ATOM      8  H   LIG    1        1.901  -2.603  -0.438  0.00  0.00    +0.147 HD
ATOM      9  C   LIG    1        1.233  -0.697  -0.011  0.00  0.00    +0.037 A 
ATOM     10  C   LIG    1        2.426  -0.006  -0.021  0.00  0.00    +0.049 A 
ATOM     11  C   LIG    1        2.420   1.384  -0.015  0.00  0.00    +0.051 A 
ATOM     12  N   LIG    1        3.604   2.092  -0.024  0.00  0.00    -0.322 N 
ATOM     13  H   LIG    1        4.447   1.612  -0.036  0.00  0.00    +0.169 HD
ATOM     14  C   LIG    1        3.608   3.436  -0.016  0.00  0.00    +0.250 A 
ATOM     15  O   LIG    1        4.674   4.027  -0.025  0.00  0.00    -0.268 OA
ATOM     16  C   LIG    1        2.411   4.179   0.001  0.00  0.00    +0.083 A 
ATOM     17  C   LIG    1        1.211   3.544   0.011  0.00  0.00    +0.069 A 
ATOM     18  C   LIG    1        1.194   2.082   0.002  0.00  0.00    +0.011 A 
ATOM     19  C   LIG    1       -0.017   1.379   0.010  0.00  0.00    +0.020 A 
ATOM     20  C   LIG    1        0.002  -0.004   0.002  0.00  0.00    -0.001 A 
ENDROOT
BRANCH  17  21
ATOM     21  C   LIG    1       -0.075   4.329   0.030  0.00  0.00    +0.418 C 
ATOM     22  F   LIG    1       -0.804   4.002   1.179  0.00  0.00    -0.166 F 
ATOM     23  F   LIG    1       -0.830   4.016  -1.105  0.00  0.00    -0.166 F 
ATOM     24  F   LIG    1        0.214   5.698   0.036  0.00  0.00    -0.166 F 
ENDBRANCH  17  21
TORSDOF 1
