REMARK  Name = ZINC29123659
REMARK                            x       y       z     vdW  Elec       q    Type
REMARK                         _______ _______ _______ _____ _____    ______ ____
ROOT
ATOM      1  C   LIG    1       -1.297   1.926   0.019  0.00  0.00    +0.017 A 
ATOM      2  C   LIG    1       -1.317   3.326   0.032  0.00  0.00    +0.012 A 
ATOM      3  C   LIG    1       -2.510   3.991   0.035  0.00  0.00    +0.009 A 
ATOM      4  C   LIG    1       -3.709   3.275   0.037  0.00  0.00    -0.018 A 
ATOM      5  C   LIG    1       -3.691   1.879   0.030  0.00  0.00    +0.009 A 
ATOM      6  C   LIG    1       -2.501   1.210   0.021  0.00  0.00    +0.012 A 
ENDROOT
BRANCH   4   7
ATOM      7  C   LIG    1       -5.002   3.999   0.047  0.00  0.00    -0.018 A 
ATOM      8  C   LIG    1       -6.201   3.286   0.043  0.00  0.00    +0.012 A 
ATOM      9  C   LIG    1       -7.403   3.962   0.057  0.00  0.00    +0.046 A 
ATOM     10  C   LIG    1       -7.420   5.351   0.065  0.00  0.00    +0.117 A 
ATOM     11  C   LIG    1       -6.227   6.063   0.063  0.00  0.00    +0.046 A 
ATOM     12  C   LIG    1       -5.023   5.393   0.054  0.00  0.00    +0.012 A 
BRANCH  10  13
ATOM     13  O   LIG    1       -8.605   6.014   0.073  0.00  0.00    -0.507 OA
ATOM     14  H   LIG    1       -8.620   7.114   0.079  0.00  0.00    +0.292 HD
ENDBRANCH  10  13
ENDBRANCH   4   7
BRANCH   1  16
ATOM     15  C   LIG    1        1.280   1.980   0.001  0.00  0.00    +0.091 C 
ATOM     16  C   LIG    1       -0.014   1.209   0.009  0.00  0.00    +0.160 C 
ATOM     17  O   LIG    1        0.002  -0.004   0.002  0.00  0.00    -0.292 OA
ENDBRANCH   1  16
TORSDOF 3
