REMARK  Name = ZINC15869361
REMARK                            x       y       z     vdW  Elec       q    Type
REMARK                         _______ _______ _______ _____ _____    ______ ____
ROOT
ATOM      1  C   LIG    1        6.770   1.898  -0.057  0.00  0.00    +0.155 C 
ATOM      2  N   LIG    1        6.019   0.640  -0.060  0.00  0.00    -0.280 N 
ATOM      3  C   LIG    1        4.644   0.670  -0.038  0.00  0.00    +0.168 A 
ATOM      4  C   LIG    1        3.940  -0.530  -0.047  0.00  0.00    +0.149 A 
ATOM      5  N   LIG    1        2.622  -0.231  -0.024  0.00  0.00    -0.332 N 
ATOM      6  H   LIG    1        1.875  -0.897  -0.015  0.00  0.00    +0.168 HD
ATOM      7  C   LIG    1        2.478   1.072  -0.016  0.00  0.00    +0.141 A 
ATOM      8  C   LIG    1        4.702  -1.781  -0.067  0.00  0.00    +0.282 A 
ATOM      9  N   LIG    1        6.051  -1.714  -0.082  0.00  0.00    -0.262 N 
ATOM     10  C   LIG    1        6.835  -2.951  -0.102  0.00  0.00    +0.157 C 
ATOM     11  O   LIG    1        4.132  -2.857  -0.070  0.00  0.00    -0.265 OA
ATOM     12  N   LIG    1        3.717   1.664  -0.025  0.00  0.00    -0.210 NA
ATOM     13  C   LIG    1        6.683  -0.529  -0.079  0.00  0.00    +0.333 A 
ATOM     14  O   LIG    1        7.899  -0.513  -0.093  0.00  0.00    -0.246 OA
ENDROOT
BRANCH   7  15
ATOM     15  C   LIG    1        1.186   1.791   0.000  0.00  0.00    +0.018 A 
ATOM     16  C   LIG    1       -0.013   1.076   0.008  0.00  0.00    +0.015 A 
ATOM     17  C   LIG    1       -1.215   1.750   0.017  0.00  0.00    +0.046 A 
ATOM     18  C   LIG    1       -1.235   3.138   0.030  0.00  0.00    +0.120 A 
ATOM     19  C   LIG    1       -0.044   3.853   0.022  0.00  0.00    +0.046 A 
ATOM     20  C   LIG    1        1.162   3.187   0.008  0.00  0.00    +0.015 A 
BRANCH  18  21
ATOM     21  O   LIG    1       -2.422   3.799   0.045  0.00  0.00    -0.495 OA
ATOM     22  C   LIG    1       -3.608   3.002   0.052  0.00  0.00    +0.277 C 
ENDBRANCH  18  21
ENDBRANCH   7  15
TORSDOF 2
