REMARK  Name = ZINC20235439
REMARK                            x       y       z     vdW  Elec       q    Type
REMARK                         _______ _______ _______ _____ _____    ______ ____
ROOT
ATOM      1  C   LIG    1        3.702  -0.708  -0.039  0.00  0.00    +0.192 C 
ENDROOT
BRANCH   1   5
ATOM      2  C   LIG    1       -0.032   1.366  -0.009  0.00  0.00    +0.000 A 
ATOM      3  C   LIG    1        1.154   2.077  -0.011  0.00  0.00    +0.000 A 
ATOM      4  C   LIG    1        2.362   1.406  -0.021  0.00  0.00    +0.006 A 
ATOM      5  C   LIG    1        2.385   0.024  -0.028  0.00  0.00    -0.020 A 
ATOM      6  C   LIG    1        1.199  -0.687  -0.025  0.00  0.00    +0.006 A 
ATOM      7  C   LIG    1       -0.009  -0.016  -0.016  0.00  0.00    +0.000 A 
ENDBRANCH   1   5
BRANCH   1   8
ATOM      8  C   LIG    1        4.013  -1.161  -1.443  0.00  0.00    +0.240 C 
ATOM      9  N   LIG    1        4.136  -0.254  -2.432  0.00  0.00    -0.284 N 
ATOM     10  H   LIG    1        3.958   0.683  -2.256  0.00  0.00    +0.155 HD
ATOM     11  O   LIG    1        4.152  -2.342  -1.682  0.00  0.00    -0.273 OA
BRANCH   9  12
ATOM     12  C   LIG    1        4.519  -0.663  -3.710  0.00  0.00    +0.036 A 
ATOM     13  C   LIG    1        4.105  -1.891  -4.221  0.00  0.00    +0.043 A 
ATOM     14  C   LIG    1        4.506  -2.259  -5.489  0.00  0.00    +0.112 A 
ATOM     15  N   LIG    1        5.270  -1.464  -6.215  0.00  0.00    -0.263 NA
ATOM     16  C   LIG    1        5.682  -0.293  -5.766  0.00  0.00    +0.112 A 
ATOM     17  C   LIG    1        5.320   0.150  -4.510  0.00  0.00    +0.043 A 
ENDBRANCH   9  12
ENDBRANCH   1   8
BRANCH   1  18
ATOM     18  N   LIG    1        3.620  -1.875   0.843  0.00  0.00    -0.174 NA
ATOM     19  H   LIG    1        4.520  -2.351   0.785  0.00  0.00    +0.149 HD
BRANCH  18  20
ATOM     20  S   LIG    1        3.289  -1.673   2.453  0.00  0.00    +0.061 S 
ATOM     21  O   LIG    1        1.961  -1.174   2.535  0.00  0.00    -0.153 OA
ATOM     22  O   LIG    1        4.398  -0.983   3.013  0.00  0.00    -0.153 OA
BRANCH  20  23
ATOM     23  C   LIG    1        3.271  -3.275   3.186  0.00  0.00    +0.133 A 
ATOM     24  C   LIG    1        4.198  -3.603   4.116  0.00  0.00    +0.031 A 
ATOM     25  C   LIG    1        4.214  -4.862   4.717  0.00  0.00    +0.004 A 
ATOM     26  C   LIG    1        3.303  -5.810   4.396  0.00  0.00    +0.031 A 
ATOM     27  C   LIG    1        2.299  -5.537   3.429  0.00  0.00    +0.102 A 
ATOM     28  N   LIG    1        1.328  -6.339   2.990  0.00  0.00    -0.191 NA
ATOM     29  S   LIG    1        0.501  -5.474   1.915  0.00  0.00    +0.117 S 
ATOM     30  N   LIG    1        1.293  -4.073   1.918  0.00  0.00    -0.189 NA
ATOM     31  C   LIG    1        2.279  -4.219   2.804  0.00  0.00    +0.126 A 
ENDBRANCH  20  23
ENDBRANCH  18  20
ENDBRANCH   1  18
TORSDOF 6
