REMARK  Name = ZINC19168421
REMARK                            x       y       z     vdW  Elec       q    Type
REMARK                         _______ _______ _______ _____ _____    ______ ____
ROOT
ATOM      1  C   LIG    1       -0.017   1.377   0.010  0.00  0.00    +0.004 A 
ATOM      2  C   LIG    1        1.171   2.086   0.002  0.00  0.00    +0.005 A 
ATOM      3  C   LIG    1        2.379   1.415  -0.013  0.00  0.00    -0.032 A 
ATOM      4  C   LIG    1        2.403   0.033  -0.021  0.00  0.00    +0.050 A 
ATOM      5  C   LIG    1        1.214  -0.680  -0.013  0.00  0.00    +0.117 A 
ATOM      6  C   LIG    1        0.002  -0.004   0.002  0.00  0.00    +0.045 A 
ENDROOT
BRANCH   5   7
ATOM      7  O   LIG    1        1.235  -2.039  -0.021  0.00  0.00    -0.507 OA
ATOM      8  H   LIG    1        1.249  -2.437   0.860  0.00  0.00    +0.292 HD
ENDBRANCH   5   7
BRANCH   3   9
ATOM      9  C   LIG    1        3.671   2.190  -0.021  0.00  0.00    +0.099 C 
BRANCH   9  10
ATOM     10  N   LIG    1        4.104   2.435   1.361  0.00  0.00    -0.366 NA
ATOM     11  H   LIG    1        3.385   2.909   1.887  0.00  0.00    +0.101 HD
BRANCH  10  12
ATOM     12  N   LIG    1        5.351   3.183   1.392  0.00  0.00    +0.387 N 
ATOM     13  H   LIG    1        6.069   2.658   0.916  0.00  0.00    -0.065 HD
ATOM     14  H   LIG    1        5.626   3.337   2.350  0.00  0.00    -0.065 HD
ATOM     15  H   LIG    1        5.221   4.071   0.931  0.00  0.00    -0.065 HD
ENDBRANCH  10  12
ENDBRANCH   9  10
ENDBRANCH   3   9
TORSDOF 4
