REMARK  Name = ZINC15436215
REMARK                            x       y       z     vdW  Elec       q    Type
REMARK                         _______ _______ _______ _____ _____    ______ ____
ROOT
ATOM      1  N   LIG    1        1.146   3.437   0.009  0.00  0.00    -0.280 N 
ATOM      2  H   LIG    1        1.976   3.935   0.073  0.00  0.00    +0.155 HD
ATOM      3  C   LIG    1       -0.028   4.092  -0.078  0.00  0.00    +0.248 C 
ATOM      4  O   LIG    1       -1.073   3.470  -0.072  0.00  0.00    -0.270 OA
ENDROOT
BRANCH   1   7
ATOM      5  C   LIG    1        0.215  -0.069   0.594  0.00  0.00    +0.021 A 
ATOM      6  C   LIG    1        0.148   1.315   0.621  0.00  0.00    +0.026 A 
ATOM      7  C   LIG    1        1.169   2.038   0.008  0.00  0.00    +0.052 A 
ATOM      8  C   LIG    1        2.210   1.350  -0.602  0.00  0.00    +0.134 A 
ATOM      9  N   LIG    1        2.235   0.033  -0.605  0.00  0.00    -0.261 NA
ATOM     10  C   LIG    1        1.284  -0.681  -0.034  0.00  0.00    +0.111 A 
ENDBRANCH   1   7
BRANCH   3  11
ATOM     11  C   LIG    1       -0.046   5.567  -0.182  0.00  0.00    +0.037 A 
ATOM     12  C   LIG    1        1.153   6.281  -0.184  0.00  0.00    +0.014 A 
ATOM     13  C   LIG    1        1.137   7.654  -0.285  0.00  0.00    +0.019 A 
ATOM     14  C   LIG    1       -0.080   8.334  -0.376  0.00  0.00    +0.052 A 
ATOM     15  C   LIG    1       -1.280   7.619  -0.369  0.00  0.00    +0.019 A 
ATOM     16  C   LIG    1       -1.263   6.245  -0.273  0.00  0.00    +0.014 A 
BRANCH  14  17
ATOM     17  C   LIG    1       -0.098   9.762  -0.477  0.00  0.00    +0.099 C 
ATOM     18  N   LIG    1       -0.112  10.895  -0.557  0.00  0.00    -0.191 NA
ENDBRANCH  14  17
ENDBRANCH   3  11
TORSDOF 3
