REMARK  Name = ZINC28097788
REMARK                            x       y       z     vdW  Elec       q    Type
REMARK                         _______ _______ _______ _____ _____    ______ ____
ROOT
ATOM      1  C   LIG    1       -1.940  -4.989  -3.716  0.00  0.00    +0.024 C 
ATOM      2  C   LIG    1       -1.633  -4.052  -2.545  0.00  0.00    +0.055 C 
ATOM      3  C   LIG    1       -2.940  -3.589  -1.902  0.00  0.00    +0.054 C 
ATOM      4  C   LIG    1       -2.664  -2.488  -0.911  0.00  0.00    -0.041 A 
ATOM      5  C   LIG    1       -3.641  -2.181   0.026  0.00  0.00    +0.004 A 
ATOM      6  C   LIG    1       -3.439  -1.174   0.949  0.00  0.00    +0.001 A 
ATOM      7  C   LIG    1       -2.253  -0.467   0.949  0.00  0.00    +0.009 A 
ATOM      8  C   LIG    1       -1.271  -0.766   0.011  0.00  0.00    -0.013 A 
ATOM      9  C   LIG    1       -1.479  -1.788  -0.921  0.00  0.00    -0.023 A 
ATOM     10  C   LIG    1       -0.384  -2.092  -1.909  0.00  0.00    +0.117 C 
ATOM     11  N   LIG    1       -0.909  -2.869  -3.036  0.00  0.00    -0.309 NA
ATOM     12  H   LIG    1       -0.072  -3.189  -3.673  0.00  0.00    +0.123 HD
ENDROOT
BRANCH   8  13
ATOM     13  C   LIG    1        0.002  -0.004   0.002  0.00  0.00    -0.018 A 
ATOM     14  C   LIG    1       -0.017   1.389   0.010  0.00  0.00    +0.008 A 
ATOM     15  C   LIG    1        1.170   2.093   0.002  0.00  0.00    +0.001 A 
ATOM     16  C   LIG    1        2.377   1.418  -0.013  0.00  0.00    +0.000 A 
ATOM     17  C   LIG    1        2.402   0.035  -0.021  0.00  0.00    +0.001 A 
ATOM     18  C   LIG    1        1.221  -0.679  -0.013  0.00  0.00    +0.008 A 
ENDBRANCH   8  13
TORSDOF 1
