REMARK  Name = ZINC66078766
REMARK                            x       y       z     vdW  Elec       q    Type
REMARK                         _______ _______ _______ _____ _____    ______ ____
ROOT
ATOM      1  C   LIG    1        2.237   1.380  -0.736  0.00  0.00    +0.003 A 
ATOM      2  C   LIG    1        1.192   2.087  -0.178  0.00  0.00    +0.015 A 
ATOM      3  C   LIG    1        0.140   1.406   0.441  0.00  0.00    +0.061 A 
ATOM      4  C   LIG    1        0.152   0.011   0.493  0.00  0.00    +0.038 A 
ATOM      5  C   LIG    1        1.208  -0.689  -0.071  0.00  0.00    +0.032 A 
ATOM      6  C   LIG    1        2.249  -0.002  -0.684  0.00  0.00    +0.023 A 
ENDROOT
BRANCH   3   7
ATOM      7  C   LIG    1       -0.979   2.159   1.039  0.00  0.00    +0.337 C 
ATOM      8  O   LIG    1       -0.988   3.381   0.993  0.00  0.00    -0.245 OA
BRANCH   7   9
ATOM      9  O   LIG    1       -1.899   1.562   1.581  0.00  0.00    -0.477 OA
ATOM     10  H   LIG    1       -1.892   0.625   1.616  0.00  0.00    +0.295 HD
ENDBRANCH   7   9
ENDBRANCH   3   7
BRANCH   5  11
ATOM     11  N   LIG    1        1.226  -2.086  -0.021  0.00  0.00    -0.314 N 
ATOM     12  H   LIG    1        2.070  -2.562  -0.066  0.00  0.00    +0.152 HD
BRANCH  11  13
ATOM     13  C   LIG    1        0.027  -2.796   0.092  0.00  0.00    +0.031 A 
ATOM     14  C   LIG    1       -1.133  -2.301  -0.490  0.00  0.00    +0.024 A 
ATOM     15  C   LIG    1       -2.315  -3.006  -0.377  0.00  0.00    +0.022 A 
ATOM     16  C   LIG    1       -2.345  -4.203   0.316  0.00  0.00    +0.041 A 
ATOM     17 CL   LIG    1       -3.834  -5.085   0.457  0.00  0.00    -0.084 Cl
ATOM     18  C   LIG    1       -1.191  -4.698   0.898  0.00  0.00    +0.022 A 
ATOM     19  C   LIG    1       -0.004  -4.001   0.782  0.00  0.00    +0.024 A 
ENDBRANCH  11  13
ENDBRANCH   5  11
TORSDOF 4
