REMARK  Name = ZINC39949130
REMARK                            x       y       z     vdW  Elec       q    Type
REMARK                         _______ _______ _______ _____ _____    ______ ____
ROOT
ATOM      1  C   LIG    1        4.314   0.445   2.231  0.00  0.00    +0.081 C 
ATOM      2  C   LIG    1        4.901   0.508   3.639  0.00  0.00    -0.062 C 
ATOM      3  N   LIG    1        5.051  -0.808   4.248  0.00  0.00    +0.383 N 
ATOM      4  H   LIG    1        6.025  -0.954   4.466  0.00  0.00    -0.081 HD
ATOM      5  C   LIG    1        4.281  -0.838   5.499  0.00  0.00    -0.095 C 
ATOM      6  C   LIG    1        4.593  -1.903   3.389  0.00  0.00    -0.037 C 
ATOM      7  C   LIG    1        4.903  -3.240   4.069  0.00  0.00    +0.003 C 
ATOM      8  C   LIG    1        4.713  -4.388   3.080  0.00  0.00    +0.062 C 
ATOM      9  C   LIG    1        5.169  -5.741   3.561  0.00  0.00    +0.092 C 
ATOM     10  N   LIG    1        6.111  -6.159   2.764  0.00  0.00    -0.259 NA
ATOM     11  C   LIG    1        6.467  -5.269   1.810  0.00  0.00    +0.068 A 
ATOM     12  C   LIG    1        7.389  -5.265   0.753  0.00  0.00    +0.028 A 
ATOM     13  C   LIG    1        7.518  -4.034   0.022  0.00  0.00    +0.003 A 
ATOM     14  C   LIG    1        6.848  -2.863   0.348  0.00  0.00    +0.008 A 
ATOM     15  C   LIG    1        5.931  -2.866   1.388  0.00  0.00    -0.018 A 
ATOM     16  C   LIG    1        5.698  -4.101   1.978  0.00  0.00    -0.006 A 
ATOM     17  C   LIG    1        5.232  -1.762   2.023  0.00  0.00    -0.057 C 
ATOM     18  C   LIG    1        5.101  -0.572   1.422  0.00  0.00    -0.014 C 
ENDROOT
BRANCH   1  21
ATOM     19  N   LIG    1        2.148  -0.104   1.172  0.00  0.00    -0.310 N 
ATOM     20  H   LIG    1        2.559   0.072   0.311  0.00  0.00    +0.149 HD
ATOM     21  C   LIG    1        2.869   0.026   2.303  0.00  0.00    +0.218 C 
ATOM     22  O   LIG    1        2.354  -0.193   3.379  0.00  0.00    -0.275 OA
BRANCH  19  23
ATOM     23  CA  LIG    1        0.742  -0.511   1.242  0.00  0.00    +0.098 C 
BRANCH  23  25
ATOM     24  C   LIG    1       -0.019   1.526   0.010  0.00  0.00    +0.006 C 
ATOM     25  C   LIG    1        0.002  -0.004   0.002  0.00  0.00    +0.021 C 
ENDBRANCH  23  25
BRANCH  23  26
ATOM     26  C   LIG    1        0.655  -2.037   1.299  0.00  0.00    +0.178 C 
BRANCH  26  27
ATOM     27  O   LIG    1        1.148  -2.588   0.076  0.00  0.00    -0.393 OA
ATOM     28  H   LIG    1        1.123  -3.555   0.041  0.00  0.00    +0.209 HD
ENDBRANCH  26  27
ENDBRANCH  23  26
ENDBRANCH  19  23
ENDBRANCH   1  21
TORSDOF 5
