REMARK  Name = ZINC13833080
REMARK                            x       y       z     vdW  Elec       q    Type
REMARK                         _______ _______ _______ _____ _____    ______ ____
ROOT
ATOM      1  C   LIG    1        3.627   3.143   0.403  0.00  0.00    +0.078 C 
ATOM      2  C   LIG    1        3.636   1.866  -0.446  0.00  0.00    +0.027 C 
ATOM      3  C   LIG    1        2.465   0.989  -0.009  0.00  0.00    +0.037 C 
ATOM      4  C   LIG    1        1.184   1.781   0.000  0.00  0.00    -0.044 A 
ATOM      5  C   LIG    1       -0.013   1.076   0.008  0.00  0.00    +0.004 A 
ATOM      6  C   LIG    1       -1.220   1.743   0.017  0.00  0.00    +0.000 A 
ATOM      7  C   LIG    1       -1.239   3.126   0.032  0.00  0.00    +0.000 A 
ATOM      8  C   LIG    1       -0.052   3.828   0.025  0.00  0.00    +0.004 A 
ATOM      9  C   LIG    1        1.165   3.157   0.006  0.00  0.00    -0.042 A 
ATOM     10  C   LIG    1        2.422   3.986  -0.010  0.00  0.00    +0.057 C 
ENDROOT
BRANCH   1  12
ATOM     11  C   LIG    1        5.321   4.743   1.116  0.00  0.00    +0.213 C 
ATOM     12  N   LIG    1        4.861   3.898   0.171  0.00  0.00    -0.312 N 
ATOM     13  H   LIG    1        5.346   3.791  -0.661  0.00  0.00    +0.149 HD
ATOM     14  O   LIG    1        4.713   4.877   2.157  0.00  0.00    -0.276 OA
BRANCH  11  15
ATOM     15  C   LIG    1        6.590   5.520   0.878  0.00  0.00    +0.095 C 
BRANCH  15  17
ATOM     16  C   LIG    1        8.175   7.186   1.855  0.00  0.00    +0.004 C 
ATOM     17  C   LIG    1        6.887   6.397   2.096  0.00  0.00    +0.006 C 
ENDBRANCH  15  17
ENDBRANCH  11  15
ENDBRANCH   1  12
TORSDOF 3
