REMARK  Name = ZINC49017020
REMARK                            x       y       z     vdW  Elec       q    Type
REMARK                         _______ _______ _______ _____ _____    ______ ____
ROOT
ATOM      1  C   LIG    1        0.835  -0.504   1.199  0.00  0.00    +0.019 C 
ENDROOT
BRANCH   1   2
ATOM      2  C   LIG    1        0.884  -2.007   1.284  0.00  0.00    -0.049 A 
ATOM      3  C   LIG    1       -0.098  -2.692   1.978  0.00  0.00    +0.004 A 
ATOM      4  C   LIG    1       -0.056  -4.069   2.058  0.00  0.00    +0.015 A 
ATOM      5  C   LIG    1        0.975  -4.769   1.441  0.00  0.00    +0.008 A 
ATOM      6  C   LIG    1        1.960  -4.078   0.745  0.00  0.00    +0.015 A 
ATOM      7  C   LIG    1        1.908  -2.700   0.664  0.00  0.00    +0.004 A 
BRANCH   5   8
ATOM      8  S   LIG    1        1.033  -6.527   1.542  0.00  0.00    -0.129 S 
ATOM      9  C   LIG    1        2.522  -6.971   0.606  0.00  0.00    +0.090 C 
ENDBRANCH   5   8
ENDBRANCH   1   2
BRANCH   1  11
ATOM     10  C   LIG    1        0.081   1.432  -0.189  0.00  0.00    -0.013 C 
ATOM     11  C   LIG    1        0.027  -0.089  -0.032  0.00  0.00    -0.070 C 
BRANCH  11  12
ATOM     12  N   LIG    1       -1.369  -0.515   0.133  0.00  0.00    +0.382 N 
ATOM     13  H   LIG    1       -1.786  -0.011   0.901  0.00  0.00    -0.085 HD
ATOM     14  H   LIG    1       -1.399  -1.505   0.325  0.00  0.00    -0.085 HD
BRANCH  12  15
ATOM     15  C   LIG    1       -2.116  -0.233  -1.101  0.00  0.00    -0.078 C 
ATOM     16  C   LIG    1       -3.600  -0.533  -0.879  0.00  0.00    -0.014 C 
ATOM     17  C   LIG    1       -1.581  -1.113  -2.233  0.00  0.00    -0.014 C 
ENDBRANCH  12  15
ENDBRANCH  11  12
ENDBRANCH   1  11
TORSDOF 5
