REMARK  Name = ZINC72105034
REMARK                            x       y       z     vdW  Elec       q    Type
REMARK                         _______ _______ _______ _____ _____    ______ ____
ROOT
ATOM      1  C   LIG    1       -4.986  -7.239   4.120  0.00  0.00    +0.128 A 
ATOM      2  C   LIG    1       -4.800  -7.592   2.786  0.00  0.00    +0.088 A 
ATOM      3  C   LIG    1       -4.922  -8.932   2.437  0.00  0.00    +0.133 A 
ATOM      4  N   LIG    1       -5.211  -9.823   3.383  0.00  0.00    -0.220 NA
ATOM      5  C   LIG    1       -5.380  -9.450   4.635  0.00  0.00    +0.225 A 
ATOM      6  N   LIG    1       -5.267  -8.192   5.008  0.00  0.00    -0.221 NA
ENDROOT
BRANCH   3   7
ATOM      7  N   LIG    1       -4.746  -9.336   1.117  0.00  0.00    -0.243 N 
ATOM      8  C   LIG    1       -4.966 -10.620   0.770  0.00  0.00    +0.312 C 
ATOM      9  N   LIG    1       -4.795 -11.011  -0.508  0.00  0.00    -0.266 N 
ATOM     10  H   LIG    1       -4.594 -10.355  -1.193  0.00  0.00    +0.156 HD
ATOM     11  O   LIG    1       -5.317 -11.425   1.611  0.00  0.00    -0.252 OA
ATOM     12  C   LIG    1       -4.322  -8.366   0.105  0.00  0.00    +0.141 C 
BRANCH   9  13
ATOM     13  C   LIG    1       -4.908 -12.365  -0.847  0.00  0.00    +0.079 A 
ATOM     14  C   LIG    1       -3.885 -12.994  -1.545  0.00  0.00    +0.105 A 
ATOM     15 CL   LIG    1       -2.467 -12.102  -1.998  0.00  0.00    -0.078 Cl
ATOM     16  C   LIG    1       -3.998 -14.335  -1.880  0.00  0.00    +0.144 A 
ATOM     17  C   LIG    1       -5.132 -15.048  -1.519  0.00  0.00    +0.094 A 
ATOM     18  C   LIG    1       -6.154 -14.421  -0.822  0.00  0.00    +0.144 A 
ATOM     19  C   LIG    1       -6.040 -13.081  -0.480  0.00  0.00    +0.105 A 
ATOM     20 CL   LIG    1       -7.316 -12.298   0.399  0.00  0.00    -0.078 Cl
BRANCH  16  21
ATOM     21  O   LIG    1       -2.998 -14.952  -2.563  0.00  0.00    -0.493 OA
ATOM     22  C   LIG    1       -3.180 -16.334  -2.875  0.00  0.00    +0.277 C 
ENDBRANCH  16  21
BRANCH  18  23
ATOM     23  O   LIG    1       -7.264 -15.120  -0.468  0.00  0.00    -0.493 OA
ATOM     24  C   LIG    1       -7.312 -16.497  -0.847  0.00  0.00    +0.277 C 
ENDBRANCH  18  23
ENDBRANCH   9  13
ENDBRANCH   3   7
BRANCH   1  25
ATOM     25  N   LIG    1       -4.874  -5.916   4.520  0.00  0.00    -0.299 N 
ATOM     26  H   LIG    1       -4.750  -5.218   3.858  0.00  0.00    +0.154 HD
BRANCH  25  30
ATOM     27  C   LIG    1       -5.071  -4.937   8.569  0.00  0.00    +0.030 A 
ATOM     28  C   LIG    1       -4.489  -6.134   8.171  0.00  0.00    +0.025 A 
ATOM     29  C   LIG    1       -4.424  -6.458   6.831  0.00  0.00    +0.025 A 
ATOM     30  C   LIG    1       -4.941  -5.587   5.880  0.00  0.00    +0.032 A 
ATOM     31  C   LIG    1       -5.523  -4.391   6.278  0.00  0.00    +0.025 A 
ATOM     32  C   LIG    1       -5.593  -4.069   7.619  0.00  0.00    +0.025 A 
BRANCH  27  36
ATOM     33  N   LIG    1       -4.341  -3.631  12.413  0.00  0.00    -0.300 NA
ATOM     34  C   LIG    1       -3.725  -4.862  11.898  0.00  0.00    +0.103 C 
ATOM     35  C   LIG    1       -4.709  -5.567  10.958  0.00  0.00    +0.120 C 
ATOM     36  N   LIG    1       -5.138  -4.609   9.928  0.00  0.00    -0.327 N 
ATOM     37  C   LIG    1       -5.639  -3.296  10.364  0.00  0.00    +0.120 C 
ATOM     38  C   LIG    1       -4.619  -2.681  11.328  0.00  0.00    +0.103 C 
BRANCH  33  40
ATOM     39  C   LIG    1       -3.438  -3.938  14.668  0.00  0.00    +0.020 C 
ATOM     40  C   LIG    1       -3.501  -3.016  13.449  0.00  0.00    +0.081 C 
ENDBRANCH  33  40
ENDBRANCH  27  36
ENDBRANCH  25  30
ENDBRANCH   1  25
TORSDOF 8
