REMARK  Name = ZINC13803767
REMARK                            x       y       z     vdW  Elec       q    Type
REMARK                         _______ _______ _______ _____ _____    ______ ____
ROOT
ATOM      1  C   LIG    1        1.429  -0.487  -0.014  0.00  0.00    +0.190 C 
ATOM      2  O   LIG    1        2.340   0.313  -0.019  0.00  0.00    -0.287 OA
ENDROOT
BRANCH   1   3
ATOM      3  C   LIG    1        1.718  -1.930  -0.025  0.00  0.00    +0.024 A 
ATOM      4  C   LIG    1        0.670  -2.856  -0.014  0.00  0.00    +0.012 A 
ATOM      5  C   LIG    1        0.947  -4.207  -0.029  0.00  0.00    +0.003 A 
ATOM      6  C   LIG    1        2.258  -4.649  -0.043  0.00  0.00    +0.038 A 
ATOM      7  C   LIG    1        3.303  -3.738  -0.049  0.00  0.00    +0.124 A 
ATOM      8  F   LIG    1        4.581  -4.178  -0.063  0.00  0.00    -0.205 F 
ATOM      9  C   LIG    1        3.041  -2.382  -0.040  0.00  0.00    +0.050 A 
ENDBRANCH   1   3
BRANCH   1  11
ATOM     10  C   LIG    1       -0.018   1.503   0.010  0.00  0.00    +0.205 C 
ATOM     11  C   LIG    1        0.002  -0.004   0.002  0.00  0.00    +0.104 C 
BRANCH  10  12
ATOM     12  C   LIG    1       -1.319   2.231   0.020  0.00  0.00    +0.374 C 
ATOM     13  O   LIG    1       -2.361   1.610   0.022  0.00  0.00    -0.242 OA
BRANCH  12  15
ATOM     14  C   LIG    1       -2.640   4.218   0.037  0.00  0.00    +0.280 C 
ATOM     15  O   LIG    1       -1.337   3.576   0.028  0.00  0.00    -0.462 OA
ENDBRANCH  12  15
ENDBRANCH  10  12
BRANCH  10  16
ATOM     16  O   LIG    1        1.019   2.121   0.004  0.00  0.00    -0.501 OA
ATOM     17  H   LIG    1        1.007   3.058   0.009  0.00  0.00    +0.292 HD
ENDBRANCH  10  16
ENDBRANCH   1  11
TORSDOF 5
