REMARK  Name = ZINC29135486
REMARK                            x       y       z     vdW  Elec       q    Type
REMARK                         _______ _______ _______ _____ _____    ______ ____
ROOT
ATOM      1  C   LIG    1       -0.011   1.218   0.007  0.00  0.00    +0.246 C 
ATOM      2  N   LIG    1       -1.185   1.880   0.014  0.00  0.00    -0.303 N 
ATOM      3  H   LIG    1       -1.197   2.980   0.015  0.00  0.00    +0.150 HD
ATOM      4  O   LIG    1        0.002   0.003   0.006  0.00  0.00    -0.270 OA
ENDROOT
BRANCH   1  10
ATOM      5  C   LIG    1        2.482   1.289   0.086  0.00  0.00    +0.047 A 
ATOM      6  C   LIG    1        3.670   2.007   0.073  0.00  0.00    +0.024 A 
ATOM      7  C   LIG    1        3.646   3.383  -0.029  0.00  0.00    +0.014 A 
ATOM      8  C   LIG    1        2.439   4.059  -0.120  0.00  0.00    +0.056 A 
ATOM      9  C   LIG    1        1.250   3.362  -0.114  0.00  0.00    +0.027 A 
ATOM     10  C   LIG    1        1.259   1.970  -0.006  0.00  0.00    +0.058 A 
BRANCH   5  14
ATOM     11  N   LIG    1        3.537  -2.049   0.952  0.00  0.00    -0.297 N 
ATOM     12  H   LIG    1        2.839  -2.653   0.354  0.00  0.00    +0.151 HD
ATOM     13  C   LIG    1        3.449  -0.705   0.936  0.00  0.00    +0.304 C 
ATOM     14  N   LIG    1        2.504  -0.100   0.189  0.00  0.00    -0.269 N 
ATOM     15  H   LIG    1        1.751  -0.703  -0.339  0.00  0.00    +0.156 HD
ATOM     16  O   LIG    1        4.221  -0.037   1.597  0.00  0.00    -0.253 OA
BRANCH  11  18
ATOM     17  C   LIG    1        4.053  -2.871   3.197  0.00  0.00    +0.027 C 
ATOM     18  C   LIG    1        4.564  -2.707   1.764  0.00  0.00    +0.068 C 
ATOM     19  C   LIG    1        4.878  -4.083   1.173  0.00  0.00    +0.027 C 
ENDBRANCH  11  18
ENDBRANCH   5  14
BRANCH   8  20
ATOM     20  C   LIG    1        2.428   5.561  -0.231  0.00  0.00    +0.417 C 
ATOM     21  F   LIG    1        1.726   6.104   0.851  0.00  0.00    -0.166 F 
ATOM     22  F   LIG    1        1.804   5.936  -1.426  0.00  0.00    -0.166 F 
ATOM     23  F   LIG    1        3.742   6.040  -0.222  0.00  0.00    -0.166 F 
ENDBRANCH   8  20
ENDBRANCH   1  10
BRANCH   2  24
ATOM     24  C   LIG    1       -2.446   1.134   0.020  0.00  0.00    +0.200 C 
BRANCH  24  25
ATOM     25  C   LIG    1       -3.602   2.101   0.027  0.00  0.00    +0.230 C 
ATOM     26  N   LIG    1       -4.867   1.638   0.034  0.00  0.00    -0.309 N 
ATOM     27  H   LIG    1       -5.057   0.555   0.034  0.00  0.00    +0.149 HD
ATOM     28  O   LIG    1       -3.393   3.296   0.027  0.00  0.00    -0.274 OA
BRANCH  26  29
ATOM     29  C   LIG    1       -5.991   2.579   0.041  0.00  0.00    +0.093 C 
ATOM     30  C   LIG    1       -6.309   3.003  -1.394  0.00  0.00    +0.024 C 
ATOM     31  C   LIG    1       -6.681   1.770  -2.220  0.00  0.00    +0.002 C 
ATOM     32  C   LIG    1       -7.908   1.095  -1.605  0.00  0.00    +0.002 C 
ATOM     33  C   LIG    1       -7.589   0.670  -0.170  0.00  0.00    +0.024 C 
ATOM     34  C   LIG    1       -7.218   1.903   0.657  0.00  0.00    +0.093 C 
BRANCH  34  35
ATOM     35  N   LIG    1       -6.913   1.496   2.031  0.00  0.00    -0.307 N 
ATOM     36  H   LIG    1       -5.872   1.306   2.330  0.00  0.00    +0.149 HD
ATOM     37  C   LIG    1       -7.908   1.354   2.928  0.00  0.00    +0.244 C 
ATOM     38  O   LIG    1       -9.060   1.564   2.597  0.00  0.00    -0.270 OA
BRANCH  37  39
ATOM     39  C   LIG    1       -7.601   0.945   4.311  0.00  0.00    +0.037 A 
ATOM     40  C   LIG    1       -6.279   0.698   4.692  0.00  0.00    +0.014 A 
ATOM     41  C   LIG    1       -5.996   0.323   5.980  0.00  0.00    +0.015 A 
ATOM     42  C   LIG    1       -7.026   0.176   6.906  0.00  0.00    +0.008 A 
ATOM     43  C   LIG    1       -8.345   0.417   6.529  0.00  0.00    +0.015 A 
ATOM     44  C   LIG    1       -8.633   0.798   5.244  0.00  0.00    +0.014 A 
BRANCH  42  45
ATOM     45  S   LIG    1       -6.659  -0.313   8.558  0.00  0.00    -0.129 S 
ATOM     46  C   LIG    1       -4.855  -0.504   8.570  0.00  0.00    +0.090 C 
ENDBRANCH  42  45
ENDBRANCH  37  39
ENDBRANCH  34  35
ENDBRANCH  26  29
ENDBRANCH  24  25
ENDBRANCH   2  24
TORSDOF 10
