REMARK  Name = ZINC00058111
REMARK                            x       y       z     vdW  Elec       q    Type
REMARK                         _______ _______ _______ _____ _____    ______ ____
ROOT
ATOM      1  C   LIG    1       -0.017   1.395   0.010  0.00  0.00    +0.015 A 
ATOM      2  C   LIG    1        1.158   2.089   0.002  0.00  0.00    +0.046 A 
ATOM      3  C   LIG    1        2.377   1.414  -0.013  0.00  0.00    +0.120 A 
ATOM      4  C   LIG    1        2.414   0.029  -0.021  0.00  0.00    +0.092 A 
ATOM      5  C   LIG    1        1.230  -0.692  -0.013  0.00  0.00    +0.143 A 
ATOM      6  O   LIG    1        1.244  -2.042  -0.021  0.00  0.00    -0.422 OA
ATOM      7  C   LIG    1        0.107  -2.755  -0.015  0.00  0.00    +0.337 A 
ATOM      8  O   LIG    1        0.168  -3.971  -0.022  0.00  0.00    -0.245 OA
ATOM      9  C   LIG    1       -1.158  -2.131   0.001  0.00  0.00    +0.092 A 
ATOM     10  C   LIG    1       -1.243  -0.775   0.009  0.00  0.00    +0.018 A 
ATOM     11  C   LIG    1        0.002  -0.004   0.002  0.00  0.00    +0.018 A 
ENDROOT
BRANCH   3  12
ATOM     12  O   LIG    1        3.537   2.119  -0.021  0.00  0.00    -0.507 OA
ATOM     13  H   LIG    1        3.882   2.319   0.860  0.00  0.00    +0.292 HD
ENDBRANCH   3  12
TORSDOF 1
