REMARK  Name = ZINC26973597
REMARK                            x       y       z     vdW  Elec       q    Type
REMARK                         _______ _______ _______ _____ _____    ______ ____
ROOT
ATOM      1  C   LIG    1       -0.013   1.086   0.008  0.00  0.00    +0.177 C 
ATOM      2  C   LIG    1       -0.729   1.579   1.267  0.00  0.00    +0.177 C 
ATOM      3  C   LIG    1       -0.750   3.109   1.275  0.00  0.00    +0.193 C 
ATOM      4  C   LIG    1        0.686   3.639   1.264  0.00  0.00    +0.193 C 
ATOM      5  C   LIG    1        1.402   3.145   0.006  0.00  0.00    +0.178 C 
ATOM      6  C   LIG    1        1.423   1.615  -0.003  0.00  0.00    +0.192 C 
ENDROOT
BRANCH   1   7
ATOM      7  O   LIG    1       -0.704   1.559  -1.150  0.00  0.00    -0.386 OA
ATOM      8  H   LIG    1       -1.622   1.262  -1.209  0.00  0.00    +0.210 HD
ENDBRANCH   1   7
BRANCH   2   9
ATOM      9  O   LIG    1       -0.038   1.106   2.425  0.00  0.00    -0.386 OA
ATOM     10  H   LIG    1        0.014   0.142   2.485  0.00  0.00    +0.210 HD
ENDBRANCH   2   9
BRANCH   5  11
ATOM     11  O   LIG    1        0.711   3.619  -1.152  0.00  0.00    -0.386 OA
ATOM     12  H   LIG    1        1.110   3.343  -1.989  0.00  0.00    +0.210 HD
ENDBRANCH   5  11
BRANCH   3  13
ATOM     13  O   LIG    1       -1.441   3.582   0.117  0.00  0.00    -0.278 OA
BRANCH  13  14
ATOM     14  P   LIG    1       -2.766   4.493   0.199  0.00  0.00    +0.473 P 
ATOM     15  O   LIG    1       -3.845   3.767   1.072  0.00  0.00    -0.228 OA
BRANCH  14  16
ATOM     16  O   LIG    1       -3.331   4.723  -1.244  0.00  0.00    -0.303 OA
ATOM     17  H   LIG    1       -3.550   3.868  -1.646  0.00  0.00    +0.222 HD
ENDBRANCH  14  16
BRANCH  14  18
ATOM     18  O   LIG    1       -2.412   5.874   0.847  0.00  0.00    -0.303 OA
ATOM     19  H   LIG    1       -2.062   5.732   1.741  0.00  0.00    +0.222 HD
ENDBRANCH  14  18
ENDBRANCH  13  14
ENDBRANCH   3  13
BRANCH   4  20
ATOM     20  O   LIG    1        0.666   5.067   1.272  0.00  0.00    -0.278 OA
BRANCH  20  21
ATOM     21  P   LIG    1        1.341   5.947   2.440  0.00  0.00    +0.473 P 
ATOM     22  O   LIG    1        2.825   5.546   2.595  0.00  0.00    -0.228 OA
BRANCH  21  23
ATOM     23  O   LIG    1        0.597   5.694   3.770  0.00  0.00    -0.303 OA
ATOM     24  H   LIG    1        0.655   4.753   3.999  0.00  0.00    +0.222 HD
ENDBRANCH  21  23
BRANCH  21  25
ATOM     25  O   LIG    1        1.244   7.509   2.060  0.00  0.00    -0.303 OA
ATOM     26  H   LIG    1        1.631   8.099   2.720  0.00  0.00    +0.222 HD
ENDBRANCH  21  25
ENDBRANCH  20  21
ENDBRANCH   4  20
BRANCH   6  27
ATOM     27  O   LIG    1        2.091   1.155  -1.179  0.00  0.00    -0.278 OA
BRANCH  27  28
ATOM     28  P   LIG    1        3.418   0.243  -1.133  0.00  0.00    +0.473 P 
ATOM     29  O   LIG    1        4.514   0.960  -0.272  0.00  0.00    -0.228 OA
BRANCH  28  30
ATOM     30  O   LIG    1        3.955   0.029  -2.588  0.00  0.00    -0.303 OA
ATOM     31  H   LIG    1        4.167   0.888  -2.985  0.00  0.00    +0.222 HD
ENDBRANCH  28  30
BRANCH  28  32
ATOM     32  O   LIG    1        3.076  -1.145  -0.492  0.00  0.00    -0.303 OA
ATOM     33  H   LIG    1        2.744  -1.012   0.409  0.00  0.00    +0.222 HD
ENDBRANCH  28  32
ENDBRANCH  27  28
ENDBRANCH   6  27
TORSDOF 15
