REMARK  Name = ZINC29414236
REMARK                            x       y       z     vdW  Elec       q    Type
REMARK                         _______ _______ _______ _____ _____    ______ ____
ROOT
ATOM      1  C   LIG    1        0.089   4.376   0.113  0.00  0.00    +0.048 A 
ATOM      2  C   LIG    1        1.317   3.778   0.129  0.00  0.00    +0.115 A 
ATOM      3  N   LIG    1        1.449   2.465   0.026  0.00  0.00    -0.238 NA
ATOM      4  C   LIG    1        0.408   1.658  -0.097  0.00  0.00    +0.144 A 
ATOM      5  C   LIG    1       -0.890   2.190  -0.126  0.00  0.00    +0.128 A 
ATOM      6  N   LIG    1       -2.132   1.659  -0.242  0.00  0.00    -0.232 NA
ATOM      7  C   LIG    1       -3.018   2.611  -0.213  0.00  0.00    +0.200 A 
ATOM      8  N   LIG    1       -2.402   3.817  -0.066  0.00  0.00    -0.326 N 
ATOM      9  C   LIG    1       -1.049   3.582  -0.013  0.00  0.00    +0.074 A 
ENDROOT
BRANCH   4  10
ATOM     10  N   LIG    1        0.600   0.287  -0.202  0.00  0.00    -0.341 N 
ATOM     11  H   LIG    1        1.618  -0.129  -0.183  0.00  0.00    +0.144 HD
ATOM     12  H   LIG    1       -0.266  -0.383  -0.304  0.00  0.00    +0.144 HD
ENDBRANCH   4  10
BRANCH   8  13
ATOM     13  C   LIG    1       -3.059   5.125   0.008  0.00  0.00    +0.150 C 
BRANCH  13  14
ATOM     14  C   LIG    1       -3.098   5.746  -1.364  0.00  0.00    -0.007 C 
ATOM     15  C   LIG    1       -4.234   6.174  -1.857  0.00  0.00    +0.004 C 
BRANCH  15  16
ATOM     16  C   LIG    1       -5.464   6.217  -0.987  0.00  0.00    +0.162 C 
BRANCH  16  17
ATOM     17  O   LIG    1       -6.030   7.529  -1.026  0.00  0.00    -0.385 OA
ATOM     18  H   LIG    1       -6.939   7.753  -0.449  0.00  0.00    +0.210 HD
ENDBRANCH  16  17
BRANCH  16  19
ATOM     19  C   LIG    1       -6.488   5.204  -1.503  0.00  0.00    +0.191 C 
BRANCH  19  20
ATOM     20  O   LIG    1       -7.605   5.161  -0.612  0.00  0.00    -0.392 OA
ATOM     21  H   LIG    1       -8.448   4.485  -0.820  0.00  0.00    +0.210 HD
ENDBRANCH  19  20
ENDBRANCH  16  19
ENDBRANCH  15  16
ENDBRANCH  13  14
ENDBRANCH   8  13
TORSDOF 7
