REMARK  Name = ZINC71329712
REMARK                            x       y       z     vdW  Elec       q    Type
REMARK                         _______ _______ _______ _____ _____    ______ ____
ROOT
ATOM      1  C   LIG    1        4.124  -6.000  -1.292  0.00  0.00    +0.086 A 
ATOM      2  C   LIG    1        4.536  -7.330  -1.412  0.00  0.00    +0.019 A 
ATOM      3  C   LIG    1        4.145  -8.234  -0.447  0.00  0.00    +0.069 A 
ATOM      4  C   LIG    1        4.707  -9.588  -0.792  0.00  0.00    +0.165 C 
ATOM      5  N   LIG    1        5.471  -9.449  -2.038  0.00  0.00    -0.275 N 
ATOM      6  C   LIG    1        6.133 -10.426  -2.688  0.00  0.00    +0.303 C 
ATOM      7  N   LIG    1        6.133 -11.681  -2.197  0.00  0.00    -0.291 N 
ATOM      8  H   LIG    1        5.657 -11.881  -1.376  0.00  0.00    +0.151 HD
ATOM      9  O   LIG    1        6.730 -10.175  -3.717  0.00  0.00    -0.253 OA
ATOM     10  N   LIG    1        3.393  -7.819   0.563  0.00  0.00    -0.218 NA
ATOM     11  C   LIG    1        3.016  -6.552   0.654  0.00  0.00    +0.213 A 
ATOM     12  C   LIG    1        5.374  -8.041  -2.440  0.00  0.00    +0.148 C 
ATOM     13  N   LIG    1        3.374  -5.651  -0.248  0.00  0.00    -0.214 NA
ENDROOT
BRANCH   1  21
ATOM     14  C   LIG    1        4.203  -5.191  -3.652  0.00  0.00    +0.133 A 
ATOM     15  C   LIG    1        4.573  -4.242  -4.592  0.00  0.00    +0.066 A 
ATOM     16  C   LIG    1        5.257  -3.107  -4.199  0.00  0.00    +0.046 A 
ATOM     17 CL   LIG    1        5.718  -1.922  -5.381  0.00  0.00    -0.083 Cl
ATOM     18  C   LIG    1        5.578  -2.910  -2.865  0.00  0.00    +0.041 A 
ATOM     19  C   LIG    1        5.216  -3.847  -1.918  0.00  0.00    +0.055 A 
ATOM     20 CL   LIG    1        5.620  -3.596  -0.249  0.00  0.00    -0.083 Cl
ATOM     21  C   LIG    1        4.520  -4.994  -2.304  0.00  0.00    +0.061 A 
BRANCH  14  22
ATOM     22  O   LIG    1        3.531  -6.306  -4.038  0.00  0.00    -0.489 OA
BRANCH  22  23
ATOM     23  C   LIG    1        3.242  -6.440  -5.431  0.00  0.00    +0.252 C 
BRANCH  23  24
ATOM     24  C   LIG    1        2.486  -7.748  -5.672  0.00  0.00    +0.184 C 
BRANCH  24  28
ATOM     25  C   LIG    1        2.071  -8.675  -9.132  0.00  0.00    +0.041 A 
ATOM     26  C   LIG    1        1.441  -7.426  -9.112  0.00  0.00    +0.134 A 
ATOM     27  N   LIG    1        1.512  -6.952  -7.894  0.00  0.00    -0.180 NA
ATOM     28  N   LIG    1        2.190  -7.885  -7.100  0.00  0.00    -0.268 N 
ATOM     29  C   LIG    1        2.522  -8.933  -7.882  0.00  0.00    +0.108 A 
ENDBRANCH  24  28
ENDBRANCH  23  24
ENDBRANCH  22  23
ENDBRANCH  14  22
ENDBRANCH   1  21
BRANCH  11  30
ATOM     30  N   LIG    1        2.231  -6.158   1.724  0.00  0.00    -0.327 N 
ATOM     31  H   LIG    1        1.948  -5.234   1.804  0.00  0.00    +0.145 HD
ATOM     32  H   LIG    1        1.964  -6.807   2.394  0.00  0.00    +0.145 HD
ENDBRANCH  11  30
BRANCH   7  33
ATOM     33  C   LIG    1        6.853 -12.744  -2.904  0.00  0.00    +0.218 C 
BRANCH  33  34
ATOM     34  C   LIG    1        6.695 -14.061  -2.142  0.00  0.00    +0.405 C 
ATOM     35  F   LIG    1        7.220 -13.920  -0.852  0.00  0.00    -0.169 F 
ATOM     36  F   LIG    1        7.383 -15.075  -2.816  0.00  0.00    -0.169 F 
ATOM     37  F   LIG    1        5.339 -14.392  -2.059  0.00  0.00    -0.169 F 
ENDBRANCH  33  34
ENDBRANCH   7  33
TORSDOF 8
