REMARK  Name = ZINC18101382
REMARK                            x       y       z     vdW  Elec       q    Type
REMARK                         _______ _______ _______ _____ _____    ______ ____
ROOT
ATOM      1  C   LIG    1       -1.107   2.287   0.020  0.00  0.00    +0.065 C 
ATOM      2  C   LIG    1       -0.017   1.475  -0.010  0.00  0.00    +0.050 C 
ATOM      3  C   LIG    1        0.013   0.018  -0.253  0.00  0.00    +0.009 A 
ATOM      4  C   LIG    1       -0.979  -0.926  -0.507  0.00  0.00    +0.025 A 
ATOM      5  C   LIG    1       -0.631  -2.249  -0.698  0.00  0.00    +0.019 A 
ATOM      6 BR   LIG    1       -1.972  -3.538  -1.043  0.00  0.00    -0.050 Br
ATOM      7  C   LIG    1        0.699  -2.633  -0.638  0.00  0.00    +0.017 A 
ATOM      8  C   LIG    1        1.689  -1.704  -0.388  0.00  0.00    +0.025 A 
ATOM      9  C   LIG    1        1.361  -0.368  -0.192  0.00  0.00    +0.042 A 
ATOM     10  N   LIG    1        2.150   0.747   0.071  0.00  0.00    -0.281 N 
ATOM     11  H   LIG    1        3.116   0.725   0.158  0.00  0.00    +0.155 HD
ATOM     12  C   LIG    1        1.405   1.860   0.189  0.00  0.00    +0.249 C 
ATOM     13  O   LIG    1        1.820   2.979   0.417  0.00  0.00    -0.270 OA
ENDROOT
BRANCH   1  14
ATOM     14  C   LIG    1       -0.936   3.742   0.138  0.00  0.00    +0.187 C 
ATOM     15  O   LIG    1        0.180   4.225   0.135  0.00  0.00    -0.287 OA
BRANCH  14  19
ATOM     16  C   LIG    1       -4.340   6.258   0.488  0.00  0.00    +0.000 A 
ATOM     17  C   LIG    1       -3.072   6.812   0.485  0.00  0.00    +0.001 A 
ATOM     18  C   LIG    1       -1.962   6.001   0.372  0.00  0.00    +0.012 A 
ATOM     19  C   LIG    1       -2.121   4.617   0.260  0.00  0.00    +0.022 A 
ATOM     20  C   LIG    1       -3.404   4.066   0.258  0.00  0.00    +0.012 A 
ATOM     21  C   LIG    1       -4.505   4.888   0.377  0.00  0.00    +0.001 A 
ENDBRANCH  14  19
ENDBRANCH   1  14
TORSDOF 2
