REMARK  Name = ZINC28897540
REMARK                            x       y       z     vdW  Elec       q    Type
REMARK                         _______ _______ _______ _____ _____    ______ ____
ROOT
ATOM      1  C   LIG    1       -1.217   1.751   0.017  0.00  0.00    +0.002 A 
ATOM      2  C   LIG    1       -1.237   3.134   0.031  0.00  0.00    +0.004 A 
ATOM      3  C   LIG    1       -0.051   3.845   0.023  0.00  0.00    -0.031 A 
ATOM      4  C   LIG    1        1.157   3.176   0.008  0.00  0.00    +0.027 A 
ATOM      5  C   LIG    1        1.181   1.788   0.000  0.00  0.00    +0.025 A 
ATOM      6  C   LIG    1       -0.013   1.076   0.008  0.00  0.00    +0.023 A 
ENDROOT
BRANCH   5   7
ATOM      7  N   LIG    1        2.401   1.108  -0.015  0.00  0.00    -0.358 N 
ATOM      8  H   LIG    1        3.345   1.673  -0.020  0.00  0.00    +0.142 HD
ATOM      9  H   LIG    1        2.418   0.008  -0.021  0.00  0.00    +0.142 HD
ENDBRANCH   5   7
BRANCH   3  10
ATOM     10  C   LIG    1       -0.078   5.352   0.032  0.00  0.00    +0.137 C 
BRANCH  10  11
ATOM     11  C   LIG    1       -0.808   5.849  -1.189  0.00  0.00    +0.313 C 
ATOM     12  O   LIG    1       -1.261   5.060  -1.984  0.00  0.00    -0.250 OA
BRANCH  11  13
ATOM     13  O   LIG    1       -0.956   7.167  -1.392  0.00  0.00    -0.480 OA
ATOM     14  H   LIG    1       -0.605   7.779  -0.775  0.00  0.00    +0.295 HD
ENDBRANCH  11  13
ENDBRANCH  10  11
BRANCH  10  15
ATOM     15  C   LIG    1       -0.796   5.842   1.291  0.00  0.00    +0.085 C 
BRANCH  15  16
ATOM     16  S   LIG    1       -0.699   7.651   1.377  0.00  0.00    -0.177 S 
ATOM     17  H   LIG    1       -1.162   8.188   2.218  0.00  0.00    +0.102 HD
ENDBRANCH  15  16
ENDBRANCH  10  15
ENDBRANCH   3  10
TORSDOF 6
