REMARK  Name = ZINC26153628
REMARK                            x       y       z     vdW  Elec       q    Type
REMARK                         _______ _______ _______ _____ _____    ______ ____
ROOT
ATOM      1  C   LIG    1        6.123  -2.512  -1.053  0.00  0.00    +0.087 A 
ATOM      2  C   LIG    1        6.765  -3.611  -1.556  0.00  0.00    +0.028 A 
ATOM      3  C   LIG    1        8.260  -3.800  -1.590  0.00  0.00    +0.064 C 
ATOM      4  N   LIG    1        5.855  -4.505  -2.020  0.00  0.00    -0.357 N 
ATOM      5  C   LIG    1        4.585  -4.029  -1.838  0.00  0.00    +0.048 A 
ATOM      6  C   LIG    1        3.336  -4.564  -2.142  0.00  0.00    +0.030 A 
ATOM      7  C   LIG    1        2.225  -3.806  -1.822  0.00  0.00    +0.048 A 
ATOM      8  C   LIG    1        2.326  -2.554  -1.219  0.00  0.00    +0.128 A 
ATOM      9  O   LIG    1        1.190  -1.858  -0.947  0.00  0.00    -0.469 OA
ATOM     10  C   LIG    1        1.289  -0.784  -0.007  0.00  0.00    +0.277 C 
ATOM     11  C   LIG    1        0.002  -0.004   0.002  0.00  0.00    +0.011 A 
ATOM     12  C   LIG    1       -1.194  -0.708   0.004  0.00  0.00    +0.012 A 
ATOM     13  C   LIG    1       -2.400  -0.040   0.016  0.00  0.00    +0.046 A 
ATOM     14  C   LIG    1       -2.420   1.348   0.027  0.00  0.00    +0.120 A 
ATOM     15  C   LIG    1       -1.226   2.051   0.019  0.00  0.00    +0.049 A 
ATOM     16  C   LIG    1       -0.017   1.375   0.010  0.00  0.00    -0.035 A 
ATOM     17  C   LIG    1        1.257   2.181   0.002  0.00  0.00    +0.051 C 
ATOM     18  C   LIG    1        2.433   1.301   0.408  0.00  0.00    +0.093 C 
ATOM     19  N   LIG    1        2.416   0.072  -0.398  0.00  0.00    -0.259 NA
ATOM     20  C   LIG    1        3.683  -0.663  -0.252  0.00  0.00    +0.127 C 
ATOM     21  C   LIG    1        3.562  -2.009  -0.907  0.00  0.00    +0.018 A 
ATOM     22  H   LIG    1        6.192  -5.454  -2.463  0.00  0.00    +0.166 HD
ATOM     23  C   LIG    1        4.691  -2.758  -1.225  0.00  0.00    +0.022 A 
ENDROOT
BRANCH   1  24
ATOM     24  C   LIG    1        6.746  -1.324  -0.459  0.00  0.00    +0.341 C 
ATOM     25  O   LIG    1        6.968  -1.287   0.736  0.00  0.00    -0.245 OA
BRANCH  24  26
ATOM     26  O   LIG    1        7.072  -0.273  -1.239  0.00  0.00    -0.461 OA
BRANCH  26  28
ATOM     27  C   LIG    1        7.982   1.953  -1.621  0.00  0.00    +0.048 C 
ATOM     28  C   LIG    1        7.686   0.869  -0.583  0.00  0.00    +0.229 C 
ENDBRANCH  26  28
ENDBRANCH  24  26
ENDBRANCH   1  24
BRANCH  14  29
ATOM     29  O   LIG    1       -3.604   2.014   0.039  0.00  0.00    -0.495 OA
ATOM     30  C   LIG    1       -4.794   1.222   0.041  0.00  0.00    +0.277 C 
ENDBRANCH  14  29
TORSDOF 4
