REMARK  Name = ZINC19850508
REMARK                            x       y       z     vdW  Elec       q    Type
REMARK                         _______ _______ _______ _____ _____    ______ ____
ROOT
ATOM      1  C   LIG    1       -0.485   4.063  -0.731  0.00  0.00    +0.107 C 
ENDROOT
BRANCH   1   4
ATOM      2  C   LIG    1       -0.013   1.086   0.008  0.00  0.00    +0.053 C 
ATOM      3  C   LIG    1       -0.742   1.585  -1.213  0.00  0.00    +0.057 A 
ATOM      4  C   LIG    1       -0.947   2.876  -1.535  0.00  0.00    +0.143 A 
ATOM      5  O   LIG    1       -1.629   2.935  -2.685  0.00  0.00    -0.381 OA
ATOM      6  N   LIG    1       -1.874   1.611  -3.125  0.00  0.00    -0.184 N 
ATOM      7  H   LIG    1       -2.348   1.350  -3.930  0.00  0.00    +0.211 HD
ATOM      8  C   LIG    1       -1.320   0.780  -2.216  0.00  0.00    +0.283 A 
ATOM      9  O   LIG    1       -1.321  -0.440  -2.255  0.00  0.00    -0.265 OA
ENDBRANCH   1   4
BRANCH   1  10
ATOM     10  CA  LIG    1        0.857   4.557  -1.275  0.00  0.00    +0.168 C 
BRANCH  10  11
ATOM     11  N   LIG    1        0.675   5.061  -2.643  0.00  0.00    -0.318 NA
ATOM     12  H1  LIG    1        1.558   5.333  -3.048  0.00  0.00    +0.119 HD
ATOM     13  H2  LIG    1        0.018   5.826  -2.661  0.00  0.00    +0.119 HD
ENDBRANCH  10  11
BRANCH  10  14
ATOM     14  C   LIG    1        1.379   5.664  -0.396  0.00  0.00    +0.322 C 
ATOM     15  O   LIG    1        2.094   5.401   0.556  0.00  0.00    -0.249 OA
BRANCH  14  16
ATOM     16  OXT LIG    1        1.087   6.823  -0.638  0.00  0.00    -0.480 OA
ATOM     17  HXT LIG    1        0.538   7.025  -1.370  0.00  0.00    +0.295 HD
ENDBRANCH  14  16
ENDBRANCH  10  14
ENDBRANCH   1  10
TORSDOF 5
