REMARK  Name = ZINC26376205
REMARK                            x       y       z     vdW  Elec       q    Type
REMARK                         _______ _______ _______ _____ _____    ______ ____
ROOT
ATOM      1  C   LIG    1       -0.013   1.086   0.008  0.00  0.00    +0.026 C 
ATOM      2  C   LIG    1       -0.742   1.585  -1.213  0.00  0.00    +0.079 C 
ATOM      3  N   LIG    1       -0.070   1.823  -2.322  0.00  0.00    -0.311 NA
ATOM      4  H   LIG    1        0.888   1.672  -2.335  0.00  0.00    +0.122 HD
ATOM      5  C   LIG    1       -0.665   2.256  -3.416  0.00  0.00    +0.087 C 
ATOM      6  C   LIG    1       -2.026   2.491  -3.443  0.00  0.00    +0.037 C 
ATOM      7  C   LIG    1       -2.694   2.992  -4.688  0.00  0.00    +0.177 C 
ATOM      8  O   LIG    1       -3.140   4.339  -4.499  0.00  0.00    -0.286 OA
ATOM      9  P   LIG    1       -4.559   4.661  -3.788  0.00  0.00    +0.475 P 
ATOM     10  O   LIG    1       -4.521   3.900  -2.359  0.00  0.00    -0.286 OA
ATOM     11  C   LIG    1       -4.251   2.498  -2.274  0.00  0.00    +0.178 C 
ATOM     12  O   LIG    1       -5.721   4.119  -4.650  0.00  0.00    -0.227 OA
ATOM     13  C   LIG    1       -2.772   2.256  -2.288  0.00  0.00    +0.052 C 
ATOM     14  C   LIG    1       -2.112   1.795  -1.157  0.00  0.00    +0.137 C 
ENDROOT
BRANCH   9  15
ATOM     15  O   LIG    1       -4.717   6.184  -3.580  0.00  0.00    -0.302 OA
ATOM     16  H   LIG    1       -4.738   6.628  -4.442  0.00  0.00    +0.222 HD
ENDBRANCH   9  15
BRANCH  14  17
ATOM     17  O   LIG    1       -2.799   1.553  -0.010  0.00  0.00    -0.390 OA
ATOM     18  H   LIG    1       -3.086   0.626   0.006  0.00  0.00    +0.210 HD
ENDBRANCH  14  17
TORSDOF 2
