REMARK  Name = ZINC00070198
REMARK                            x       y       z     vdW  Elec       q    Type
REMARK                         _______ _______ _______ _____ _____    ______ ____
ROOT
ATOM      1  C   LIG    1       -0.017   1.375   0.010  0.00  0.00    +0.001 A 
ATOM      2  C   LIG    1        1.169   2.098   0.002  0.00  0.00    +0.002 A 
ATOM      3  C   LIG    1        2.389   1.459  -0.010  0.00  0.00    +0.029 A 
ATOM      4  C   LIG    1        2.435   0.064  -0.015  0.00  0.00    +0.082 A 
ATOM      5  C   LIG    1        1.222  -0.668  -0.013  0.00  0.00    +0.085 A 
ATOM      6  C   LIG    1        1.333  -2.137  -0.034  0.00  0.00    +0.348 A 
ATOM      7  O   LIG    1        2.506  -2.623  -0.521  0.00  0.00    -0.403 OA
ATOM      8  C   LIG    1        3.622  -1.915  -0.252  0.00  0.00    +0.233 A 
ATOM      9  O   LIG    1        0.439  -2.864   0.357  0.00  0.00    -0.244 OA
ATOM     10  N   LIG    1        3.601  -0.625  -0.020  0.00  0.00    -0.212 NA
ATOM     11  C   LIG    1        0.002  -0.004   0.002  0.00  0.00    +0.017 A 
ENDROOT
BRANCH   8  12
ATOM     12  C   LIG    1        4.919  -2.620  -0.218  0.00  0.00    +0.051 A 
ATOM     13  C   LIG    1        4.977  -3.994  -0.466  0.00  0.00    +0.014 A 
ATOM     14  C   LIG    1        6.191  -4.646  -0.432  0.00  0.00    +0.001 A 
ATOM     15  C   LIG    1        7.351  -3.944  -0.152  0.00  0.00    +0.001 A 
ATOM     16  C   LIG    1        7.302  -2.584   0.095  0.00  0.00    +0.016 A 
ATOM     17  C   LIG    1        6.094  -1.916   0.058  0.00  0.00    +0.030 A 
ATOM     18 BR   LIG    1        6.029  -0.056   0.388  0.00  0.00    -0.050 Br
ENDBRANCH   8  12
TORSDOF 1
