REMARK  Name = ZINC13780218
REMARK                            x       y       z     vdW  Elec       q    Type
REMARK                         _______ _______ _______ _____ _____    ______ ____
ROOT
ATOM      1  C   LIG    1        0.105  -5.108   0.335  0.00  0.00    +0.044 C 
ATOM      2  C   LIG    1        0.558  -4.115  -0.705  0.00  0.00    -0.049 A 
ATOM      3  C   LIG    1        1.138  -4.560  -1.879  0.00  0.00    +0.006 A 
ATOM      4  C   LIG    1        1.555  -3.653  -2.835  0.00  0.00    +0.035 A 
ATOM      5  C   LIG    1        1.393  -2.298  -2.620  0.00  0.00    +0.142 A 
ATOM      6  C   LIG    1        0.811  -1.847  -1.443  0.00  0.00    +0.058 A 
ATOM      7  C   LIG    1        0.398  -2.762  -0.482  0.00  0.00    +0.028 A 
ENDROOT
BRANCH   5   8
ATOM      8  N   LIG    1        1.841  -1.327  -3.644  0.00  0.00    +0.008 N 
ATOM      9  O   LIG    1        2.249  -1.723  -4.722  0.00  0.00    -0.130 OA
BRANCH   8  10
ATOM     10  O   LIG    1        1.801  -0.133  -3.410  0.00  0.00    -0.396 OA
ATOM     11  H   LIG    1        1.487   0.172  -2.581  0.00  0.00    +0.329 HD
ENDBRANCH   8  10
ENDBRANCH   5   8
BRANCH   6  12
ATOM     12  N   LIG    1        0.646  -0.478  -1.223  0.00  0.00    -0.342 N 
ATOM     13  H   LIG    1        1.008   0.162  -1.856  0.00  0.00    +0.146 HD
BRANCH  12  14
ATOM     14  C   LIG    1       -0.074  -0.008  -0.037  0.00  0.00    +0.101 C 
BRANCH  14  15
ATOM     15  C   LIG    1       -0.112   1.521  -0.036  0.00  0.00    +0.017 C 
BRANCH  15  16
ATOM     16  C   LIG    1       -0.864   2.012   1.203  0.00  0.00    -0.018 C 
BRANCH  16  17
ATOM     17  C   LIG    1       -0.902   3.542   1.204  0.00  0.00    -0.086 C 
BRANCH  17  18
ATOM     18  N   LIG    1       -1.609   4.003   2.412  0.00  0.00    +0.378 N 
ATOM     19  H   LIG    1       -1.095   3.691   3.244  0.00  0.00    -0.090 HD
ATOM     20  H   LIG    1       -2.550   3.614   2.436  0.00  0.00    -0.090 HD
ATOM     21  H   LIG    1       -1.663   5.021   2.417  0.00  0.00    -0.090 HD
ENDBRANCH  17  18
ENDBRANCH  16  17
ENDBRANCH  15  16
ENDBRANCH  14  15
ENDBRANCH  12  14
ENDBRANCH   6  12
TORSDOF 8
