REMARK  Name = ZINC40835971
REMARK                            x       y       z     vdW  Elec       q    Type
REMARK                         _______ _______ _______ _____ _____    ______ ____
ROOT
ATOM      1  C   LIG    1        0.742  -0.511   1.242  0.00  0.00    +0.195 C 
ENDROOT
BRANCH   1   2
ATOM      2  C   LIG    1        0.657  -2.014   1.298  0.00  0.00    -0.005 A 
ATOM      3  C   LIG    1        1.506  -2.784   0.525  0.00  0.00    +0.007 A 
ATOM      4  C   LIG    1        1.428  -4.163   0.577  0.00  0.00    +0.000 A 
ATOM      5  C   LIG    1        0.500  -4.773   1.401  0.00  0.00    +0.000 A 
ATOM      6  C   LIG    1       -0.348  -4.003   2.175  0.00  0.00    +0.000 A 
ATOM      7  C   LIG    1       -0.267  -2.624   2.126  0.00  0.00    +0.007 A 
ENDBRANCH   1   2
BRANCH   1   9
ATOM      8  C   LIG    1       -0.019   1.526   0.010  0.00  0.00    +0.008 C 
ATOM      9  C   LIG    1        0.002  -0.004   0.002  0.00  0.00    +0.049 C 
ENDBRANCH   1   9
BRANCH   1  10
ATOM     10  N   LIG    1        2.148  -0.104   1.172  0.00  0.00    -0.234 N 
ATOM     11  H   LIG    1        2.812  -0.712   0.811  0.00  0.00    +0.291 HD
BRANCH  10  12
ATOM     12  C   LIG    1        2.525   1.136   1.615  0.00  0.00    +0.233 C 
ATOM     13  C   LIG    1        3.970   1.555   1.543  0.00  0.00    +0.139 C 
ATOM     14  N   LIG    1        1.639   1.948   2.096  0.00  0.00    -0.293 N 
ATOM     15  H   LIG    1        1.906   2.826   2.410  0.00  0.00    +0.301 HD
ATOM     16  H   LIG    1        0.709   1.678   2.142  0.00  0.00    +0.301 HD
ENDBRANCH  10  12
ENDBRANCH   1  10
TORSDOF 4
