REMARK  Name = ZINC19796080
REMARK                            x       y       z     vdW  Elec       q    Type
REMARK                         _______ _______ _______ _____ _____    ______ ____
ROOT
ATOM      1  C   LIG    1        4.807  -0.603  -0.049  0.00  0.00    +0.027 C 
ATOM      2  C   LIG    1        5.180   0.647  -0.141  0.00  0.00    +0.010 C 
ATOM      3  C   LIG    1        6.619   1.074  -0.172  0.00  0.00    +0.113 C 
ATOM      4  N   LIG    1        7.482  -0.009   0.316  0.00  0.00    -0.298 NA
ATOM      5  C   LIG    1        7.173  -1.263  -0.392  0.00  0.00    +0.091 C 
ATOM      6  C   LIG    1        5.786  -1.739   0.051  0.00  0.00    +0.069 C 
ENDROOT
BRANCH   1  16
ATOM      7  C   LIG    1        1.200  -4.311   0.603  0.00  0.00    +0.002 A 
ATOM      8  C   LIG    1        2.573  -4.471   0.684  0.00  0.00    +0.002 A 
ATOM      9  C   LIG    1        3.412  -3.392   0.488  0.00  0.00    +0.028 A 
ATOM     10  C   LIG    1        2.877  -2.143   0.207  0.00  0.00    +0.074 A 
ATOM     11  C   LIG    1        1.493  -1.982   0.125  0.00  0.00    +0.067 A 
ATOM     12  N   LIG    1        1.260  -0.640  -0.166  0.00  0.00    -0.306 N 
ATOM     13  C   LIG    1        2.448  -0.013  -0.256  0.00  0.00    +0.332 A 
ATOM     14  O   LIG    1        2.599   1.170  -0.499  0.00  0.00    -0.246 OA
ATOM     15  H   LIG    1        0.390  -0.227  -0.283  0.00  0.00    +0.170 HD
ATOM     16  N   LIG    1        3.443  -0.893  -0.036  0.00  0.00    -0.265 N 
ATOM     17  C   LIG    1        0.658  -3.071   0.324  0.00  0.00    +0.028 A 
ENDBRANCH   1  16
BRANCH   4  18
ATOM     18  C   LIG    1        8.901   0.341   0.171  0.00  0.00    +0.085 C 
BRANCH  18  19
ATOM     19  C   LIG    1        9.233   1.515   1.095  0.00  0.00    +0.023 C 
BRANCH  19  20
ATOM     20  C   LIG    1       10.711   1.880   0.945  0.00  0.00    +0.081 C 
BRANCH  20  21
ATOM     21  C   LIG    1       11.038   3.036   1.855  0.00  0.00    +0.163 C 
ATOM     22  O   LIG    1       10.174   3.519   2.555  0.00  0.00    -0.292 OA
BRANCH  21  23
ATOM     23  C   LIG    1       12.405   3.577   1.894  0.00  0.00    +0.018 A 
ATOM     24  C   LIG    1       13.402   3.025   1.083  0.00  0.00    +0.014 A 
ATOM     25  C   LIG    1       14.681   3.536   1.124  0.00  0.00    +0.039 A 
ATOM     26  C   LIG    1       14.980   4.596   1.968  0.00  0.00    +0.123 A 
ATOM     27  F   LIG    1       16.236   5.092   2.005  0.00  0.00    -0.205 F 
ATOM     28  C   LIG    1       13.996   5.148   2.775  0.00  0.00    +0.039 A 
ATOM     29  C   LIG    1       12.712   4.650   2.738  0.00  0.00    +0.014 A 
ENDBRANCH  21  23
ENDBRANCH  20  21
ENDBRANCH  19  20
ENDBRANCH  18  19
ENDBRANCH   4  18
TORSDOF 6
