REMARK  Name = ZINC34132143
REMARK                            x       y       z     vdW  Elec       q    Type
REMARK                         _______ _______ _______ _____ _____    ______ ____
ROOT
ATOM      1  C   LIG    1        1.635  -3.176  -0.025  0.00  0.00    +0.093 C 
ATOM      2  C   LIG    1        2.978  -2.972  -0.030  0.00  0.00    +0.143 C 
ATOM      3  C   LIG    1        4.002  -4.016  -0.048  0.00  0.00    +0.036 A 
ATOM      4  C   LIG    1        4.002  -5.411  -0.061  0.00  0.00    +0.035 A 
ATOM      5  C   LIG    1        5.210  -6.077  -0.075  0.00  0.00    +0.040 A 
ATOM      6  C   LIG    1        5.220  -7.584  -0.090  0.00  0.00    +0.065 C 
ATOM      7  N   LIG    1        6.360  -5.425  -0.075  0.00  0.00    -0.245 NA
ATOM      8  C   LIG    1        6.426  -4.100  -0.062  0.00  0.00    +0.109 A 
ATOM      9  C   LIG    1        5.248  -3.341  -0.048  0.00  0.00    +0.102 A 
ATOM     10  C   LIG    1        4.935  -1.915  -0.032  0.00  0.00    +0.348 C 
ATOM     11  O   LIG    1        5.748  -1.010  -0.027  0.00  0.00    -0.244 OA
ATOM     12  O   LIG    1        3.598  -1.766  -0.027  0.00  0.00    -0.422 OA
ENDROOT
BRANCH   1  17
ATOM     13  C   LIG    1       -0.018   1.503   0.010  0.00  0.00    +0.086 C 
ATOM     14  C   LIG    1        0.002  -0.004   0.002  0.00  0.00    +0.103 A 
ATOM     15  C   LIG    1       -1.087  -0.803   0.003  0.00  0.00    +0.045 A 
ATOM     16  C   LIG    1       -0.628  -2.131  -0.007  0.00  0.00    +0.049 A 
ATOM     17  C   LIG    1        0.750  -2.070  -0.014  0.00  0.00    +0.132 A 
ATOM     18  O   LIG    1        1.105  -0.768  -0.013  0.00  0.00    -0.460 OA
ENDBRANCH   1  17
BRANCH   8  19
ATOM     19  S   LIG    1        7.993  -3.295  -0.064  0.00  0.00    -0.123 S 
ATOM     20  H   LIG    1        8.982  -4.229  -0.078  0.00  0.00    +0.109 HD
ENDBRANCH   8  19
TORSDOF 2
