REMARK  Name = ZINC18274812
REMARK                            x       y       z     vdW  Elec       q    Type
REMARK                         _______ _______ _______ _____ _____    ______ ____
ROOT
ATOM      1  C   LIG    1        2.905  -1.284  -5.109  0.00  0.00    +0.139 A 
ATOM      2  N   LIG    1        4.252  -1.459  -5.238  0.00  0.00    -0.337 N 
ATOM      3  C   LIG    1        4.481  -1.915  -6.517  0.00  0.00    +0.074 A 
ATOM      4  C   LIG    1        3.242  -2.002  -7.129  0.00  0.00    +0.097 A 
ATOM      5  H   LIG    1        4.922  -1.294  -4.557  0.00  0.00    +0.167 HD
ATOM      6  N   LIG    1        2.317  -1.615  -6.237  0.00  0.00    -0.227 NA
ENDROOT
BRANCH   4   7
ATOM      7  C   LIG    1        2.983  -2.447  -8.519  0.00  0.00    +0.003 A 
ATOM      8  C   LIG    1        3.650  -3.559  -9.033  0.00  0.00    +0.013 A 
ATOM      9  C   LIG    1        3.405  -3.970 -10.326  0.00  0.00    +0.039 A 
ATOM     10  C   LIG    1        2.499  -3.280 -11.115  0.00  0.00    +0.123 A 
ATOM     11  F   LIG    1        2.263  -3.686 -12.382  0.00  0.00    -0.205 F 
ATOM     12  C   LIG    1        1.834  -2.175 -10.609  0.00  0.00    +0.039 A 
ATOM     13  C   LIG    1        2.067  -1.760  -9.315  0.00  0.00    +0.013 A 
ENDBRANCH   4   7
BRANCH   1  17
ATOM     14  C   LIG    1        0.925   0.092  -1.613  0.00  0.00    +0.039 A 
ATOM     15  C   LIG    1        0.189  -0.225  -2.741  0.00  0.00    +0.018 A 
ATOM     16  C   LIG    1        0.826  -0.672  -3.880  0.00  0.00    +0.012 A 
ATOM     17  C   LIG    1        2.216  -0.805  -3.893  0.00  0.00    +0.017 A 
ATOM     18  C   LIG    1        2.951  -0.484  -2.751  0.00  0.00    +0.012 A 
ATOM     19  C   LIG    1        2.303  -0.032  -1.620  0.00  0.00    +0.018 A 
BRANCH  14  21
ATOM     20  C   LIG    1        0.046   2.465  -0.371  0.00  0.00    +0.127 C 
ATOM     21  S   LIG    1        0.103   0.663  -0.162  0.00  0.00    +0.051 S 
ATOM     22  O   LIG    1        1.000   0.337   0.891  0.00  0.00    -0.252 OA
ENDBRANCH  14  21
ENDBRANCH   1  17
BRANCH   3  23
ATOM     23  C   LIG    1        5.788  -2.244  -7.116  0.00  0.00    +0.003 A 
ATOM     24  C   LIG    1        6.140  -1.766  -8.386  0.00  0.00    +0.030 A 
ATOM     25  C   LIG    1        7.372  -2.099  -8.907  0.00  0.00    +0.111 A 
ATOM     26  N   LIG    1        8.213  -2.857  -8.229  0.00  0.00    -0.263 NA
ATOM     27  C   LIG    1        7.922  -3.328  -7.030  0.00  0.00    +0.111 A 
ATOM     28  C   LIG    1        6.716  -3.040  -6.430  0.00  0.00    +0.030 A 
ENDBRANCH   3  23
TORSDOF 4
