REMARK  Name = ZINC26941115
REMARK                            x       y       z     vdW  Elec       q    Type
REMARK                         _______ _______ _______ _____ _____    ______ ____
ROOT
ATOM      1  C   LIG    1       -3.257   3.472   1.398  0.00  0.00    +0.068 C 
ATOM      2  C   LIG    1       -1.820   3.906   1.261  0.00  0.00    +0.071 A 
ATOM      3  C   LIG    1       -0.738   3.095   1.154  0.00  0.00    +0.064 A 
ATOM      4  C   LIG    1        0.357   3.985   1.044  0.00  0.00    +0.363 A 
ATOM      5  O   LIG    1       -0.160   5.223   1.100  0.00  0.00    -0.326 OA
ATOM      6  O   LIG    1        1.533   3.687   0.923  0.00  0.00    -0.243 OA
ATOM      7  N   LIG    1       -1.363   5.185   1.223  0.00  0.00    -0.125 N 
ATOM      8  C   LIG    1       -2.151   6.275   1.306  0.00  0.00    +0.350 C 
ATOM      9  N   LIG    1       -1.599   7.500   1.408  0.00  0.00    -0.281 N 
ATOM     10  C   LIG    1       -0.139   7.665   1.403  0.00  0.00    +0.109 C 
ATOM     11  C   LIG    1        0.276   8.466   2.636  0.00  0.00    +0.019 C 
ATOM     12  C   LIG    1       -0.506   9.781   2.675  0.00  0.00    +0.009 C 
ATOM     13  C   LIG    1       -2.004   9.483   2.771  0.00  0.00    +0.032 C 
ATOM     14  C   LIG    1       -2.445   8.694   1.534  0.00  0.00    +0.115 C 
ATOM     15  O   LIG    1       -3.360   6.153   1.288  0.00  0.00    -0.246 OA
ENDROOT
BRANCH   3  16
ATOM     16  C   LIG    1       -0.709   1.588   1.147  0.00  0.00    +0.022 C 
ATOM     17  C   LIG    1        0.145   1.089   2.315  0.00  0.00    +0.012 C 
ATOM     18  C   LIG    1       -0.108   1.095  -0.171  0.00  0.00    +0.012 C 
ENDBRANCH   3  16
BRANCH  13  19
ATOM     19  C   LIG    1       -2.783  10.798   2.843  0.00  0.00    +0.160 C 
BRANCH  19  20
ATOM     20  O   LIG    1       -4.170  10.520   3.046  0.00  0.00    -0.395 OA
ATOM     21  H   LIG    1       -4.891  11.347   3.123  0.00  0.00    +0.209 HD
ENDBRANCH  19  20
ENDBRANCH  13  19
TORSDOF 3
