REMARK  Name = ZINC17022433
REMARK                            x       y       z     vdW  Elec       q    Type
REMARK                         _______ _______ _______ _____ _____    ______ ____
ROOT
ATOM      1  C   LIG    1        1.411   4.388   0.011  0.00  0.00    +0.115 C 
ATOM      2  C   LIG    1        2.305   4.407   1.252  0.00  0.00    +0.036 C 
ENDROOT
BRANCH   1   9
ATOM      3  C   LIG    1       -1.686   4.285   0.039  0.00  0.00    +0.084 C 
ATOM      4  C   LIG    1       -0.750   3.104   0.025  0.00  0.00    +0.084 A 
ATOM      5  N   LIG    1       -1.107   1.850   0.017  0.00  0.00    -0.350 N 
ATOM      6  H   LIG    1       -2.075   1.508   0.017  0.00  0.00    +0.166 HD
ATOM      7  C   LIG    1       -0.013   1.076   0.008  0.00  0.00    +0.101 A 
ATOM      8  C   LIG    1        1.066   1.882   0.002  0.00  0.00    +0.105 A 
ATOM      9  N   LIG    1        0.599   3.169   0.013  0.00  0.00    -0.329 N 
ENDBRANCH   1   9
BRANCH   1  10
ATOM     10  C   LIG    1        2.270   4.418  -1.227  0.00  0.00    -0.025 A 
ATOM     11  C   LIG    1        3.188   3.411  -1.456  0.00  0.00    +0.005 A 
ATOM     12  C   LIG    1        3.973   3.436  -2.593  0.00  0.00    +0.000 A 
ATOM     13  C   LIG    1        3.846   4.474  -3.498  0.00  0.00    +0.000 A 
ATOM     14  C   LIG    1        2.931   5.484  -3.267  0.00  0.00    +0.000 A 
ATOM     15  C   LIG    1        2.143   5.456  -2.131  0.00  0.00    +0.005 A 
ENDBRANCH   1  10
TORSDOF 2
