REMARK  Name = ZINC28463282
REMARK                            x       y       z     vdW  Elec       q    Type
REMARK                         _______ _______ _______ _____ _____    ______ ____
ROOT
ATOM      1  C   LIG    1       -0.962  -1.033   0.008  0.00  0.00    +0.047 A 
ATOM      2  C   LIG    1        0.002  -0.004   0.003  0.00  0.00    +0.069 A 
ATOM      3  N   LIG    1       -0.016   1.323   0.010  0.00  0.00    -0.336 N 
ATOM      4  H   LIG    1       -0.854   2.035   0.023  0.00  0.00    +0.167 HD
ATOM      5  C   LIG    1        1.240   1.770  -0.001  0.00  0.00    +0.165 A 
ATOM      6  N   LIG    1        2.106   0.770  -0.013  0.00  0.00    -0.224 NA
ATOM      7  C   LIG    1        1.424  -0.385  -0.013  0.00  0.00    +0.108 A 
ATOM      8  C   LIG    1        1.745  -1.730  -0.024  0.00  0.00    +0.140 A 
ATOM      9  N   LIG    1        0.768  -2.649  -0.020  0.00  0.00    -0.261 NA
ATOM     10  C   LIG    1       -0.546  -2.318  -0.004  0.00  0.00    +0.113 A 
ENDROOT
BRANCH   5  11
ATOM     11  C   LIG    1        1.617   3.204   0.001  0.00  0.00    +0.190 A 
ATOM     12  C   LIG    1        2.986   3.733  -0.013  0.00  0.00    +0.191 A 
ATOM     13  N   LIG    1        2.922   5.036  -0.007  0.00  0.00    -0.033 NA
ATOM     14  O   LIG    1        1.554   5.405   0.009  0.00  0.00    -0.240 OA
ATOM     15  N   LIG    1        0.788   4.214   0.009  0.00  0.00    -0.044 NA
BRANCH  12  16
ATOM     16  N   LIG    1        4.151   2.977  -0.029  0.00  0.00    -0.339 N 
ATOM     17  H   LIG    1        4.093   1.878  -0.032  0.00  0.00    +0.144 HD
ATOM     18  H   LIG    1        5.131   3.476  -0.038  0.00  0.00    +0.144 HD
ENDBRANCH  12  16
ENDBRANCH   5  11
TORSDOF 2
