REMARK  Name = ZINC17921108
REMARK                            x       y       z     vdW  Elec       q    Type
REMARK                         _______ _______ _______ _____ _____    ______ ____
ROOT
ATOM      1  N   LIG    1        1.264  -6.261   1.931  0.00  0.00    -0.246 N 
ATOM      2  H   LIG    1        0.760  -6.954   1.478  0.00  0.00    +0.311 HD
ATOM      3  C   LIG    1        1.657  -6.439   3.186  0.00  0.00    +0.245 C 
ATOM      4  C   LIG    1        1.180  -7.640   3.961  0.00  0.00    +0.140 C 
ENDROOT
BRANCH   1   8
ATOM      5  C   LIG    1        2.197  -2.734  -0.056  0.00  0.00    +0.121 A 
ATOM      6  C   LIG    1        1.675  -2.688   1.229  0.00  0.00    +0.050 A 
ATOM      7  C   LIG    1        1.365  -3.858   1.891  0.00  0.00    +0.054 A 
ATOM      8  C   LIG    1        1.575  -5.086   1.269  0.00  0.00    +0.126 A 
ATOM      9  C   LIG    1        2.098  -5.129  -0.021  0.00  0.00    +0.054 A 
ATOM     10  C   LIG    1        2.401  -3.956  -0.680  0.00  0.00    +0.050 A 
BRANCH   5  11
ATOM     11  O   LIG    1        2.502  -1.579  -0.706  0.00  0.00    -0.492 OA
BRANCH  11  13
ATOM     12  C   LIG    1        2.667   0.825  -0.888  0.00  0.00    +0.048 C 
ATOM     13  C   LIG    1        2.266  -0.357  -0.004  0.00  0.00    +0.225 C 
ENDBRANCH  11  13
ENDBRANCH   5  11
ENDBRANCH   1   8
BRANCH   3  14
ATOM     14  N   LIG    1        2.470  -5.560   3.757  0.00  0.00    -0.208 N 
ATOM     15  H   LIG    1        2.422  -4.623   3.510  0.00  0.00    +0.298 HD
BRANCH  14  16
ATOM     16  C   LIG    1        3.385  -5.979   4.707  0.00  0.00    +0.118 A 
ATOM     17  C   LIG    1        3.915  -7.265   4.644  0.00  0.00    +0.052 A 
ATOM     18  C   LIG    1        4.828  -7.681   5.592  0.00  0.00    +0.049 A 
ATOM     19  C   LIG    1        5.217  -6.819   6.607  0.00  0.00    +0.121 A 
ATOM     20  C   LIG    1        4.690  -5.537   6.672  0.00  0.00    +0.049 A 
ATOM     21  C   LIG    1        3.782  -5.114   5.723  0.00  0.00    +0.052 A 
BRANCH  19  22
ATOM     22  O   LIG    1        6.116  -7.231   7.540  0.00  0.00    -0.492 OA
BRANCH  22  23
ATOM     23  C   LIG    1        6.473  -6.293   8.557  0.00  0.00    +0.225 C 
ATOM     24  C   LIG    1        7.487  -6.931   9.508  0.00  0.00    +0.048 C 
ENDBRANCH  22  23
ENDBRANCH  19  22
ENDBRANCH  14  16
ENDBRANCH   3  14
TORSDOF 7
