REMARK  Name = ZINC17986746
REMARK                            x       y       z     vdW  Elec       q    Type
REMARK                         _______ _______ _______ _____ _____    ______ ____
ROOT
ATOM      1  C   LIG    1        0.108  -8.676  -1.965  0.00  0.00    +0.059 A 
ATOM      2  C   LIG    1        0.356  -9.219  -0.701  0.00  0.00    +0.017 A 
ATOM      3  C   LIG    1        0.374 -10.585  -0.532  0.00  0.00    +0.025 A 
ATOM      4  C   LIG    1        0.146 -11.425  -1.617  0.00  0.00    +0.044 A 
ATOM      5  C   LIG    1       -0.100 -10.889  -2.876  0.00  0.00    +0.025 A 
ATOM      6  C   LIG    1       -0.126  -9.523  -3.052  0.00  0.00    +0.017 A 
ENDROOT
BRANCH   4   7
ATOM      7  N   LIG    1        0.166 -12.812  -1.442  0.00  0.00    -0.210 N 
ATOM      8  C   LIG    1        0.086 -13.681  -2.464  0.00  0.00    +0.230 C 
ATOM      9  C   LIG    1       -0.080 -15.081  -1.876  0.00  0.00    +0.088 C 
ATOM     10  C   LIG    1       -1.545 -15.459  -1.974  0.00  0.00    +0.014 C 
ATOM     11  C   LIG    1       -1.957 -16.478  -0.921  0.00  0.00    +0.004 C 
ATOM     12  C   LIG    1       -1.686 -15.881   0.464  0.00  0.00    -0.013 C 
ATOM     13  C   LIG    1       -2.220 -16.823   1.545  0.00  0.00    +0.007 C 
ATOM     14  C   LIG    1       -0.179 -15.715   0.624  0.00  0.00    +0.016 C 
ATOM     15  C   LIG    1        0.455 -14.881  -0.464  0.00  0.00    +0.088 C 
ATOM     16  O   LIG    1        0.136 -13.403  -3.643  0.00  0.00    -0.275 OA
ATOM     17  C   LIG    1        0.274 -13.397  -0.234  0.00  0.00    +0.230 C 
ATOM     18  O   LIG    1        0.231 -12.838   0.841  0.00  0.00    -0.275 OA
ENDBRANCH   4   7
BRANCH   1  19
ATOM     19  C   LIG    1        0.088  -7.213  -2.151  0.00  0.00    +0.340 C 
ATOM     20  O   LIG    1       -0.133  -6.743  -3.249  0.00  0.00    -0.245 OA
BRANCH  19  21
ATOM     21  O   LIG    1        0.314  -6.398  -1.102  0.00  0.00    -0.453 OA
BRANCH  21  22
ATOM     22  C   LIG    1        0.279  -4.992  -1.354  0.00  0.00    +0.311 C 
BRANCH  22  23
ATOM     23  C   LIG    1        0.552  -4.245  -0.073  0.00  0.00    +0.200 C 
ATOM     24  O   LIG    1        0.756  -4.857   0.954  0.00  0.00    -0.288 OA
BRANCH  23  29
ATOM     25  C   LIG    1        0.624   1.503  -0.057  0.00  0.00    +0.044 C 
ATOM     26  C   LIG    1        0.605  -0.004  -0.062  0.00  0.00    -0.047 A 
ATOM     27  C   LIG    1        0.355  -0.686  -1.240  0.00  0.00    +0.004 A 
ATOM     28  C   LIG    1        0.336  -2.064  -1.252  0.00  0.00    +0.012 A 
ATOM     29  C   LIG    1        0.571  -2.773  -0.069  0.00  0.00    +0.021 A 
ATOM     30  C   LIG    1        0.823  -2.077   1.117  0.00  0.00    +0.015 A 
ATOM     31  C   LIG    1        0.844  -0.698   1.111  0.00  0.00    -0.047 A 
ATOM     32  C   LIG    1        1.122   0.054   2.387  0.00  0.00    +0.044 C 
ENDBRANCH  23  29
ENDBRANCH  22  23
ENDBRANCH  21  22
ENDBRANCH  19  21
ENDBRANCH   1  19
TORSDOF 6
