REMARK  Name = ZINC27898231
REMARK                            x       y       z     vdW  Elec       q    Type
REMARK                         _______ _______ _______ _____ _____    ______ ____
ROOT
ATOM      1  C   LIG    1        0.611   6.050   0.026  0.00  0.00    +0.001 A 
ATOM      2  C   LIG    1       -0.771   6.031   0.039  0.00  0.00    +0.001 A 
ATOM      3  C   LIG    1       -1.457   4.827   0.040  0.00  0.00    +0.014 A 
ATOM      4  C   LIG    1       -0.752   3.634   0.027  0.00  0.00    +0.049 A 
ATOM      5  C   LIG    1        0.657   3.653   0.015  0.00  0.00    +0.049 A 
ATOM      6  C   LIG    1        1.081   2.237   0.004  0.00  0.00    +0.254 C 
ATOM      7  N   LIG    1       -0.018   1.461   0.010  0.00  0.00    -0.234 N 
ATOM      8  O   LIG    1        2.229   1.841  -0.009  0.00  0.00    -0.270 OA
ATOM      9  C   LIG    1       -1.137   2.207   0.019  0.00  0.00    +0.254 C 
ATOM     10  O   LIG    1       -2.274   1.779   0.022  0.00  0.00    -0.270 OA
ATOM     11  C   LIG    1        1.330   4.864   0.014  0.00  0.00    +0.014 A 
ENDROOT
BRANCH   7  12
ATOM     12  C   LIG    1        0.002  -0.004   0.002  0.00  0.00    +0.117 C 
BRANCH  12  13
ATOM     13  C   LIG    1        0.023  -0.522   1.442  0.00  0.00    +0.021 C 
BRANCH  13  14
ATOM     14  C   LIG    1        0.043  -2.052   1.433  0.00  0.00    +0.023 C 
BRANCH  14  15
ATOM     15  C   LIG    1        0.064  -2.569   2.873  0.00  0.00    +0.123 C 
BRANCH  15  16
ATOM     16  N   LIG    1        0.084  -4.034   2.865  0.00  0.00    -0.338 N 
ATOM     17  C   LIG    1       -1.006  -4.861   2.876  0.00  0.00    +0.104 A 
ATOM     18  C   LIG    1       -0.538  -6.124   2.859  0.00  0.00    +0.101 A 
ATOM     19  N   LIG    1        0.802  -6.069   2.847  0.00  0.00    -0.352 N 
ATOM     20  H   LIG    1        1.390  -6.998   2.837  0.00  0.00    +0.166 HD
ATOM     21  C   LIG    1        1.182  -4.821   2.850  0.00  0.00    +0.173 A 
ENDBRANCH  15  16
ENDBRANCH  14  15
ENDBRANCH  13  14
ENDBRANCH  12  13
ENDBRANCH   7  12
TORSDOF 5
