REMARK  Name = ZINC45358631
REMARK                            x       y       z     vdW  Elec       q    Type
REMARK                         _______ _______ _______ _____ _____    ______ ____
ROOT
ATOM      1  C   LIG    1        2.640  -4.527  -1.631  0.00  0.00    -0.064 C 
ATOM      2  C   LIG    1        3.801  -3.919  -2.421  0.00  0.00    +0.006 C 
ATOM      3  C   LIG    1        3.741  -4.411  -3.870  0.00  0.00    +0.105 C 
ATOM      4  N   LIG    1        3.715  -5.880  -3.870  0.00  0.00    -0.315 N 
ATOM      5  C   LIG    1        2.694  -6.569  -3.068  0.00  0.00    +0.105 C 
ATOM      6  C   LIG    1        2.766  -6.052  -1.628  0.00  0.00    +0.006 C 
ENDROOT
BRANCH   4   7
ATOM      7  C   LIG    1        4.635  -6.601  -4.610  0.00  0.00    +0.134 A 
ATOM      8  C   LIG    1        4.364  -6.962  -5.939  0.00  0.00    +0.059 A 
ATOM      9  C   LIG    1        3.248  -6.760  -6.860  0.00  0.00    +0.032 A 
ATOM     10  C   LIG    1        3.587  -7.352  -8.017  0.00  0.00    +0.085 A 
ATOM     11  N   LIG    1        4.832  -7.915  -7.903  0.00  0.00    -0.346 N 
ATOM     12  H   LIG    1        5.290  -8.398  -8.608  0.00  0.00    +0.167 HD
ATOM     13  C   LIG    1        5.332  -7.695  -6.649  0.00  0.00    +0.143 A 
ATOM     14  N   LIG    1        6.467  -8.018  -6.031  0.00  0.00    -0.218 NA
ATOM     15  C   LIG    1        6.678  -7.659  -4.783  0.00  0.00    +0.225 A 
ATOM     16  N   LIG    1        5.800  -6.965  -4.082  0.00  0.00    -0.220 NA
ENDBRANCH   4   7
BRANCH   1  17
ATOM     17  N   LIG    1        2.676  -4.030  -0.248  0.00  0.00    +0.382 N 
ATOM     18  H   LIG    1        2.592  -3.025  -0.250  0.00  0.00    -0.089 HD
ATOM     19  H   LIG    1        3.550  -4.295   0.181  0.00  0.00    -0.089 HD
ATOM     20  H   LIG    1        1.910  -4.431   0.273  0.00  0.00    -0.089 HD
ENDBRANCH   1  17
BRANCH   1  21
ATOM     21  C   LIG    1        1.315  -4.126  -2.282  0.00  0.00    +0.022 C 
BRANCH  21  26
ATOM     22  C   LIG    1        0.481  -0.597  -1.220  0.00  0.00    +0.120 A 
ATOM     23  C   LIG    1        0.965   0.135  -2.296  0.00  0.00    +0.045 A 
ATOM     24  C   LIG    1        1.559  -0.515  -3.360  0.00  0.00    +0.004 A 
ATOM     25  C   LIG    1        1.672  -1.893  -3.355  0.00  0.00    +0.004 A 
ATOM     26  C   LIG    1        1.191  -2.624  -2.285  0.00  0.00    -0.045 A 
ATOM     27  C   LIG    1        0.601  -1.978  -1.215  0.00  0.00    +0.049 A 
BRANCH  22  29
ATOM     28  C   LIG    1       -0.192   1.465  -0.246  0.00  0.00    +0.277 C 
ATOM     29  O   LIG    1       -0.103   0.040  -0.172  0.00  0.00    -0.495 OA
ENDBRANCH  22  29
ENDBRANCH  21  26
ENDBRANCH   1  21
TORSDOF 5
