REMARK  Name = ZINC35079607
REMARK                            x       y       z     vdW  Elec       q    Type
REMARK                         _______ _______ _______ _____ _____    ______ ____
ROOT
ATOM      1  C   LIG    1        1.248  -2.358  -2.578  0.00  0.00    +0.061 C 
ATOM      2  C   LIG    1        1.603  -3.654  -2.567  0.00  0.00    +0.013 C 
ATOM      3  C   LIG    1        1.116  -4.543  -1.452  0.00  0.00    +0.061 C 
ATOM      4  N   LIG    1        2.396  -4.181  -3.545  0.00  0.00    -0.331 N 
ATOM      5  H   LIG    1        2.850  -5.025  -3.397  0.00  0.00    +0.147 HD
ATOM      6  C   LIG    1        2.555  -3.509  -4.755  0.00  0.00    +0.144 C 
ATOM      7  C   LIG    1        2.223  -2.166  -4.845  0.00  0.00    +0.053 C 
ATOM      8  C   LIG    1        2.382  -1.517  -6.063  0.00  0.00    +0.062 C 
ATOM      9  C   LIG    1        2.877  -2.242  -7.156  0.00  0.00    +0.023 C 
ATOM     10  C   LIG    1        3.192  -3.567  -6.991  0.00  0.00    +0.060 C 
ATOM     11  C   LIG    1        3.747  -4.409  -8.112  0.00  0.00    +0.019 C 
ATOM     12  C   LIG    1        3.478  -3.750  -9.463  0.00  0.00    +0.002 C 
ATOM     13  C   LIG    1        3.964  -2.297  -9.399  0.00  0.00    +0.000 C 
ATOM     14  C   LIG    1        3.034  -1.521  -8.467  0.00  0.00    +0.006 C 
ATOM     15  N   LIG    1        3.021  -4.154  -5.812  0.00  0.00    -0.295 NA
ATOM     16  H   LIG    1        3.247  -5.093  -5.722  0.00  0.00    +0.124 HD
ATOM     17  C   LIG    1        1.700  -1.416  -3.655  0.00  0.00    +0.065 C 
ENDROOT
BRANCH  17  18
ATOM     18  C   LIG    1        2.794  -0.533  -3.113  0.00  0.00    -0.039 A 
ATOM     19  C   LIG    1        3.968  -1.095  -2.647  0.00  0.00    +0.004 A 
ATOM     20  C   LIG    1        4.972  -0.286  -2.149  0.00  0.00    +0.003 A 
ATOM     21  C   LIG    1        4.802   1.086  -2.119  0.00  0.00    -0.050 A 
ATOM     22  C   LIG    1        5.896   1.969  -1.576  0.00  0.00    +0.044 C 
ATOM     23  C   LIG    1        3.629   1.648  -2.586  0.00  0.00    +0.003 A 
ATOM     24  C   LIG    1        2.627   0.838  -3.087  0.00  0.00    +0.004 A 
ENDBRANCH  17  18
BRANCH   8  25
ATOM     25  N   LIG    1        2.055  -0.170  -6.196  0.00  0.00    -0.327 NA
ATOM     26  H   LIG    1        2.170   0.274  -7.051  0.00  0.00    +0.118 HD
ATOM     27  H   LIG    1        1.713   0.323  -5.434  0.00  0.00    +0.118 HD
ENDBRANCH   8  25
BRANCH   1  28
ATOM     28  C   LIG    1        0.417  -1.869  -1.546  0.00  0.00    +0.337 C 
ATOM     29  O   LIG    1       -0.778  -1.737  -1.737  0.00  0.00    -0.245 OA
BRANCH  28  30
ATOM     30  O   LIG    1        0.949  -1.547  -0.348  0.00  0.00    -0.462 OA
BRANCH  30  32
ATOM     31  C   LIG    1        0.829  -0.748   1.930  0.00  0.00    +0.048 C 
ATOM     32  C   LIG    1        0.050  -1.057   0.650  0.00  0.00    +0.229 C 
ENDBRANCH  30  32
ENDBRANCH  28  30
ENDBRANCH   1  28
TORSDOF 5
