REMARK  Name = ZINC17107058
REMARK                            x       y       z     vdW  Elec       q    Type
REMARK                         _______ _______ _______ _____ _____    ______ ____
ROOT
ATOM      1  C   LIG    1       -0.074   0.029  -0.469  0.00  0.00    +0.141 A 
ATOM      2  N   LIG    1       -0.120   1.338  -0.515  0.00  0.00    -0.332 N 
ATOM      3  C   LIG    1        1.120   1.815  -0.763  0.00  0.00    +0.149 A 
ATOM      4  C   LIG    1        1.683   3.159  -0.922  0.00  0.00    +0.282 A 
ATOM      5  N   LIG    1        3.005   3.277  -1.170  0.00  0.00    -0.262 N 
ATOM      6  C   LIG    1        3.592   4.610  -1.334  0.00  0.00    +0.157 C 
ATOM      7  C   LIG    1        3.790   2.192  -1.268  0.00  0.00    +0.333 A 
ATOM      8  N   LIG    1        3.311   0.943  -1.127  0.00  0.00    -0.280 N 
ATOM      9  C   LIG    1        4.221  -0.199  -1.246  0.00  0.00    +0.155 C 
ATOM     10  O   LIG    1        4.975   2.343  -1.491  0.00  0.00    -0.246 OA
ATOM     11  O   LIG    1        0.975   4.145  -0.835  0.00  0.00    -0.265 OA
ATOM     12  C   LIG    1        1.977   0.724  -0.874  0.00  0.00    +0.168 A 
ATOM     13  H   LIG    1       -0.941   1.894  -0.388  0.00  0.00    +0.168 HD
ATOM     14  N   LIG    1        1.216  -0.387  -0.688  0.00  0.00    -0.210 NA
ENDROOT
BRANCH   1  21
ATOM     15  C   LIG    1       -2.628   1.172   0.264  0.00  0.00    +0.044 C 
ATOM     16  C   LIG    1       -2.466  -0.320   0.134  0.00  0.00    -0.040 A 
ATOM     17  C   LIG    1       -3.541  -1.155   0.359  0.00  0.00    +0.004 A 
ATOM     18  C   LIG    1       -3.392  -2.526   0.246  0.00  0.00    +0.000 A 
ATOM     19  C   LIG    1       -2.166  -3.068  -0.099  0.00  0.00    +0.001 A 
ATOM     20  C   LIG    1       -1.085  -2.244  -0.332  0.00  0.00    +0.012 A 
ATOM     21  C   LIG    1       -1.229  -0.861  -0.220  0.00  0.00    +0.020 A 
ENDBRANCH   1  21
TORSDOF 1
