REMARK  Name = ZINC13836608
REMARK                            x       y       z     vdW  Elec       q    Type
REMARK                         _______ _______ _______ _____ _____    ______ ____
ROOT
ATOM      1  C   LIG    1       -2.415   0.659  -0.050  0.00  0.00    +0.048 C 
ENDROOT
BRANCH   1   2
ATOM      2  C   LIG    1       -3.811   1.271  -0.190  0.00  0.00    +0.043 C 
BRANCH   2   6
ATOM      3  C   LIG    1       -6.672  -1.837  -0.822  0.00  0.00    -0.042 A 
ATOM      4  C   LIG    1       -6.458  -1.343   0.452  0.00  0.00    +0.004 A 
ATOM      5  C   LIG    1       -5.532  -0.337   0.656  0.00  0.00    +0.004 A 
ATOM      6  C   LIG    1       -4.820   0.174  -0.413  0.00  0.00    -0.047 A 
ATOM      7  C   LIG    1       -5.037  -0.316  -1.687  0.00  0.00    +0.004 A 
ATOM      8  C   LIG    1       -5.960  -1.325  -1.890  0.00  0.00    +0.004 A 
BRANCH   3  10
ATOM      9  C   LIG    1       -9.038  -2.501  -0.488  0.00  0.00    +0.015 C 
ATOM     10  C   LIG    1       -7.680  -2.935  -1.044  0.00  0.00    -0.013 C 
ATOM     11  C   LIG    1       -7.218  -4.205  -0.328  0.00  0.00    +0.015 C 
ATOM     12  C   LIG    1       -7.809  -3.213  -2.543  0.00  0.00    +0.015 C 
ENDBRANCH   3  10
ENDBRANCH   2   6
ENDBRANCH   1   2
BRANCH   1  13
ATOM     13  C   LIG    1       -2.361  -0.201   1.214  0.00  0.00    +0.237 C 
BRANCH  13  14
ATOM     14  O   LIG    1       -1.087  -0.896   1.272  0.00  0.00    -0.464 OA
BRANCH  14  15
ATOM     15  C   LIG    1       -0.921  -1.783   2.266  0.00  0.00    +0.313 C 
ATOM     16  O   LIG    1       -1.841  -2.041   3.005  0.00  0.00    -0.250 OA
BRANCH  15  17
ATOM     17  C   LIG    1        0.413  -2.457   2.460  0.00  0.00    +0.059 C 
ATOM     18  C   LIG    1        1.456  -1.415   2.868  0.00  0.00    +0.022 C 
ATOM     19  C   LIG    1        0.842  -3.124   1.151  0.00  0.00    +0.022 C 
ATOM     20  C   LIG    1        0.294  -3.517   3.557  0.00  0.00    +0.022 C 
ENDBRANCH  15  17
ENDBRANCH  14  15
ENDBRANCH  13  14
ENDBRANCH   1  13
BRANCH   1  21
ATOM     21  C   LIG    1       -1.376   1.777   0.049  0.00  0.00    +0.111 C 
BRANCH  21  22
ATOM     22  N   LIG    1       -0.032   1.195   0.064  0.00  0.00    -0.315 N 
ATOM     23  H   LIG    1        0.081   0.233   0.014  0.00  0.00    +0.149 HD
ATOM     24  C   LIG    1        1.050   1.996   0.140  0.00  0.00    +0.217 C 
ATOM     25  O   LIG    1        0.909   3.199   0.203  0.00  0.00    -0.275 OA
BRANCH  24  26
ATOM     26  C   LIG    1        2.432   1.397   0.149  0.00  0.00    +0.131 C 
BRANCH  26  27
ATOM     27  C   LIG    1        3.457   2.498   0.240  0.00  0.00    -0.035 A 
ATOM     28  C   LIG    1        3.965   3.065  -0.913  0.00  0.00    +0.008 A 
ATOM     29  C   LIG    1        4.901   4.080  -0.835  0.00  0.00    +0.049 A 
ATOM     30  C   LIG    1        5.339   4.524   0.403  0.00  0.00    +0.158 A 
ATOM     31  C   LIG    1        4.831   3.949   1.564  0.00  0.00    +0.162 A 
ATOM     32  C   LIG    1        3.889   2.937   1.478  0.00  0.00    +0.053 A 
BRANCH  30  33
ATOM     33  O   LIG    1        6.263   5.518   0.482  0.00  0.00    -0.503 OA
ATOM     34  H   LIG    1        7.178   5.205   0.492  0.00  0.00    +0.292 HD
ENDBRANCH  30  33
BRANCH  31  35
ATOM     35  O   LIG    1        5.257   4.382   2.781  0.00  0.00    -0.491 OA
ATOM     36  C   LIG    1        4.692   3.747   3.930  0.00  0.00    +0.277 C 
ENDBRANCH  31  35
ENDBRANCH  26  27
ENDBRANCH  24  26
ENDBRANCH  21  22
ENDBRANCH   1  21
TORSDOF 13
