REMARK  Name = ZINC15799433
REMARK                            x       y       z     vdW  Elec       q    Type
REMARK                         _______ _______ _______ _____ _____    ______ ____
ROOT
ATOM      1  C   LIG    1        3.267  -3.595  -1.171  0.00  0.00    +0.064 C 
ATOM      2  C   LIG    1        3.504  -2.853  -2.328  0.00  0.00    +0.105 C 
ATOM      3  C   LIG    1        2.536  -1.850  -2.812  0.00  0.00    +0.276 C 
ATOM      4  O   LIG    1        1.496  -1.643  -2.209  0.00  0.00    -0.268 OA
ATOM      5  N   LIG    1        2.828  -1.171  -3.934  0.00  0.00    -0.127 NA
ATOM      6  C   LIG    1        3.937  -1.376  -4.600  0.00  0.00    +0.286 C 
ATOM      7  N   LIG    1        4.883  -2.279  -4.227  0.00  0.00    -0.192 N 
ATOM      8  C   LIG    1        4.732  -3.031  -3.117  0.00  0.00    +0.264 C 
ATOM      9  O   LIG    1        5.583  -3.835  -2.781  0.00  0.00    -0.269 OA
ENDROOT
BRANCH   7  10
ATOM     10  C   LIG    1        6.040  -2.426  -5.007  0.00  0.00    +0.049 A 
ATOM     11  C   LIG    1        6.977  -1.404  -5.058  0.00  0.00    +0.028 A 
ATOM     12  C   LIG    1        8.117  -1.547  -5.826  0.00  0.00    +0.051 A 
ATOM     13  C   LIG    1        8.327  -2.712  -6.547  0.00  0.00    +0.166 A 
ATOM     14  C   LIG    1        7.388  -3.739  -6.497  0.00  0.00    +0.168 A 
ATOM     15  O   LIG    1        7.823  -4.766  -7.285  0.00  0.00    -0.453 OA
ATOM     16  C   LIG    1        8.833  -4.195  -8.138  0.00  0.00    +0.466 C 
ATOM     17  O   LIG    1        9.351  -3.095  -7.366  0.00  0.00    -0.453 OA
ATOM     18  C   LIG    1        6.249  -3.596  -5.723  0.00  0.00    +0.073 A 
ENDBRANCH   7  10
BRANCH   1  22
ATOM     19  C   LIG    1       -0.163  -3.435  -0.262  0.00  0.00    +0.139 A 
ATOM     20  C   LIG    1        0.404  -3.480   0.997  0.00  0.00    +0.050 A 
ATOM     21  C   LIG    1        1.783  -3.547   0.822  0.00  0.00    +0.050 A 
ATOM     22  C   LIG    1        2.014  -3.540  -0.550  0.00  0.00    +0.129 A 
ATOM     23  O   LIG    1        0.819  -3.477  -1.178  0.00  0.00    -0.455 OA
BRANCH  19  29
ATOM     24  C   LIG    1       -2.096  -2.397  -1.447  0.00  0.00    +0.133 A 
ATOM     25  C   LIG    1       -3.454  -2.339  -1.717  0.00  0.00    +0.079 A 
ATOM     26  C   LIG    1       -4.321  -3.222  -1.103  0.00  0.00    +0.125 A 
ATOM     27  C   LIG    1       -3.842  -4.171  -0.214  0.00  0.00    +0.033 A 
ATOM     28  C   LIG    1       -2.495  -4.243   0.067  0.00  0.00    +0.017 A 
ATOM     29  C   LIG    1       -1.606  -3.360  -0.552  0.00  0.00    +0.059 A 
BRANCH  24  31
ATOM     30  C   LIG    1       -1.815  -0.577  -2.949  0.00  0.00    +0.277 C 
ATOM     31  O   LIG    1       -1.243  -1.530  -2.050  0.00  0.00    -0.494 OA
ENDBRANCH  24  31
BRANCH  26  32
ATOM     32  N   LIG    1       -5.770  -3.154  -1.396  0.00  0.00    +0.006 N 
ATOM     33  O   LIG    1       -6.192  -2.328  -2.171  0.00  0.00    -0.130 OA
BRANCH  32  34
ATOM     34  O   LIG    1       -6.532  -3.925  -0.861  0.00  0.00    -0.396 OA
ATOM     35  H   LIG    1       -6.205  -4.566  -0.260  0.00  0.00    +0.329 HD
ENDBRANCH  32  34
ENDBRANCH  26  32
ENDBRANCH  19  29
ENDBRANCH   1  22
BRANCH   6  36
ATOM     36  O   LIG    1        4.152  -0.652  -5.716  0.00  0.00    -0.483 OA
ATOM     37  H   LIG    1        3.517  -0.022  -5.996  0.00  0.00    +0.295 HD
ENDBRANCH   6  36
TORSDOF 7
