REMARK  Name = ZINC13831242
REMARK                            x       y       z     vdW  Elec       q    Type
REMARK                         _______ _______ _______ _____ _____    ______ ____
ROOT
ATOM      1  C   UNK    1        0.052   1.466  -0.736  0.00  0.00    +0.027 A 
ATOM      2  C   UNK    1        1.272   2.106  -0.652  0.00  0.00    +0.048 A 
ATOM      3  C   UNK    1        2.364   1.450  -0.101  0.00  0.00    +0.129 A 
ATOM      4  C   UNK    1        2.229   0.150   0.366  0.00  0.00    +0.048 A 
ATOM      5  C   UNK    1        1.009  -0.491   0.282  0.00  0.00    +0.027 A 
ATOM      6  C   UNK    1       -0.083   0.166  -0.269  0.00  0.00    +0.034 A 
ENDROOT
BRANCH   6   7
ATOM      7  N   UNK    1       -1.321  -0.484  -0.354  0.00  0.00    -0.286 N 
ATOM      8  H   UNK    1       -2.142   0.019  -0.240  0.00  0.00    +0.155 HD
ATOM      9  C   UNK    1       -1.372  -1.810  -0.594  0.00  0.00    +0.216 C 
ATOM     10  O   UNK    1       -0.346  -2.456  -0.647  0.00  0.00    -0.276 OA
BRANCH   9  11
ATOM     11  C   UNK    1       -2.702  -2.489  -0.797  0.00  0.00    +0.091 C 
BRANCH  11  12
ATOM     12  C   UNK    1       -2.479  -3.981  -1.050  0.00  0.00    +0.044 C 
BRANCH  12  13
ATOM     13  N   UNK    1       -1.754  -4.160  -2.316  0.00  0.00    +0.387 N 
ATOM     14  H   UNK    1       -1.607  -5.144  -2.483  0.00  0.00    -0.089 HD
ATOM     15  H   UNK    1       -0.862  -3.691  -2.261  0.00  0.00    -0.089 HD
ATOM     16  H   UNK    1       -2.295  -3.768  -3.071  0.00  0.00    -0.089 HD
ENDBRANCH  12  13
BRANCH  12  17
ATOM     17  C   UNK    1       -3.811  -4.681  -1.131  0.00  0.00    +0.291 C 
ATOM     18  O   UNK    1       -4.377  -4.792  -2.205  0.00  0.00    -0.253 OA
BRANCH  17  19
ATOM     19  O   UNK    1       -4.322  -5.137  -0.123  0.00  0.00    -0.482 OA
ATOM     20  H   UNK    1       -3.887  -5.052   0.703  0.00  0.00    +0.295 HD
ENDBRANCH  17  19
ENDBRANCH  12  17
ENDBRANCH  11  12
ENDBRANCH   9  11
ENDBRANCH   6   7
BRANCH   3  21
ATOM     21  O   UNK    1        3.565   2.081  -0.018  0.00  0.00    -0.455 OA
BRANCH  21  22
ATOM     22  C   UNK    1        3.740   2.994   0.974  0.00  0.00    +0.145 A 
ATOM     23  C   UNK    1        2.714   3.247   1.873  0.00  0.00    +0.088 A 
ATOM     24  C   UNK    1        2.894   4.176   2.882  0.00  0.00    +0.162 A 
ATOM     25  F   UNK    1        1.895   4.423   3.758  0.00  0.00    -0.202 F 
ATOM     26  C   UNK    1        4.099   4.853   2.995  0.00  0.00    +0.160 A 
ATOM     27  F   UNK    1        4.274   5.760   3.980  0.00  0.00    -0.202 F 
ATOM     28  C   UNK    1        5.122   4.601   2.098  0.00  0.00    +0.060 A 
ATOM     29  C   UNK    1        4.947   3.668   1.092  0.00  0.00    +0.063 A 
ATOM     30 BR   UNK    1        6.349   3.318  -0.127  0.00  0.00    -0.046 Br
ENDBRANCH  21  22
ENDBRANCH   3  21
TORSDOF 8
