REMARK  Name = ZINC18207215
REMARK                            x       y       z     vdW  Elec       q    Type
REMARK                         _______ _______ _______ _____ _____    ______ ____
ROOT
ATOM      1  N   LIG    1       -1.413  -1.998   0.005  0.00  0.00    -0.276 N 
ATOM      2  C   LIG    1       -1.421  -2.664  -1.165  0.00  0.00    +0.334 A 
ATOM      3  O   LIG    1       -1.444  -2.035  -2.205  0.00  0.00    -0.246 OA
ATOM      4  N   LIG    1       -1.399  -4.008  -1.213  0.00  0.00    -0.259 N 
ATOM      5  C   LIG    1       -1.378  -4.743  -0.082  0.00  0.00    +0.282 A 
ATOM      6  O   LIG    1       -1.363  -5.959  -0.138  0.00  0.00    -0.265 OA
ATOM      7  C   LIG    1       -1.375  -4.085   1.167  0.00  0.00    +0.149 A 
ATOM      8  N   LIG    1       -1.356  -4.504   2.483  0.00  0.00    -0.336 N 
ATOM      9  C   LIG    1       -1.363  -3.396   3.249  0.00  0.00    +0.116 A 
ATOM     10  N   LIG    1       -1.385  -2.332   2.486  0.00  0.00    -0.214 NA
ATOM     11  H   LIG    1       -1.341  -5.422   2.796  0.00  0.00    +0.167 HD
ATOM     12  C   LIG    1       -1.393  -2.696   1.201  0.00  0.00    +0.168 A 
ENDROOT
BRANCH   9  13
ATOM     13  C   LIG    1       -1.349  -3.382   4.755  0.00  0.00    +0.032 C 
ATOM     14  C   LIG    1       -0.383  -4.430   5.383  0.00  0.00    +0.018 C 
ATOM     15  C   LIG    1       -0.121  -3.794   6.777  0.00  0.00    -0.009 C 
ATOM     16  C   LIG    1       -1.439  -3.784   7.556  0.00  0.00    +0.007 C 
ATOM     17  C   LIG    1       -2.586  -3.098   6.810  0.00  0.00    -0.009 C 
ATOM     18  C   LIG    1       -2.131  -1.671   6.400  0.00  0.00    +0.008 C 
ATOM     19  C   LIG    1        0.236  -2.344   6.349  0.00  0.00    +0.008 C 
ATOM     20  C   LIG    1       -0.953  -2.006   5.365  0.00  0.00    +0.003 C 
ATOM     21  C   LIG    1       -2.721  -3.740   5.399  0.00  0.00    +0.018 C 
ENDBRANCH   9  13
BRANCH   1  22
ATOM     22  C   LIG    1       -1.433  -0.534   0.013  0.00  0.00    +0.128 C 
BRANCH  22  24
ATOM     23  C   LIG    1       -0.019   1.526   0.010  0.00  0.00    +0.005 C 
ATOM     24  C   LIG    1        0.002  -0.004   0.002  0.00  0.00    +0.018 C 
ENDBRANCH  22  24
ENDBRANCH   1  22
BRANCH   4  25
ATOM     25  C   LIG    1       -1.402  -4.683  -2.513  0.00  0.00    +0.130 C 
BRANCH  25  26
ATOM     26  C   LIG    1       -2.846  -4.938  -2.951  0.00  0.00    +0.018 C 
ATOM     27  C   LIG    1       -2.849  -5.644  -4.309  0.00  0.00    +0.005 C 
ENDBRANCH  25  26
ENDBRANCH   4  25
TORSDOF 5
