REMARK  Name = ZINC27305632
REMARK                            x       y       z     vdW  Elec       q    Type
REMARK                         _______ _______ _______ _____ _____    ______ ____
ROOT
ATOM      1  C   LIG    1       -1.284   3.173   0.227  0.00  0.00    +0.033 A 
ATOM      2  C   LIG    1       -1.291   1.793   0.416  0.00  0.00    +0.024 A 
ATOM      3  C   LIG    1       -0.118   1.117   0.596  0.00  0.00    +0.018 A 
ATOM      4  C   LIG    1        1.098   1.808   0.580  0.00  0.00    +0.072 A 
ATOM      5  C   LIG    1        1.109   3.195   0.383  0.00  0.00    +0.137 A 
ATOM      6  F   LIG    1        2.280   3.868   0.366  0.00  0.00    -0.205 F 
ATOM      7  C   LIG    1       -0.082   3.870   0.208  0.00  0.00    +0.062 A 
ENDROOT
BRANCH   4   8
ATOM      8  C   LIG    1        2.365   1.078   0.767  0.00  0.00    +0.247 C 
ATOM      9  N   LIG    1        2.352  -0.256   0.955  0.00  0.00    -0.298 N 
ATOM     10  H   LIG    1        1.397  -0.801   0.969  0.00  0.00    +0.150 HD
ATOM     11  O   LIG    1        3.421   1.680   0.752  0.00  0.00    -0.270 OA
BRANCH   9  12
ATOM     12  CA  LIG    1        3.611  -0.982   1.142  0.00  0.00    +0.182 C 
BRANCH  12  13
ATOM     13  C   LIG    1        4.199  -1.322  -0.203  0.00  0.00    +0.325 C 
ATOM     14  O   LIG    1        3.625  -0.993  -1.214  0.00  0.00    -0.249 OA
BRANCH  13  15
ATOM     15  OXT LIG    1        5.360  -1.991  -0.278  0.00  0.00    -0.479 OA
ATOM     16  HXT LIG    1        5.805  -2.247   0.506  0.00  0.00    +0.295 HD
ENDBRANCH  13  15
ENDBRANCH  12  13
BRANCH  12  17
ATOM     17  C   LIG    1        3.347  -2.270   1.924  0.00  0.00    +0.041 C 
BRANCH  17  18
ATOM     18  C   LIG    1        2.868  -1.921   3.335  0.00  0.00    +0.080 C 
BRANCH  18  19
ATOM     19  C   LIG    1        2.607  -3.190   4.105  0.00  0.00    +0.149 A 
ATOM     20  N   LIG    1        3.484  -3.857   4.855  0.00  0.00    -0.114 NA
ATOM     21  N   LIG    1        2.872  -4.883   5.341  0.00  0.00    -0.023 NA
ATOM     22  N   LIG    1        1.657  -4.880   4.914  0.00  0.00    -0.047 NA
ATOM     23  N   LIG    1        1.476  -3.848   4.165  0.00  0.00    -0.243 N 
ATOM     24  H   LIG    1        0.636  -3.597   3.717  0.00  0.00    +0.192 HD
ENDBRANCH  18  19
ENDBRANCH  17  18
ENDBRANCH  12  17
ENDBRANCH   9  12
ENDBRANCH   4   8
BRANCH   1  25
ATOM     25  N   LIG    1       -2.484   3.854   0.050  0.00  0.00    -0.314 N 
BRANCH  25  26
ATOM     26  C   LIG    1       -3.752   3.121   0.069  0.00  0.00    +0.141 C 
BRANCH  26  40
ATOM     27  C   LIG    1       -6.114   1.575   0.623  0.00  0.00    +0.044 C 
ATOM     28  C   LIG    1       -5.356   2.205   1.762  0.00  0.00    -0.044 A 
ATOM     29  C   LIG    1       -5.787   2.015   3.042  0.00  0.00    +0.032 A 
ATOM     30  C   LIG    1       -5.100   2.624   4.101  0.00  0.00    +0.078 A 
ATOM     31  N   LIG    1       -5.500   2.496   5.374  0.00  0.00    -0.234 NA
ATOM     32  C   LIG    1       -4.830   3.075   6.342  0.00  0.00    +0.107 A 
ATOM     33  C   LIG    1       -5.317   2.902   7.757  0.00  0.00    +0.086 C 
ATOM     34  N   LIG    1       -3.745   3.804   6.130  0.00  0.00    -0.311 N 
ATOM     35  H   LIG    1       -3.218   4.264   6.979  0.00  0.00    +0.170 HD
ATOM     36  C   LIG    1       -3.268   3.998   4.911  0.00  0.00    +0.259 A 
ATOM     37  O   LIG    1       -2.159   4.745   4.710  0.00  0.00    -0.267 OA
ATOM     38  C   LIG    1       -3.947   3.399   3.824  0.00  0.00    +0.065 A 
ATOM     39  C   LIG    1       -3.515   3.551   2.502  0.00  0.00    +0.020 A 
ATOM     40  C   LIG    1       -4.217   2.958   1.494  0.00  0.00    -0.026 A 
ENDBRANCH  26  40
ENDBRANCH  25  26
BRANCH  25  41
ATOM     41  C   LIG    1       -2.479   5.304  -0.156  0.00  0.00    +0.194 C 
BRANCH  41  42
ATOM     42  C   LIG    1       -2.261   5.597  -1.582  0.00  0.00    -0.086 C 
ATOM     43  C   LIG    1       -2.087   5.830  -2.719  0.00  0.00    +0.005 C 
ENDBRANCH  41  42
ENDBRANCH  25  41
ENDBRANCH   1  25
TORSDOF 12
