REMARK  Name = ZINC00014360
REMARK                            x       y       z     vdW  Elec       q    Type
REMARK                         _______ _______ _______ _____ _____    ______ ____
ROOT
ATOM      1  C   LIG    1        0.352  -1.147   3.903  0.00  0.00    -0.024 A 
ATOM      2  C   LIG    1       -0.078  -2.427   4.228  0.00  0.00    +0.007 A 
ATOM      3  C   LIG    1        0.447  -3.089   5.316  0.00  0.00    +0.026 A 
ATOM      4  C   LIG    1        1.419  -2.473   6.097  0.00  0.00    +0.047 A 
ATOM      5  C   LIG    1        1.852  -1.177   5.763  0.00  0.00    +0.003 A 
ATOM      6  C   LIG    1        2.861  -0.817   6.761  0.00  0.00    -0.024 A 
ATOM      7  C   LIG    1        2.975  -1.860   7.598  0.00  0.00    +0.087 A 
ATOM      8  N   LIG    1        2.121  -2.859   7.216  0.00  0.00    -0.360 N 
ATOM      9  H   LIG    1        2.025  -3.712   7.667  0.00  0.00    +0.165 HD
ATOM     10  C   LIG    1        1.309  -0.525   4.653  0.00  0.00    +0.015 A 
ENDROOT
BRANCH   1  11
ATOM     11  C   LIG    1       -0.238  -0.442   2.709  0.00  0.00    +0.220 C 
BRANCH  11  12
ATOM     12  S   LIG    1        0.742  -0.829   1.233  0.00  0.00    +0.033 S 
ATOM     13  O   LIG    1        2.033  -0.245   1.335  0.00  0.00    -0.158 OA
ATOM     14  O   LIG    1        0.592  -2.200   0.891  0.00  0.00    -0.158 OA
BRANCH  12  16
ATOM     15  C   LIG    1       -0.018   1.461   0.010  0.00  0.00    +0.127 C 
ATOM     16  N   LIG    1        0.002  -0.004   0.002  0.00  0.00    -0.197 NA
ATOM     17  H   LIG    1       -0.418  -0.491  -0.724  0.00  0.00    +0.147 HD
ENDBRANCH  12  16
ENDBRANCH  11  12
ENDBRANCH   1  11
BRANCH   6  18
ATOM     18  C   LIG    1        3.627   0.479   6.835  0.00  0.00    +0.018 C 
BRANCH  18  19
ATOM     19  C   LIG    1        2.799   1.518   7.594  0.00  0.00    -0.075 C 
BRANCH  19  20
ATOM     20  N   LIG    1        3.546   2.781   7.666  0.00  0.00    +0.376 N 
ATOM     21  H   LIG    1        4.453   2.613   8.075  0.00  0.00    -0.083 HD
ATOM     22  C   LIG    1        2.805   3.741   8.496  0.00  0.00    -0.097 C 
ATOM     23  C   LIG    1        3.712   3.330   6.314  0.00  0.00    -0.097 C 
ENDBRANCH  19  20
ENDBRANCH  18  19
ENDBRANCH   6  18
TORSDOF 6
