REMARK  Name = ZINC15224794
REMARK                            x       y       z     vdW  Elec       q    Type
REMARK                         _______ _______ _______ _____ _____    ______ ____
ROOT
ATOM      1  C   LIG    1        0.020   1.483  -0.411  0.00  0.00    +0.082 A 
ATOM      2  C   LIG    1       -1.148   2.158  -0.628  0.00  0.00    +0.077 A 
ATOM      3  S   LIG    1       -0.584   3.849  -0.494  0.00  0.00    -0.059 S 
ATOM      4  C   LIG    1        1.137   3.486  -0.174  0.00  0.00    +0.178 A 
ATOM      5  N   LIG    1        1.134   2.165  -0.192  0.00  0.00    -0.224 NA
ENDROOT
BRANCH   1   8
ATOM      6  C   LIG    1       -1.109  -2.094  -0.672  0.00  0.00    +0.021 A 
ATOM      7  C   LIG    1       -1.135  -0.714  -0.652  0.00  0.00    +0.013 A 
ATOM      8  C   LIG    1        0.041  -0.000  -0.427  0.00  0.00    +0.019 A 
ATOM      9  C   LIG    1        1.236  -0.686  -0.210  0.00  0.00    +0.052 A 
ATOM     10 CL   LIG    1        2.704   0.195   0.080  0.00  0.00    -0.083 Cl
ATOM     11  C   LIG    1        1.250  -2.067  -0.226  0.00  0.00    +0.040 A 
ATOM     12  C   LIG    1        0.080  -2.770  -0.456  0.00  0.00    +0.042 A 
ATOM     13 CL   LIG    1        0.103  -4.505  -0.475  0.00  0.00    -0.083 Cl
ENDBRANCH   1   8
BRANCH   4  14
ATOM     14  N   LIG    1        2.193   4.357   0.036  0.00  0.00    -0.215 N 
ATOM     15  H   LIG    1        3.083   4.010   0.199  0.00  0.00    +0.176 HD
BRANCH  14  16
ATOM     16  N   LIG    1        1.974   5.741   0.013  0.00  0.00    -0.190 NA
ATOM     17  C   LIG    1        2.964   6.547   0.104  0.00  0.00    +0.037 C 
ATOM     18  C   LIG    1        4.387   6.033   0.096  0.00  0.00    +0.052 C 
ATOM     19  C   LIG    1        5.177   6.816  -0.964  0.00  0.00    +0.006 C 
ATOM     20  C   LIG    1        5.051   8.314  -0.685  0.00  0.00    +0.001 C 
ATOM     21  C   LIG    1        3.592   8.748  -0.831  0.00  0.00    +0.006 C 
ATOM     22  C   LIG    1        2.742   8.038   0.228  0.00  0.00    +0.052 C 
ENDBRANCH  14  16
ENDBRANCH   4  14
TORSDOF 3
