REMARK  Name = ZINC22937852
REMARK                            x       y       z     vdW  Elec       q    Type
REMARK                         _______ _______ _______ _____ _____    ______ ____
ROOT
ATOM      1  C   LIG    1        0.422  -0.007  -0.867  0.00  0.00    +0.048 C 
ATOM      2  C   LIG    1       -0.499  -0.644  -1.929  0.00  0.00    +0.002 C 
ATOM      3  C   LIG    1       -1.135  -1.818  -1.155  0.00  0.00    -0.036 C 
ATOM      4  C   LIG    1       -1.103  -1.397   0.299  0.00  0.00    -0.057 A 
ATOM      5  C   LIG    1       -1.800  -1.887   1.391  0.00  0.00    +0.014 A 
ATOM      6  C   LIG    1       -1.605  -1.338   2.643  0.00  0.00    +0.055 A 
ATOM      7  C   LIG    1       -0.710  -0.298   2.809  0.00  0.00    +0.012 A 
ATOM      8  C   LIG    1       -0.013   0.192   1.721  0.00  0.00    +0.005 A 
ATOM      9  C   LIG    1       -0.208  -0.356   0.465  0.00  0.00    -0.038 A 
ENDROOT
BRANCH   1  16
ATOM     10  C   LIG    1       -0.699   2.225  -1.017  0.00  0.00    +0.007 A 
ATOM     11  C   LIG    1       -0.656   3.598  -1.177  0.00  0.00    +0.038 A 
ATOM     12  C   LIG    1        0.558   4.233  -1.376  0.00  0.00    +0.123 A 
ATOM     13  F   LIG    1        0.601   5.574  -1.536  0.00  0.00    -0.205 F 
ATOM     14  C   LIG    1        1.728   3.493  -1.409  0.00  0.00    +0.038 A 
ATOM     15  C   LIG    1        1.683   2.122  -1.244  0.00  0.00    +0.007 A 
ATOM     16  C   LIG    1        0.470   1.488  -1.046  0.00  0.00    -0.040 A 
ENDBRANCH   1  16
BRANCH   3  17
ATOM     17  N   LIG    1       -2.521  -2.029  -1.594  0.00  0.00    +0.386 N 
ATOM     18  H   LIG    1       -2.965  -2.801  -0.948  0.00  0.00    -0.081 HD
ATOM     19  C   LIG    1       -2.566  -2.516  -2.979  0.00  0.00    -0.062 C 
ATOM     20  C   LIG    1       -4.019  -2.798  -3.371  0.00  0.00    +0.066 C 
ATOM     21  N   LIG    1       -4.811  -1.570  -3.221  0.00  0.00    -0.304 NA
ATOM     22  C   LIG    1       -4.766  -1.083  -1.835  0.00  0.00    +0.066 C 
ATOM     23  C   LIG    1       -3.314  -0.801  -1.444  0.00  0.00    -0.062 C 
BRANCH  21  24
ATOM     24  C   LIG    1       -6.197  -1.780  -3.660  0.00  0.00    +0.112 C 
BRANCH  24  25
ATOM     25  C   LIG    1       -6.849  -0.429  -3.957  0.00  0.00    +0.171 C 
BRANCH  25  26
ATOM     26  O   LIG    1       -6.167   0.202  -5.043  0.00  0.00    -0.394 OA
ATOM     27  H   LIG    1       -6.496   1.188  -5.400  0.00  0.00    +0.209 HD
ENDBRANCH  25  26
ENDBRANCH  24  25
ENDBRANCH  21  24
ENDBRANCH   3  17
BRANCH   6  28
ATOM     28  C   LIG    1       -2.367  -1.874   3.828  0.00  0.00    +0.417 C 
ATOM     29  F   LIG    1       -2.066  -3.229   4.003  0.00  0.00    -0.166 F 
ATOM     30  F   LIG    1       -3.740  -1.726   3.605  0.00  0.00    -0.166 F 
ATOM     31  F   LIG    1       -2.002  -1.163   4.977  0.00  0.00    -0.166 F 
ENDBRANCH   6  28
TORSDOF 6
