REMARK  Name = ZINC13809288
REMARK                            x       y       z     vdW  Elec       q    Type
REMARK                         _______ _______ _______ _____ _____    ______ ____
ROOT
ATOM      1  C   LIG    1       -4.191  -0.205  -1.162  0.00  0.00    +0.000 A 
ATOM      2  C   LIG    1       -4.718  -0.649   0.037  0.00  0.00    +0.002 A 
ATOM      3  C   LIG    1       -4.097  -0.326   1.227  0.00  0.00    +0.023 A 
ATOM      4  C   LIG    1       -2.942   0.446   1.220  0.00  0.00    +0.035 A 
ATOM      5  C   LIG    1       -2.415   0.890   0.013  0.00  0.00    -0.016 A 
ATOM      6  C   LIG    1       -3.045   0.568  -1.173  0.00  0.00    +0.006 A 
ENDROOT
BRANCH   4   7
ATOM      7  N   LIG    1       -2.311   0.775   2.422  0.00  0.00    -0.313 N 
ATOM      8  H   LIG    1       -1.514   1.327   2.416  0.00  0.00    +0.152 HD
BRANCH   7   9
ATOM      9  C   LIG    1       -2.829   0.308   3.633  0.00  0.00    +0.051 A 
ATOM     10  C   LIG    1       -3.564   1.158   4.449  0.00  0.00    +0.044 A 
ATOM     11  C   LIG    1       -4.080   0.691   5.644  0.00  0.00    +0.043 A 
ATOM     12 CL   LIG    1       -5.004   1.750   6.662  0.00  0.00    -0.083 Cl
ATOM     13  C   LIG    1       -3.855  -0.618   6.032  0.00  0.00    +0.021 A 
ATOM     14  C   LIG    1       -3.118  -1.465   5.225  0.00  0.00    +0.023 A 
ATOM     15  C   LIG    1       -2.605  -1.007   4.026  0.00  0.00    +0.062 A 
ATOM     16 CL   LIG    1       -1.681  -2.071   3.013  0.00  0.00    -0.082 Cl
ENDBRANCH   7   9
ENDBRANCH   4   7
BRANCH   5  17
ATOM     17  C   LIG    1       -1.162   1.728  -0.001  0.00  0.00    +0.157 C 
BRANCH  17  18
ATOM     18  C   LIG    1        0.045   0.826   0.028  0.00  0.00    +0.309 C 
ATOM     19  O   LIG    1       -0.098  -0.374   0.056  0.00  0.00    -0.251 OA
BRANCH  18  20
ATOM     20  O   LIG    1        1.278   1.355   0.016  0.00  0.00    -0.480 OA
ATOM     21  H   LIG    1        1.389   2.285  -0.006  0.00  0.00    +0.295 HD
ENDBRANCH  18  20
ENDBRANCH  17  18
ENDBRANCH   5  17
TORSDOF 5
