REMARK  Name = ZINC19723714
REMARK                            x       y       z     vdW  Elec       q    Type
REMARK                         _______ _______ _______ _____ _____    ______ ____
ROOT
ATOM      1  C   LIG    1        2.539   3.639  -0.004  0.00  0.00    +0.119 A 
ATOM      2  C   LIG    1        3.301   2.534  -0.016  0.00  0.00    +0.114 A 
ATOM      3  N   LIG    1        2.507   1.420  -0.014  0.00  0.00    -0.347 N 
ATOM      4  C   LIG    1        1.181   1.790   0.000  0.00  0.00    +0.051 A 
ATOM      5  C   LIG    1       -0.013   1.076   0.008  0.00  0.00    +0.026 A 
ATOM      6  C   LIG    1       -1.214   1.751   0.017  0.00  0.00    +0.002 A 
ATOM      7  C   LIG    1       -1.246   3.138   0.030  0.00  0.00    +0.001 A 
ATOM      8  C   LIG    1       -0.085   3.860   0.023  0.00  0.00    +0.012 A 
ATOM      9  C   LIG    1        1.143   3.196   0.008  0.00  0.00    +0.025 A 
ENDROOT
BRANCH   1  10
ATOM     10  S   LIG    1        3.110   5.306  -0.001  0.00  0.00    +0.027 S 
ATOM     11  O   LIG    1        4.530   5.249  -0.042  0.00  0.00    -0.164 OA
ATOM     12  O   LIG    1        2.404   5.976   1.034  0.00  0.00    -0.164 OA
BRANCH  10  16
ATOM     13  C   LIG    1        1.778   7.183  -3.899  0.00  0.00    +0.000 A 
ATOM     14  C   LIG    1        0.960   7.246  -2.786  0.00  0.00    +0.002 A 
ATOM     15  C   LIG    1        1.367   6.672  -1.596  0.00  0.00    +0.027 A 
ATOM     16  C   LIG    1        2.592   6.036  -1.518  0.00  0.00    +0.094 A 
ATOM     17  C   LIG    1        3.412   5.979  -2.629  0.00  0.00    +0.027 A 
ATOM     18  C   LIG    1        3.003   6.548  -3.821  0.00  0.00    +0.002 A 
ENDBRANCH  10  16
ENDBRANCH   1  10
BRANCH   3  19
ATOM     19  C   LIG    1        2.995   0.038  -0.025  0.00  0.00    +0.102 C 
BRANCH  19  20
ATOM     20  C   LIG    1        3.032  -0.478  -1.465  0.00  0.00    -0.065 C 
BRANCH  20  21
ATOM     21  N   LIG    1        3.522  -1.863  -1.476  0.00  0.00    +0.379 N 
ATOM     22  H   LIG    1        4.534  -1.898  -1.048  0.00  0.00    -0.090 HD
ATOM     23  H   LIG    1        2.849  -2.494  -0.877  0.00  0.00    -0.090 HD
ATOM     24  H   LIG    1        3.549  -2.234  -2.511  0.00  0.00    -0.090 HD
ENDBRANCH  20  21
ENDBRANCH  19  20
ENDBRANCH   3  19
TORSDOF 5
