REMARK  Name = ZINC28226478
REMARK                            x       y       z     vdW  Elec       q    Type
REMARK                         _______ _______ _______ _____ _____    ______ ____
ROOT
ATOM      1  C   LIG    1       -0.017   1.386   0.010  0.00  0.00    +0.042 A 
ATOM      2  C   LIG    1        1.166   2.095   0.002  0.00  0.00    +0.078 A 
ATOM      3  C   LIG    1        2.384   1.422  -0.013  0.00  0.00    +0.044 A 
ATOM      4  C   LIG    1        2.412   0.036  -0.022  0.00  0.00    +0.051 A 
ATOM      5  C   LIG    1        1.223  -0.682  -0.014  0.00  0.00    +0.071 A 
ATOM      6  N   LIG    1        1.259  -2.074  -0.022  0.00  0.00    -0.291 N 
ATOM      7  C   LIG    1        0.111  -2.781  -0.014  0.00  0.00    +0.317 A 
ATOM      8  O   LIG    1        0.139  -3.995  -0.022  0.00  0.00    -0.262 OA
ATOM      9  C   LIG    1       -1.192  -2.058   0.002  0.00  0.00    +0.314 A 
ATOM     10  O   LIG    1       -2.237  -2.677   0.008  0.00  0.00    -0.262 OA
ATOM     11  N   LIG    1       -1.200  -0.709   0.010  0.00  0.00    -0.316 N 
ATOM     12  H   LIG    1       -2.043  -0.230   0.020  0.00  0.00    +0.169 HD
ATOM     13  C   LIG    1        0.002  -0.004   0.002  0.00  0.00    +0.067 A 
ENDROOT
BRANCH   3  14
ATOM     14  N   LIG    1        3.581   2.144  -0.022  0.00  0.00    -0.325 N 
ATOM     15  C   LIG    1        4.245   2.524   1.236  0.00  0.00    +0.133 C 
ATOM     16  C   LIG    1        5.716   2.101   1.152  0.00  0.00    +0.178 C 
ATOM     17  O   LIG    1        6.288   2.622  -0.051  0.00  0.00    -0.377 OA
ATOM     18  C   LIG    1        5.686   2.123  -1.248  0.00  0.00    +0.178 C 
ATOM     19  C   LIG    1        4.216   2.543  -1.287  0.00  0.00    +0.133 C 
ENDBRANCH   3  14
BRANCH   2  20
ATOM     20  C   LIG    1        1.140   3.602   0.011  0.00  0.00    +0.419 C 
ATOM     21  F   LIG    1        1.781   4.085  -1.135  0.00  0.00    -0.166 F 
ATOM     22  F   LIG    1        1.803   4.073   1.149  0.00  0.00    -0.166 F 
ATOM     23  F   LIG    1       -0.186   4.045   0.026  0.00  0.00    -0.166 F 
ENDBRANCH   2  20
BRANCH   6  24
ATOM     24  C   LIG    1        2.548  -2.771  -0.040  0.00  0.00    +0.252 C 
BRANCH  24  25
ATOM     25  P   LIG    1        3.100  -3.071   1.672  0.00  0.00    +0.347 P 
ATOM     26  O   LIG    1        3.135  -1.732   2.443  0.00  0.00    -0.257 OA
BRANCH  25  27
ATOM     27  O   LIG    1        4.574  -3.718   1.655  0.00  0.00    -0.323 OA
ATOM     28  H   LIG    1        4.932  -3.905   2.533  0.00  0.00    +0.220 HD
ENDBRANCH  25  27
BRANCH  25  29
ATOM     29  O   LIG    1        2.119  -4.041   2.367  0.00  0.00    -0.323 OA
ATOM     30  H   LIG    1        1.231  -3.651   2.378  0.00  0.00    +0.220 HD
ENDBRANCH  25  29
ENDBRANCH  24  25
ENDBRANCH   6  24
TORSDOF 6
