REMARK  Name = ZINC00073661
REMARK                            x       y       z     vdW  Elec       q    Type
REMARK                         _______ _______ _______ _____ _____    ______ ____
ROOT
ATOM      1  N   LIG    1        1.219  -2.073   0.138  0.00  0.00    -0.269 N 
ATOM      2  H   LIG    1        2.048  -2.532  -0.067  0.00  0.00    +0.156 HD
ATOM      3  C   LIG    1        0.071  -2.771   0.251  0.00  0.00    +0.308 C 
ATOM      4  N   LIG    1        0.092  -4.117   0.183  0.00  0.00    -0.269 N 
ATOM      5  H   LIG    1        0.939  -4.587   0.128  0.00  0.00    +0.156 HD
ATOM      6  O   LIG    1       -0.982  -2.187   0.415  0.00  0.00    -0.252 OA
ENDROOT
BRANCH   1  11
ATOM      7  C   LIG    1        2.089   1.484  -0.235  0.00  0.00    +0.003 A 
ATOM      8  C   LIG    1        1.217   2.070   0.660  0.00  0.00    +0.016 A 
ATOM      9  C   LIG    1        0.333   1.278   1.393  0.00  0.00    +0.063 A 
ATOM     10  C   LIG    1        0.334  -0.105   1.219  0.00  0.00    +0.039 A 
ATOM     11  C   LIG    1        1.214  -0.684   0.317  0.00  0.00    +0.036 A 
ATOM     12  C   LIG    1        2.090   0.113  -0.409  0.00  0.00    +0.023 A 
BRANCH   9  13
ATOM     13  C   LIG    1       -0.602   1.904   2.354  0.00  0.00    +0.271 C 
ATOM     14  N   LIG    1       -1.022   1.288   3.447  0.00  0.00    -0.272 N 
ATOM     15  H   LIG    1       -0.766   0.393   3.720  0.00  0.00    +0.304 HD
ATOM     16  C   LIG    1       -1.936   2.176   4.183  0.00  0.00    +0.276 C 
ATOM     17  C   LIG    1       -1.980   3.447   3.311  0.00  0.00    +0.268 C 
ATOM     18  N   LIG    1       -1.081   3.126   2.192  0.00  0.00    -0.233 N 
ATOM     19  H   LIG    1       -0.875   3.716   1.450  0.00  0.00    +0.291 HD
ENDBRANCH   9  13
ENDBRANCH   1  11
BRANCH   4  20
ATOM     20  C   LIG    1       -1.108  -4.837   0.191  0.00  0.00    +0.036 A 
ATOM     21  C   LIG    1       -2.245  -4.299  -0.401  0.00  0.00    +0.023 A 
ATOM     22  C   LIG    1       -3.432  -5.006  -0.395  0.00  0.00    +0.003 A 
ATOM     23  C   LIG    1       -3.497  -6.250   0.199  0.00  0.00    +0.016 A 
ATOM     24  C   LIG    1       -2.362  -6.798   0.796  0.00  0.00    +0.063 A 
ATOM     25  C   LIG    1       -1.162  -6.088   0.785  0.00  0.00    +0.039 A 
BRANCH  24  26
ATOM     26  C   LIG    1       -2.429  -8.132   1.434  0.00  0.00    +0.271 C 
ATOM     27  N   LIG    1       -1.672  -8.470   2.464  0.00  0.00    -0.272 N 
ATOM     28  H   LIG    1       -1.018  -7.895   2.893  0.00  0.00    +0.304 HD
ATOM     29  C   LIG    1       -1.979  -9.853   2.859  0.00  0.00    +0.276 C 
ATOM     30  C   LIG    1       -3.073 -10.277   1.857  0.00  0.00    +0.268 C 
ATOM     31  N   LIG    1       -3.254  -9.080   1.022  0.00  0.00    -0.233 N 
ATOM     32  H   LIG    1       -3.879  -8.999   0.284  0.00  0.00    +0.291 HD
ENDBRANCH  24  26
ENDBRANCH   4  20
TORSDOF 4
