REMARK  Name = ZINC29135065
REMARK                            x       y       z     vdW  Elec       q    Type
REMARK                         _______ _______ _______ _____ _____    ______ ____
ROOT
ATOM      1  C   LIG    1        3.902  -2.666  -0.049  0.00  0.00    +0.015 A 
ATOM      2  C   LIG    1        4.789  -3.726  -0.062  0.00  0.00    +0.036 A 
ATOM      3  C   LIG    1        4.298  -5.023  -0.064  0.00  0.00    +0.109 A 
ATOM      4 BR   LIG    1        5.513  -6.472  -0.083  0.00  0.00    -0.029 Br
ATOM      5  N   LIG    1        3.004  -5.270  -0.053  0.00  0.00    -0.222 NA
ATOM      6  C   LIG    1        2.108  -4.291  -0.040  0.00  0.00    +0.140 A 
ATOM      7  N   LIG    1        0.733  -4.278  -0.027  0.00  0.00    -0.345 N 
ATOM      8  H   LIG    1        0.174  -5.226  -0.030  0.00  0.00    +0.167 HD
ATOM      9  C   LIG    1        0.270  -2.997  -0.010  0.00  0.00    +0.095 A 
ATOM     10  C   LIG    1        1.316  -2.131  -0.021  0.00  0.00    +0.027 A 
ATOM     11  C   LIG    1        2.537  -2.951  -0.037  0.00  0.00    +0.028 A 
ENDROOT
BRANCH  10  12
ATOM     12  C   LIG    1        1.242  -0.654  -0.013  0.00  0.00    +0.078 A 
ATOM     13  C   LIG    1        0.002  -0.004   0.002  0.00  0.00    +0.048 A 
ATOM     14  C   LIG    1       -0.017   1.377   0.010  0.00  0.00    +0.116 A 
ATOM     15  N   LIG    1        1.130   2.042   0.002  0.00  0.00    -0.223 NA
ATOM     16  C   LIG    1        2.290   1.401  -0.012  0.00  0.00    +0.213 A 
ATOM     17  N   LIG    1        2.355   0.079  -0.020  0.00  0.00    -0.215 NA
BRANCH  16  18
ATOM     18  N   LIG    1        3.464   2.134  -0.019  0.00  0.00    -0.327 N 
ATOM     19  H   LIG    1        3.426   3.233  -0.013  0.00  0.00    +0.145 HD
ATOM     20  H   LIG    1        4.435   1.617  -0.031  0.00  0.00    +0.145 HD
ENDBRANCH  16  18
ENDBRANCH  10  12
TORSDOF 2
