REMARK  Name = ZINC56965850
REMARK                            x       y       z     vdW  Elec       q    Type
REMARK                         _______ _______ _______ _____ _____    ______ ____
ROOT
ATOM      1  C   LIG    1        2.014  -6.420  -0.063  0.00  0.00    +0.103 C 
ENDROOT
BRANCH   1   5
ATOM      2  N   LIG    1       -0.075  -2.780  -0.013  0.00  0.00    -0.325 N 
ATOM      3  C   LIG    1        0.571  -3.196   1.241  0.00  0.00    +0.120 C 
ATOM      4  C   LIG    1        0.835  -4.704   1.175  0.00  0.00    +0.103 C 
ATOM      5  N   LIG    1        1.591  -5.013  -0.046  0.00  0.00    -0.298 NA
ATOM      6  C   LIG    1        0.818  -4.681  -1.250  0.00  0.00    +0.103 C 
ATOM      7  C   LIG    1        0.549  -3.177  -1.283  0.00  0.00    +0.120 C 
BRANCH   2  13
ATOM      8  C   LIG    1       -1.201  -0.638   0.010  0.00  0.00    +0.141 A 
ATOM      9  C   LIG    1       -2.374   0.099   0.019  0.00  0.00    +0.047 A 
ATOM     10  C   LIG    1       -3.597  -0.547   0.028  0.00  0.00    +0.004 A 
ATOM     11  C   LIG    1       -3.653  -1.928   0.027  0.00  0.00    +0.002 A 
ATOM     12  C   LIG    1       -2.487  -2.671   0.017  0.00  0.00    +0.027 A 
ATOM     13  C   LIG    1       -1.257  -2.030   0.003  0.00  0.00    +0.072 A 
BRANCH   8  15
ATOM     14  C   LIG    1       -0.017   1.425   0.010  0.00  0.00    +0.277 C 
ATOM     15  O   LIG    1        0.002  -0.004   0.002  0.00  0.00    -0.493 OA
ENDBRANCH   8  15
ENDBRANCH   2  13
ENDBRANCH   1   5
BRANCH   1  16
ATOM     16  C   LIG    1        2.999  -6.643  -1.211  0.00  0.00    +0.120 C 
BRANCH  16  17
ATOM     17  N   LIG    1        3.420  -8.046  -1.228  0.00  0.00    -0.310 N 
ATOM     18  H   LIG    1        3.071  -8.665  -0.568  0.00  0.00    +0.149 HD
ATOM     19  C   LIG    1        4.293  -8.477  -2.160  0.00  0.00    +0.244 C 
ATOM     20  O   LIG    1        4.731  -7.701  -2.987  0.00  0.00    -0.270 OA
BRANCH  19  21
ATOM     21  C   LIG    1        4.718  -9.892  -2.176  0.00  0.00    +0.037 A 
ATOM     22  C   LIG    1        4.204 -10.786  -1.220  0.00  0.00    +0.013 A 
ATOM     23  C   LIG    1        4.578 -12.091  -1.215  0.00  0.00    +0.009 A 
ATOM     24  C   LIG    1        5.493 -12.564  -2.174  0.00  0.00    -0.018 A 
ATOM     25  C   LIG    1        5.895 -13.910  -2.188  0.00  0.00    +0.008 A 
ATOM     26  C   LIG    1        6.781 -14.340  -3.128  0.00  0.00    +0.001 A 
ATOM     27  C   LIG    1        7.299 -13.463  -4.080  0.00  0.00    +0.001 A 
ATOM     28  C   LIG    1        6.932 -12.153  -4.098  0.00  0.00    +0.008 A 
ATOM     29  C   LIG    1        6.019 -11.673  -3.143  0.00  0.00    -0.017 A 
ATOM     30  C   LIG    1        5.615 -10.329  -3.137  0.00  0.00    +0.021 A 
ENDBRANCH  19  21
ENDBRANCH  16  17
ENDBRANCH   1  16
TORSDOF 6
