REMARK  Name = ZINC13759728
REMARK                            x       y       z     vdW  Elec       q    Type
REMARK                         _______ _______ _______ _____ _____    ______ ____
ROOT
ATOM      1  C   LIG    1        0.595   2.611   2.479  0.00  0.00    +0.048 C 
ATOM      2  C   LIG    1       -0.807   3.088   2.199  0.00  0.00    -0.001 A 
ATOM      3  C   LIG    1       -1.196   3.352   0.912  0.00  0.00    +0.014 A 
ATOM      4  C   LIG    1       -2.497   3.796   0.641  0.00  0.00    +0.107 A 
ATOM      5  C   LIG    1       -2.620   3.992  -0.809  0.00  0.00    +0.343 C 
ATOM      6  O   LIG    1       -1.462   3.690  -1.421  0.00  0.00    -0.456 OA
ATOM      7  O   LIG    1       -3.625   4.374  -1.376  0.00  0.00    -0.245 OA
ATOM      8  C   LIG    1       -3.401   3.969   1.701  0.00  0.00    +0.138 A 
ATOM      9  C   LIG    1       -2.998   3.700   2.997  0.00  0.00    +0.040 A 
ATOM     10  C   LIG    1       -0.493   3.272  -0.420  0.00  0.00    +0.269 C 
ATOM     11  C   LIG    1       -1.706   3.261   3.249  0.00  0.00    +0.127 A 
ENDROOT
BRANCH   8  12
ATOM     12  O   LIG    1       -4.664   4.399   1.456  0.00  0.00    -0.506 OA
ATOM     13  H   LIG    1       -5.297   3.687   1.294  0.00  0.00    +0.292 HD
ENDBRANCH   8  12
BRANCH  11  14
ATOM     14  O   LIG    1       -1.317   2.999   4.523  0.00  0.00    -0.506 OA
ATOM     15  H   LIG    1       -1.471   2.086   4.801  0.00  0.00    +0.292 HD
ENDBRANCH  11  14
BRANCH   9  16
ATOM     16  C   LIG    1       -3.964   3.884   4.138  0.00  0.00    +0.069 C 
BRANCH  16  17
ATOM     17  C   LIG    1       -4.715   2.599   4.373  0.00  0.00    -0.023 C 
ATOM     18  C   LIG    1       -4.741   2.064   5.568  0.00  0.00    -0.076 C 
ATOM     19  C   LIG    1       -3.911   2.658   6.677  0.00  0.00    +0.039 C 
BRANCH  18  20
ATOM     20  C   LIG    1       -5.600   0.855   5.834  0.00  0.00    +0.041 C 
BRANCH  20  21
ATOM     21  C   LIG    1       -4.757  -0.413   5.684  0.00  0.00    +0.125 C 
BRANCH  21  22
ATOM     22  C   LIG    1       -5.616  -1.622   5.950  0.00  0.00    +0.305 C 
ATOM     23  O   LIG    1       -6.783  -1.484   6.231  0.00  0.00    -0.251 OA
BRANCH  22  24
ATOM     24  O   LIG    1       -5.085  -2.853   5.874  0.00  0.00    -0.481 OA
ATOM     25  H   LIG    1       -4.180  -2.960   5.656  0.00  0.00    +0.295 HD
ENDBRANCH  22  24
ENDBRANCH  21  22
ENDBRANCH  20  21
ENDBRANCH  18  20
ENDBRANCH  16  17
ENDBRANCH   9  16
TORSDOF 8
