REMARK  Name = ZINC66352145
REMARK                            x       y       z     vdW  Elec       q    Type
REMARK                         _______ _______ _______ _____ _____    ______ ____
ROOT
ATOM      1  C   LIG    1        0.292   1.280  -0.124  0.00  0.00    +0.043 C 
ATOM      2  C   LIG    1        0.065  -0.229  -0.010  0.00  0.00    +0.149 C 
ENDROOT
BRANCH   2   3
ATOM      3  C   LIG    1        0.694  -0.738   1.261  0.00  0.00    +0.020 A 
ATOM      4  C   LIG    1        0.085  -0.496   2.479  0.00  0.00    +0.048 A 
ATOM      5 CL   LIG    1       -1.405   0.393   2.543  0.00  0.00    -0.083 Cl
ATOM      6  C   LIG    1        0.662  -0.962   3.647  0.00  0.00    +0.023 A 
ATOM      7  C   LIG    1        1.848  -1.671   3.597  0.00  0.00    +0.041 A 
ATOM      8  C   LIG    1        2.459  -1.913   2.379  0.00  0.00    +0.142 A 
ATOM      9  F   LIG    1        3.618  -2.605   2.330  0.00  0.00    -0.204 F 
ATOM     10  C   LIG    1        1.878  -1.450   1.209  0.00  0.00    +0.083 A 
ATOM     11 CL   LIG    1        2.639  -1.760  -0.320  0.00  0.00    -0.080 Cl
ENDBRANCH   2   3
BRANCH   2  12
ATOM     12  O   LIG    1       -1.339  -0.499   0.012  0.00  0.00    -0.366 OA
BRANCH  12  13
ATOM     13  C   LIG    1       -1.966  -0.607  -1.190  0.00  0.00    +0.150 C 
ATOM     14  C   LIG    1       -1.281  -0.346  -2.367  0.00  0.00    +0.036 C 
ATOM     15  C   LIG    1       -1.963  -0.470  -3.571  0.00  0.00    +0.018 C 
ATOM     16  C   LIG    1       -3.291  -0.846  -3.561  0.00  0.00    +0.082 C 
ATOM     17  N   LIG    1       -3.919  -1.088  -2.425  0.00  0.00    -0.299 NA
ATOM     18  H   LIG    1       -4.853  -1.351  -2.449  0.00  0.00    +0.123 HD
ATOM     19  C   LIG    1       -3.307  -0.988  -1.257  0.00  0.00    +0.148 C 
BRANCH  19  20
ATOM     20  N   LIG    1       -4.007  -1.259  -0.085  0.00  0.00    -0.313 NA
ATOM     21  H   LIG    1       -4.939  -1.524  -0.127  0.00  0.00    +0.120 HD
ATOM     22  H   LIG    1       -3.563  -1.183   0.774  0.00  0.00    +0.120 HD
ENDBRANCH  19  20
ENDBRANCH  12  13
ENDBRANCH   2  12
TORSDOF 4
