REMARK  Name = ZINC49018570
REMARK                            x       y       z     vdW  Elec       q    Type
REMARK                         _______ _______ _______ _____ _____    ______ ____
ROOT
ATOM      1  C   LIG    1        0.648  -2.014   1.286  0.00  0.00    -0.049 A 
ATOM      2  C   LIG    1       -0.411  -2.622   1.935  0.00  0.00    +0.004 A 
ATOM      3  C   LIG    1       -0.490  -3.999   1.992  0.00  0.00    +0.015 A 
ATOM      4  C   LIG    1        0.497  -4.775   1.397  0.00  0.00    +0.013 A 
ATOM      5  C   LIG    1        1.560  -4.161   0.745  0.00  0.00    +0.015 A 
ATOM      6  C   LIG    1        1.629  -2.784   0.688  0.00  0.00    +0.004 A 
ENDROOT
BRANCH   1   7
ATOM      7  C   LIG    1        0.731  -0.511   1.226  0.00  0.00    +0.018 C 
BRANCH   7   9
ATOM      8  C   LIG    1       -0.022   1.520  -0.019  0.00  0.00    -0.014 C 
ATOM      9  C   LIG    1        0.003  -0.009  -0.022  0.00  0.00    -0.074 C 
BRANCH   9  10
ATOM     10  N   LIG    1        0.704  -0.485  -1.222  0.00  0.00    +0.380 N 
ATOM     11  H   LIG    1        0.224  -0.155  -2.046  0.00  0.00    -0.090 HD
ATOM     12  H   LIG    1        0.720  -1.494  -1.224  0.00  0.00    -0.090 HD
ATOM     13  H   LIG    1        1.650  -0.134  -1.220  0.00  0.00    -0.090 HD
ENDBRANCH   9  10
ENDBRANCH   7   9
ENDBRANCH   1   7
BRANCH   4  14
ATOM     14  S   LIG    1        0.401  -6.533   1.467  0.00  0.00    -0.089 S 
BRANCH  14  15
ATOM     15  C   LIG    1       -0.987  -6.843   2.509  0.00  0.00    +0.013 A 
ATOM     16  C   LIG    1       -2.239  -7.069   1.951  0.00  0.00    +0.015 A 
ATOM     17  C   LIG    1       -3.324  -7.312   2.771  0.00  0.00    +0.001 A 
ATOM     18  C   LIG    1       -3.165  -7.329   4.144  0.00  0.00    +0.000 A 
ATOM     19  C   LIG    1       -1.920  -7.104   4.702  0.00  0.00    +0.001 A 
ATOM     20  C   LIG    1       -0.830  -6.867   3.889  0.00  0.00    +0.015 A 
ENDBRANCH  14  15
ENDBRANCH   4  14
TORSDOF 5
