REMARK  Name = ZINC18207215
REMARK                            x       y       z     vdW  Elec       q    Type
REMARK                         _______ _______ _______ _____ _____    ______ ____
ROOT
ATOM      1  N   LIG    1        1.364   4.610  -4.196  0.00  0.00    -0.278 N 
ATOM      2  C   LIG    1        1.693   4.031  -2.980  0.00  0.00    +0.146 A 
ATOM      3  N   LIG    1        1.089   3.142  -2.185  0.00  0.00    -0.329 N 
ATOM      4  H   LIG    1        0.183   2.698  -2.375  0.00  0.00    +0.168 HD
ATOM      5  C   LIG    1        1.829   2.925  -1.126  0.00  0.00    +0.093 A 
ATOM      6  N   LIG    1        2.955   3.661  -1.197  0.00  0.00    -0.337 N 
ATOM      7  H   LIG    1        3.694   3.684  -0.524  0.00  0.00    +0.167 HD
ATOM      8  C   LIG    1        2.893   4.380  -2.374  0.00  0.00    +0.147 A 
ATOM      9  C   LIG    1        3.741   5.310  -3.013  0.00  0.00    +0.282 A 
ATOM     10  N   LIG    1        3.366   5.840  -4.196  0.00  0.00    -0.259 N 
ATOM     11  O   LIG    1        4.799   5.632  -2.502  0.00  0.00    -0.265 OA
ATOM     12  C   LIG    1        2.201   5.494  -4.771  0.00  0.00    +0.334 A 
ATOM     13  O   LIG    1        1.896   5.991  -5.838  0.00  0.00    -0.246 OA
ENDROOT
BRANCH   5  14
ATOM     14  C   LIG    1        1.476   1.986  -0.001  0.00  0.00    +0.030 C 
ATOM     15  C   LIG    1        1.754   2.545   1.426  0.00  0.00    +0.018 C 
ATOM     16  C   LIG    1        0.764   1.703   2.276  0.00  0.00    -0.009 C 
ATOM     17  C   LIG    1        1.178   0.231   2.197  0.00  0.00    +0.007 C 
ATOM     18  C   LIG    1        1.328  -0.287   0.764  0.00  0.00    -0.009 C 
ATOM     19  C   LIG    1        0.002  -0.004   0.002  0.00  0.00    +0.008 C 
ATOM     20  C   LIG    1       -0.535   1.889   1.441  0.00  0.00    +0.008 C 
ATOM     21  C   LIG    1       -0.019   1.553   0.011  0.00  0.00    +0.003 C 
ATOM     22  C   LIG    1        2.289   0.657  -0.009  0.00  0.00    +0.018 C 
ENDBRANCH   5  14
BRANCH   1  23
ATOM     23  C   LIG    1        0.104   4.260  -4.855  0.00  0.00    +0.128 C 
BRANCH  23  25
ATOM     24  C   LIG    1       -2.313   4.850  -5.082  0.00  0.00    +0.005 C 
ATOM     25  C   LIG    1       -0.997   5.216  -4.393  0.00  0.00    +0.018 C 
ENDBRANCH  23  25
ENDBRANCH   1  23
BRANCH  10  26
ATOM     26  C   LIG    1        4.241   6.807  -4.863  0.00  0.00    +0.130 C 
BRANCH  26  27
ATOM     27  C   LIG    1        3.883   8.221  -4.402  0.00  0.00    +0.018 C 
ATOM     28  C   LIG    1        4.796   9.231  -5.100  0.00  0.00    +0.005 C 
ENDBRANCH  26  27
ENDBRANCH  10  26
TORSDOF 5
