REMARK  Name = ZINC13986542
REMARK                            x       y       z     vdW  Elec       q    Type
REMARK                         _______ _______ _______ _____ _____    ______ ____
ROOT
ATOM      1  C   LIG    1       -4.718   2.266   1.360  0.00  0.00    +0.221 C 
ENDROOT
BRANCH   1   2
ATOM      2  C   LIG    1       -4.076   2.096   0.008  0.00  0.00    +0.246 C 
ATOM      3  N   LIG    1       -2.925   1.404  -0.110  0.00  0.00    -0.299 N 
ATOM      4  C   LIG    1       -2.339   1.144  -1.432  0.00  0.00    +0.109 C 
ATOM      5  C   LIG    1       -0.886   1.629  -1.431  0.00  0.00    +0.041 C 
ATOM      6  C   LIG    1       -0.134   0.972  -0.270  0.00  0.00    +0.080 C 
ATOM      7  C   LIG    1       -0.781   1.382   1.055  0.00  0.00    +0.041 C 
ATOM      8  C   LIG    1       -2.233   0.895   1.082  0.00  0.00    +0.109 C 
ATOM      9  O   LIG    1       -4.594   2.582  -0.975  0.00  0.00    -0.273 OA
BRANCH   6  10
ATOM     10  N   LIG    1        1.264   1.408  -0.286  0.00  0.00    -0.282 N 
ATOM     11  C   LIG    1        2.325   0.409  -0.430  0.00  0.00    +0.111 C 
ATOM     12  C   LIG    1        3.589   0.914   0.273  0.00  0.00    +0.038 C 
ATOM     13  C   LIG    1        3.952   2.287  -0.301  0.00  0.00    +0.107 C 
ATOM     14  N   LIG    1        2.803   3.184  -0.165  0.00  0.00    -0.299 N 
ATOM     15  H   LIG    1        2.954   4.137  -0.069  0.00  0.00    +0.150 HD
ATOM     16  C   LIG    1        1.547   2.715  -0.174  0.00  0.00    +0.302 C 
ATOM     17  O   LIG    1        0.628   3.504  -0.073  0.00  0.00    -0.253 OA
ENDBRANCH   6  10
ENDBRANCH   1   2
BRANCH   1  18
ATOM     18  O   LIG    1       -6.073   2.691   1.194  0.00  0.00    -0.381 OA
ATOM     19  H   LIG    1       -6.167   3.532   0.726  0.00  0.00    +0.210 HD
ENDBRANCH   1  18
BRANCH   1  20
ATOM     20  C   LIG    1       -3.949   3.318   2.162  0.00  0.00    +0.212 C 
BRANCH  20  21
ATOM     21  S   LIG    1       -4.619   3.405   3.845  0.00  0.00    -0.000 S 
ATOM     22  O   LIG    1       -4.334   2.203   4.548  0.00  0.00    -0.169 OA
ATOM     23  O   LIG    1       -5.938   3.933   3.820  0.00  0.00    -0.169 OA
BRANCH  21  26
ATOM     24  C   LIG    1       -1.726   5.198   5.961  0.00  0.00    +0.010 A 
ATOM     25  C   LIG    1       -2.496   4.269   5.331  0.00  0.00    +0.027 A 
ATOM     26  C   LIG    1       -3.656   4.639   4.653  0.00  0.00    +0.089 A 
ATOM     27  C   LIG    1       -4.059   5.938   4.611  0.00  0.00    +0.035 A 
ATOM     28  C   LIG    1       -3.293   6.925   5.255  0.00  0.00    -0.016 A 
ATOM     29  C   LIG    1       -3.678   8.277   5.234  0.00  0.00    +0.010 A 
ATOM     30  C   LIG    1       -2.912   9.205   5.868  0.00  0.00    +0.020 A 
ATOM     31  C   LIG    1       -1.748   8.836   6.542  0.00  0.00    +0.042 A 
ATOM     32 CL   LIG    1       -0.800  10.052   7.339  0.00  0.00    -0.084 Cl
ATOM     33  C   LIG    1       -1.345   7.536   6.584  0.00  0.00    +0.028 A 
ATOM     34  C   LIG    1       -2.110   6.550   5.939  0.00  0.00    -0.016 A 
ENDBRANCH  21  26
ENDBRANCH  20  21
ENDBRANCH   1  20
TORSDOF 6
