REMARK  Name = ZINC13828082
REMARK                            x       y       z     vdW  Elec       q    Type
REMARK                         _______ _______ _______ _____ _____    ______ ____
ROOT
ATOM      1  C   LIG    1       -1.287  -0.784   0.010  0.00  0.00    +0.143 C 
ENDROOT
BRANCH   1   8
ATOM      2  C   LIG    1       -0.017   1.383   0.010  0.00  0.00    +0.009 A 
ATOM      3  C   LIG    1        1.193   2.059   0.002  0.00  0.00    +0.040 A 
ATOM      4  C   LIG    1        2.371   1.333  -0.013  0.00  0.00    +0.129 A 
ATOM      5 CL   LIG    1        3.893   2.168  -0.024  0.00  0.00    -0.062 Cl
ATOM      6  N   LIG    1        2.350   0.014  -0.021  0.00  0.00    -0.243 NA
ATOM      7  C   LIG    1        1.217  -0.662  -0.014  0.00  0.00    +0.117 A 
ATOM      8  C   LIG    1        0.002  -0.004   0.002  0.00  0.00    -0.012 A 
ENDBRANCH   1   8
BRANCH   1   9
ATOM      9  N   LIG    1       -1.718  -1.030  -1.368  0.00  0.00    -0.304 N 
ATOM     10  C   LIG    1       -2.577  -0.077  -2.045  0.00  0.00    +0.118 C 
ATOM     11  C   LIG    1       -2.897  -0.486  -3.503  0.00  0.00    +0.096 C 
ATOM     12  S   LIG    1       -1.630  -1.801  -3.748  0.00  0.00    -0.088 S 
ATOM     13  C   LIG    1       -1.308  -2.156  -2.028  0.00  0.00    +0.169 C 
ATOM     14  N   LIG    1       -0.793  -3.259  -1.510  0.00  0.00    -0.151 NA
BRANCH  14  15
ATOM     15  C   LIG    1       -0.439  -4.286  -2.320  0.00  0.00    +0.207 C 
ATOM     16  N   LIG    1       -0.143  -5.148  -2.998  0.00  0.00    -0.169 NA
ENDBRANCH  14  15
ENDBRANCH   1   9
TORSDOF 3
