REMARK  Name = ZINC49525577
REMARK                            x       y       z     vdW  Elec       q    Type
REMARK                         _______ _______ _______ _____ _____    ______ ____
ROOT
ATOM      1  C   LIG    1        2.578  -2.540   4.293  0.00  0.00    +0.121 C 
ATOM      2  N   LIG    1        3.154  -1.952   5.307  0.00  0.00    -0.177 NA
ATOM      3  N   LIG    1        3.696  -2.883   6.192  0.00  0.00    -0.201 N 
ATOM      4  H   LIG    1        4.167  -2.660   7.010  0.00  0.00    +0.178 HD
ATOM      5  C   LIG    1        3.471  -4.136   5.750  0.00  0.00    +0.285 C 
ATOM      6  O   LIG    1        3.812  -5.175   6.288  0.00  0.00    -0.267 OA
ATOM      7  C   LIG    1        2.724  -3.998   4.489  0.00  0.00    +0.172 C 
ATOM      8  N   LIG    1        2.284  -4.963   3.704  0.00  0.00    -0.175 NA
ENDROOT
BRANCH   1  12
ATOM      9  C   LIG    1        0.626  -0.618   1.041  0.00  0.00    +0.120 A 
ATOM     10  C   LIG    1        1.202   0.142   2.050  0.00  0.00    +0.046 A 
ATOM     11  C   LIG    1        1.835  -0.478   3.106  0.00  0.00    +0.014 A 
ATOM     12  C   LIG    1        1.897  -1.871   3.160  0.00  0.00    +0.004 A 
ATOM     13  C   LIG    1        1.317  -2.631   2.145  0.00  0.00    +0.014 A 
ATOM     14  C   LIG    1        0.680  -2.005   1.095  0.00  0.00    +0.046 A 
BRANCH   9  16
ATOM     15  C   LIG    1       -0.017   1.425   0.010  0.00  0.00    +0.277 C 
ATOM     16  O   LIG    1        0.002  -0.004   0.002  0.00  0.00    -0.495 OA
ENDBRANCH   9  16
ENDBRANCH   1  12
BRANCH   8  17
ATOM     17  N   LIG    1        2.496  -6.196   4.018  0.00  0.00    -0.237 N 
ATOM     18  H   LIG    1        2.978  -6.414   4.831  0.00  0.00    +0.174 HD
BRANCH  17  19
ATOM     19  C   LIG    1        2.030  -7.217   3.189  0.00  0.00    +0.050 A 
ATOM     20  C   LIG    1        1.344  -6.906   2.020  0.00  0.00    +0.025 A 
ATOM     21  C   LIG    1        0.885  -7.919   1.201  0.00  0.00    +0.003 A 
ATOM     22  C   LIG    1        1.108  -9.241   1.541  0.00  0.00    +0.020 A 
ATOM     23  C   LIG    1        1.790  -9.554   2.704  0.00  0.00    +0.043 A 
ATOM     24 CL   LIG    1        2.066 -11.215   3.127  0.00  0.00    -0.083 Cl
ATOM     25  C   LIG    1        2.257  -8.546   3.526  0.00  0.00    +0.044 A 
ENDBRANCH  17  19
ENDBRANCH   8  17
TORSDOF 4
