REMARK  Name = ZINC36286479
REMARK                            x       y       z     vdW  Elec       q    Type
REMARK                         _______ _______ _______ _____ _____    ______ ____
ROOT
ATOM      1  C   LIG    1        2.063   0.875   2.933  0.00  0.00    +0.040 A 
ATOM      2  C   LIG    1        2.608  -0.409   2.836  0.00  0.00    +0.035 A 
ATOM      3  C   LIG    1        3.676  -0.764   3.630  0.00  0.00    +0.064 A 
ATOM      4 CL   LIG    1        4.354  -2.358   3.511  0.00  0.00    -0.082 Cl
ATOM      5  C   LIG    1        4.213   0.155   4.529  0.00  0.00    +0.062 A 
ATOM      6  C   LIG    1        3.671   1.434   4.628  0.00  0.00    +0.064 A 
ATOM      7 CL   LIG    1        4.343   2.576   5.750  0.00  0.00    -0.082 Cl
ATOM      8  C   LIG    1        2.608   1.796   3.831  0.00  0.00    +0.035 A 
ENDROOT
BRANCH   1  17
ATOM      9  C   LIG    1       -0.922   1.861   0.220  0.00  0.00    +0.028 C 
ATOM     10  C   LIG    1       -1.356   0.845   1.279  0.00  0.00    +0.074 C 
ATOM     11  C   LIG    1       -2.610   1.355   1.996  0.00  0.00    +0.022 C 
ATOM     12  C   LIG    1       -2.958   0.405   3.144  0.00  0.00    +0.004 C 
ATOM     13  C   LIG    1       -1.806   0.375   4.151  0.00  0.00    +0.022 C 
ATOM     14  C   LIG    1       -0.542  -0.145   3.459  0.00  0.00    +0.074 C 
ATOM     15  C   LIG    1        0.645  -0.051   4.420  0.00  0.00    +0.028 C 
ATOM     16  N   LIG    1       -0.281   0.673   2.266  0.00  0.00    -0.292 N 
ATOM     17  C   LIG    1        0.919   1.257   2.083  0.00  0.00    +0.247 C 
ATOM     18  O   LIG    1        1.060   2.100   1.218  0.00  0.00    -0.270 OA
ENDBRANCH   1  17
BRANCH   5  19
ATOM     19  N   LIG    1        5.292  -0.206   5.330  0.00  0.00    -0.356 N 
ATOM     20  H   LIG    1        5.667   0.433   5.956  0.00  0.00    +0.142 HD
ATOM     21  H   LIG    1        5.670  -1.097   5.262  0.00  0.00    +0.142 HD
ENDBRANCH   5  19
TORSDOF 2
