REMARK  Name = ZINC15682449
REMARK                            x       y       z     vdW  Elec       q    Type
REMARK                         _______ _______ _______ _____ _____    ______ ____
ROOT
ATOM      1  C   LIG    1       -3.839  -4.808   0.013  0.00  0.00    +0.042 C 
ENDROOT
BRANCH   1   2
ATOM      2  C   LIG    1       -2.404  -4.278   0.002  0.00  0.00    +0.223 C 
BRANCH   2   3
ATOM      3  N   LIG    1       -2.423  -2.813   0.010  0.00  0.00    -0.239 N 
ATOM      4  H   LIG    1       -3.270  -2.340   0.021  0.00  0.00    +0.291 HD
BRANCH   3   6
ATOM      5  C   LIG    1       -1.255  -0.753   0.010  0.00  0.00    +0.091 C 
ATOM      6  C   LIG    1       -1.236  -2.106   0.003  0.00  0.00    +0.253 C 
BRANCH   6   7
ATOM      7  N   LIG    1       -0.031  -2.781  -0.013  0.00  0.00    -0.252 N 
ATOM      8  H   LIG    1       -0.018  -3.751  -0.018  0.00  0.00    +0.288 HD
ATOM      9  H   LIG    1        0.803  -2.284  -0.018  0.00  0.00    +0.288 HD
ENDBRANCH   6   7
BRANCH   5  11
ATOM     10  C   LIG    1       -0.016   1.330   0.009  0.00  0.00    +0.009 C 
ATOM     11  C   LIG    1        0.002  -0.004   0.002  0.00  0.00    -0.000 C 
ENDBRANCH   5  11
ENDBRANCH   3   6
ENDBRANCH   2   3
ENDBRANCH   1   2
BRANCH   1  12
ATOM     12  C   LIG    1       -3.818  -6.338   0.004  0.00  0.00    -0.002 C 
BRANCH  12  13
ATOM     13  CA  LIG    1       -5.254  -6.867   0.015  0.00  0.00    +0.036 C 
BRANCH  13  14
ATOM     14  N   LIG    1       -5.904  -6.494   1.279  0.00  0.00    +0.387 N 
ATOM     15  H1  LIG    1       -5.392  -6.894   2.051  0.00  0.00    -0.089 HD
ATOM     16  H2  LIG    1       -6.850  -6.843   1.286  0.00  0.00    -0.089 HD
ATOM     17  H3  LIG    1       -5.915  -5.489   1.367  0.00  0.00    -0.089 HD
ENDBRANCH  13  14
BRANCH  13  18
ATOM     18  C   LIG    1       -5.236  -8.368  -0.117  0.00  0.00    +0.290 C 
ATOM     19  O   LIG    1       -5.187  -9.067   0.881  0.00  0.00    -0.253 OA
BRANCH  18  20
ATOM     20  OXT LIG    1       -5.271  -8.883  -1.221  0.00  0.00    -0.482 OA
ATOM     21  HXT LIG    1       -5.309  -8.346  -1.988  0.00  0.00    +0.295 HD
ENDBRANCH  18  20
ENDBRANCH  13  18
ENDBRANCH  12  13
ENDBRANCH   1  12
TORSDOF 10
