REMARK  Name = ZINC27557504
REMARK                            x       y       z     vdW  Elec       q    Type
REMARK                         _______ _______ _______ _____ _____    ______ ____
ROOT
ATOM      1  C   LIG    1        1.228   1.394   2.588  0.00  0.00    +0.016 C 
ENDROOT
BRANCH   1   2
ATOM      2  C   LIG    1       -0.221   1.753   2.377  0.00  0.00    +0.202 C 
ATOM      3  N   LIG    1       -0.782   1.601   1.161  0.00  0.00    -0.293 N 
ATOM      4  C   LIG    1       -2.176   1.935   0.914  0.00  0.00    +0.119 C 
ATOM      5  C   LIG    1       -2.637   1.716  -0.548  0.00  0.00    +0.089 C 
ATOM      6  S   LIG    1       -1.001   1.744  -1.407  0.00  0.00    -0.140 S 
ATOM      7  C   LIG    1       -0.013   1.086   0.008  0.00  0.00    +0.177 C 
ATOM      8  O   LIG    1       -0.881   2.178   3.301  0.00  0.00    -0.277 OA
ENDBRANCH   1   2
BRANCH   1   9
ATOM      9  N   LIG    1        1.477   1.183   4.021  0.00  0.00    +0.386 N 
ATOM     10  H   LIG    1        2.534   0.922   4.175  0.00  0.00    -0.089 HD
ATOM     11  H   LIG    1        1.243   2.105   4.573  0.00  0.00    -0.089 HD
ATOM     12  H   LIG    1        0.839   0.365   4.387  0.00  0.00    -0.089 HD
ENDBRANCH   1   9
BRANCH   1  13
ATOM     13  C   LIG    1        2.114   2.533   2.079  0.00  0.00    -0.020 C 
ATOM     14  C   LIG    1        1.878   3.783   2.930  0.00  0.00    +0.006 C 
BRANCH  13  16
ATOM     15  C   LIG    1        4.463   3.204   1.555  0.00  0.00    +0.004 C 
ATOM     16  C   LIG    1        3.584   2.118   2.178  0.00  0.00    -0.001 C 
ENDBRANCH  13  16
ENDBRANCH   1  13
TORSDOF 4
