REMARK  Name = ZINC19498277
REMARK                            x       y       z     vdW  Elec       q    Type
REMARK                         _______ _______ _______ _____ _____    ______ ____
ROOT
ATOM      1  C   LIG    1       -0.019   1.526   0.010  0.00  0.00    +0.030 C 
ATOM      2  C   LIG    1        0.002  -0.004   0.002  0.00  0.00    +0.098 C 
ATOM      3  C   LIG    1       -1.413  -0.531   0.023  0.00  0.00    +0.037 A 
ATOM      4  C   LIG    1       -1.804  -1.563   0.805  0.00  0.00    -0.016 A 
ATOM      5  C   LIG    1       -0.874  -2.299   1.736  0.00  0.00    +0.052 C 
ATOM      6  C   LIG    1        0.567  -1.953   1.339  0.00  0.00    +0.086 C 
ATOM      7  C   LIG    1       -3.213  -1.778   0.558  0.00  0.00    +0.007 A 
ATOM      8  C   LIG    1       -4.139  -2.691   1.072  0.00  0.00    +0.056 A 
ATOM      9  C   LIG    1       -5.437  -2.601   0.592  0.00  0.00    +0.121 A 
ATOM     10  C   LIG    1       -5.805  -1.652  -0.354  0.00  0.00    +0.047 A 
ATOM     11  C   LIG    1       -4.902  -0.742  -0.874  0.00  0.00    +0.030 A 
ATOM     12  C   LIG    1       -3.591  -0.810  -0.408  0.00  0.00    +0.047 A 
ATOM     13  N   LIG    1       -2.477  -0.075  -0.708  0.00  0.00    -0.356 N 
ATOM     14  H   LIG    1       -2.445   0.658  -1.342  0.00  0.00    +0.166 HD
ATOM     15  N   LIG    1        0.705  -0.496   1.198  0.00  0.00    -0.308 NA
ATOM     16  H   LIG    1        1.675  -0.221   1.186  0.00  0.00    +0.123 HD
ENDROOT
BRANCH   9  17
ATOM     17  O   LIG    1       -6.376  -3.467   1.060  0.00  0.00    -0.495 OA
ATOM     18  C   LIG    1       -7.699  -3.335   0.535  0.00  0.00    +0.277 C 
ENDBRANCH   9  17
TORSDOF 1
