REMARK  Name = ZINC20714298
REMARK                            x       y       z     vdW  Elec       q    Type
REMARK                         _______ _______ _______ _____ _____    ______ ____
ROOT
ATOM      1  N   LIG    1        2.796   5.636  -1.088  0.00  0.00    -0.293 NA
ATOM      2  C   LIG    1        4.039   6.369  -1.367  0.00  0.00    +0.090 C 
ATOM      3  C   LIG    1        4.625   5.918  -2.707  0.00  0.00    +0.052 C 
ATOM      4  C   LIG    1        3.530   6.017  -3.767  0.00  0.00    -0.022 A 
ATOM      5  C   LIG    1        2.233   6.093  -3.386  0.00  0.00    +0.010 A 
ATOM      6  S   LIG    1        1.309   6.194  -4.896  0.00  0.00    -0.072 S 
ATOM      7  C   LIG    1        2.655   6.134  -6.034  0.00  0.00    +0.114 A 
ATOM      8  N   LIG    1        2.726   6.164  -7.350  0.00  0.00    -0.228 NA
ATOM      9  C   LIG    1        3.939   6.098  -7.885  0.00  0.00    +0.224 A 
ATOM     10  N   LIG    1        5.042   6.005  -7.169  0.00  0.00    -0.220 NA
ATOM     11  C   LIG    1        5.063   5.969  -5.838  0.00  0.00    +0.128 A 
ATOM     12  C   LIG    1        3.794   6.036  -5.194  0.00  0.00    +0.051 A 
ATOM     13  C   LIG    1        1.714   6.090  -1.982  0.00  0.00    +0.127 C 
ENDROOT
BRANCH  11  14
ATOM     14  N   LIG    1        6.244   5.871  -5.125  0.00  0.00    -0.343 N 
ATOM     15  H   LIG    1        6.222   5.844  -4.026  0.00  0.00    +0.144 HD
ATOM     16  H   LIG    1        7.206   5.821  -5.657  0.00  0.00    +0.144 HD
ENDBRANCH  11  14
BRANCH   1  17
ATOM     17  C   LIG    1        2.408   5.775   0.322  0.00  0.00    +0.120 C 
BRANCH  17  21
ATOM     18  C   LIG    1       -1.530   4.214   0.869  0.00  0.00    +0.000 A 
ATOM     19  C   LIG    1       -0.432   3.388   1.019  0.00  0.00    +0.000 A 
ATOM     20  C   LIG    1        0.842   3.893   0.840  0.00  0.00    +0.005 A 
ATOM     21  C   LIG    1        1.018   5.225   0.517  0.00  0.00    -0.033 A 
ATOM     22  C   LIG    1       -0.079   6.053   0.373  0.00  0.00    +0.005 A 
ATOM     23  C   LIG    1       -1.354   5.548   0.551  0.00  0.00    +0.000 A 
ENDBRANCH  17  21
ENDBRANCH   1  17
TORSDOF 3
