REMARK  Name = ZINC25963555
REMARK                            x       y       z     vdW  Elec       q    Type
REMARK                         _______ _______ _______ _____ _____    ______ ____
ROOT
ATOM      1  C   LIG    1       -1.201  -0.638   0.010  0.00  0.00    +0.144 A 
ATOM      2  C   LIG    1       -2.372   0.097   0.019  0.00  0.00    +0.048 A 
ATOM      3  C   LIG    1       -3.604  -0.541   0.028  0.00  0.00    +0.004 A 
ATOM      4  C   LIG    1       -3.681  -1.905   0.027  0.00  0.00    +0.010 A 
ATOM      5  C   LIG    1       -2.512  -2.671   0.018  0.00  0.00    +0.007 A 
ATOM      6  C   LIG    1       -2.228  -4.100   0.014  0.00  0.00    -0.017 A 
ATOM      7  C   LIG    1       -3.196  -5.255   0.018  0.00  0.00    +0.052 C 
ATOM      8  C   LIG    1       -2.423  -6.520  -0.381  0.00  0.00    +0.086 C 
ATOM      9  N   LIG    1       -1.191  -6.611   0.414  0.00  0.00    -0.310 NA
ATOM     10  H   LIG    1       -1.391  -6.542   1.400  0.00  0.00    +0.122 HD
ATOM     11  C   LIG    1       -0.208  -5.596  -0.021  0.00  0.00    +0.134 C 
ATOM     12  C   LIG    1       -0.887  -4.246  -0.011  0.00  0.00    +0.034 A 
ATOM     13  N   LIG    1       -0.294  -3.018  -0.011  0.00  0.00    -0.354 N 
ATOM     14  H   LIG    1        0.664  -2.862  -0.020  0.00  0.00    +0.166 HD
ATOM     15  C   LIG    1       -1.258  -2.031   0.003  0.00  0.00    +0.089 A 
ENDROOT
BRANCH   1  17
ATOM     16  C   LIG    1       -0.017   1.425   0.010  0.00  0.00    +0.277 C 
ATOM     17  O   LIG    1        0.002  -0.004   0.002  0.00  0.00    -0.493 OA
ENDBRANCH   1  17
TORSDOF 1
