REMARK  Name = ZINC28703284
REMARK                            x       y       z     vdW  Elec       q    Type
REMARK                         _______ _______ _______ _____ _____    ______ ____
ROOT
ATOM      1  C   LIG    1        1.123  -0.680  -0.207  0.00  0.00    +0.162 A 
ATOM      2  C   LIG    1       -0.030   0.041  -0.483  0.00  0.00    +0.050 A 
ATOM      3  C   LIG    1       -0.021   1.417  -0.414  0.00  0.00    +0.012 A 
ATOM      4  C   LIG    1        1.156   2.091  -0.065  0.00  0.00    -0.020 A 
ATOM      5  C   LIG    1        2.319   1.362   0.212  0.00  0.00    +0.057 A 
ATOM      6  C   LIG    1        2.299  -0.017   0.141  0.00  0.00    +0.163 A 
ENDROOT
BRANCH   4   7
ATOM      7  C   LIG    1        1.170   3.557   0.009  0.00  0.00    +0.028 C 
ATOM      8  C   LIG    1        0.102   4.222   0.520  0.00  0.00    +0.074 C 
ATOM      9  C   LIG    1       -1.096   3.694   1.202  0.00  0.00    +0.217 C 
ATOM     10  N   LIG    1       -1.991   4.582   1.601  0.00  0.00    -0.165 NA
ATOM     11  C   LIG    1       -1.813   5.903   1.393  0.00  0.00    +0.139 C 
ATOM     12  S   LIG    1       -2.846   7.197   1.830  0.00  0.00    -0.026 S 
ATOM     13  S   LIG    1       -0.237   5.976   0.557  0.00  0.00    -0.060 S 
BRANCH   9  14
ATOM     14  O   LIG    1       -1.253   2.501   1.389  0.00  0.00    -0.493 OA
ATOM     15  H   LIG    1       -0.604   1.892   1.096  0.00  0.00    +0.294 HD
ENDBRANCH   9  14
ENDBRANCH   4   7
BRANCH   1  16
ATOM     16  O   LIG    1        1.107  -2.037  -0.276  0.00  0.00    -0.484 OA
BRANCH  16  17
ATOM     17  C   LIG    1       -0.131  -2.653  -0.638  0.00  0.00    +0.264 C 
BRANCH  17  21
ATOM     18  C   LIG    1        0.357  -6.896  -0.709  0.00  0.00    +0.000 A 
ATOM     19  C   LIG    1       -0.033  -6.264   0.458  0.00  0.00    +0.000 A 
ATOM     20  C   LIG    1       -0.190  -4.891   0.481  0.00  0.00    +0.007 A 
ATOM     21  C   LIG    1        0.041  -4.150  -0.663  0.00  0.00    -0.010 A 
ATOM     22  C   LIG    1        0.425  -4.782  -1.831  0.00  0.00    +0.007 A 
ATOM     23  C   LIG    1        0.589  -6.154  -1.852  0.00  0.00    +0.000 A 
ENDBRANCH  17  21
ENDBRANCH  16  17
ENDBRANCH   1  16
BRANCH   6  24
ATOM     24  O   LIG    1        3.427  -0.728   0.411  0.00  0.00    -0.484 OA
BRANCH  24  25
ATOM     25  C   LIG    1        4.595   0.017   0.761  0.00  0.00    +0.264 C 
BRANCH  25  26
ATOM     26  C   LIG    1        5.736  -0.932   1.022  0.00  0.00    -0.010 A 
ATOM     27  C   LIG    1        5.952  -1.419   2.298  0.00  0.00    +0.007 A 
ATOM     28  C   LIG    1        6.996  -2.293   2.537  0.00  0.00    +0.000 A 
ATOM     29  C   LIG    1        7.829  -2.673   1.502  0.00  0.00    +0.000 A 
ATOM     30  C   LIG    1        7.617  -2.183   0.228  0.00  0.00    +0.000 A 
ATOM     31  C   LIG    1        6.570  -1.312  -0.012  0.00  0.00    +0.007 A 
ENDBRANCH  25  26
ENDBRANCH  24  25
ENDBRANCH   6  24
TORSDOF 8
