REMARK  Name = ZINC13766764
REMARK                            x       y       z     vdW  Elec       q    Type
REMARK                         _______ _______ _______ _____ _____    ______ ____
ROOT
ATOM      1  C   LIG    1        3.582   1.876  -0.022  0.00  0.00    +0.001 A 
ATOM      2  C   LIG    1        2.435   1.143  -0.015  0.00  0.00    +0.008 A 
ATOM      3  C   LIG    1        1.192   1.799   0.000  0.00  0.00    -0.014 A 
ATOM      4  C   LIG    1       -0.013   1.076   0.008  0.00  0.00    +0.054 A 
ATOM      5  C   LIG    1       -1.202   1.746   0.017  0.00  0.00    +0.117 A 
ATOM      6  C   LIG    1       -1.238   3.144   0.031  0.00  0.00    +0.046 A 
ATOM      7  C   LIG    1       -0.090   3.873   0.024  0.00  0.00    +0.012 A 
ATOM      8  C   LIG    1        1.153   3.216   0.008  0.00  0.00    -0.016 A 
ATOM      9  C   LIG    1        2.358   3.937   0.001  0.00  0.00    -0.057 A 
ATOM     10  C   LIG    1        3.544   3.269  -0.013  0.00  0.00    +0.002 A 
ENDROOT
BRANCH   5  11
ATOM     11  O   LIG    1       -2.367   1.046   0.019  0.00  0.00    -0.507 OA
ATOM     12  H   LIG    1       -2.700   0.839   0.903  0.00  0.00    +0.292 HD
ENDBRANCH   5  11
BRANCH   9  13
ATOM     13  C   LIG    1        2.339   5.444   0.010  0.00  0.00    -0.050 C 
BRANCH  13  14
ATOM     14  N   LIG    1        2.082   5.913   1.383  0.00  0.00    +0.381 N 
ATOM     15  H   LIG    1        1.162   5.574   1.689  0.00  0.00    -0.090 HD
ATOM     16  H   LIG    1        2.087   6.931   1.411  0.00  0.00    -0.090 HD
ATOM     17  H   LIG    1        2.796   5.553   2.014  0.00  0.00    -0.090 HD
ENDBRANCH  13  14
ENDBRANCH   9  13
TORSDOF 3
