REMARK  Name = ZINC19685792
REMARK                            x       y       z     vdW  Elec       q    Type
REMARK                         _______ _______ _______ _____ _____    ______ ____
ROOT
ATOM      1  C   LIG    1       -2.699  -0.916  -0.830  0.00  0.00    +0.338 C 
ATOM      2  O   LIG    1       -3.295  -0.759  -1.880  0.00  0.00    -0.245 OA
ENDROOT
BRANCH   1   5
ATOM      3  C   LIG    1       -1.682  -1.961  -3.247  0.00  0.00    +0.066 C 
ATOM      4  C   LIG    1       -0.888  -2.039  -1.968  0.00  0.00    +0.049 C 
ATOM      5  C   LIG    1       -1.428  -1.518  -0.827  0.00  0.00    +0.069 C 
ATOM      6  C   LIG    1       -0.605  -1.611   0.445  0.00  0.00    +0.096 C 
ATOM      7  C   LIG    1        0.749  -2.284   0.309  0.00  0.00    +0.065 C 
ATOM      8  C   LIG    1        1.105  -2.748  -0.959  0.00  0.00    +0.049 C 
ATOM      9  C   LIG    1        2.439  -3.423  -1.147  0.00  0.00    +0.066 C 
ATOM     10  C   LIG    1        1.591  -2.432   1.390  0.00  0.00    +0.285 C 
ATOM     11  N   LIG    1        0.304  -2.614  -1.992  0.00  0.00    -0.256 NA
BRANCH   6  12
ATOM     12  C   LIG    1       -0.383  -0.215   0.966  0.00  0.00    -0.033 A 
ATOM     13  C   LIG    1        0.229   0.732   0.165  0.00  0.00    +0.005 A 
ATOM     14  C   LIG    1        0.433   2.013   0.643  0.00  0.00    +0.003 A 
ATOM     15  C   LIG    1        0.025   2.348   1.921  0.00  0.00    +0.032 A 
ATOM     16  C   LIG    1       -0.587   1.401   2.721  0.00  0.00    +0.122 A 
ATOM     17  C   LIG    1       -0.795   0.121   2.241  0.00  0.00    +0.037 A 
BRANCH  16  18
ATOM     18  N   LIG    1       -1.023   1.759   4.089  0.00  0.00    +0.006 N 
ATOM     19  O   LIG    1       -0.931   2.902   4.473  0.00  0.00    -0.130 OA
BRANCH  18  20
ATOM     20  O   LIG    1       -1.470   0.909   4.823  0.00  0.00    -0.396 OA
ATOM     21  H   LIG    1       -1.541   0.023   4.525  0.00  0.00    +0.329 HD
ENDBRANCH  18  20
ENDBRANCH  16  18
ENDBRANCH   6  12
BRANCH  10  22
ATOM     22  O   LIG    1        1.167  -2.096   2.625  0.00  0.00    -0.467 OA
ATOM     23  C   LIG    1        2.092  -2.275   3.699  0.00  0.00    +0.280 C 
ENDBRANCH  10  22
BRANCH  10  24
ATOM     24  O   LIG    1        2.838  -2.911   1.213  0.00  0.00    -0.480 OA
ATOM     25  H   LIG    1        3.132  -3.144   0.355  0.00  0.00    +0.295 HD
ENDBRANCH  10  24
ENDBRANCH   1   5
BRANCH   1  26
ATOM     26  O   LIG    1       -3.257  -0.512   0.331  0.00  0.00    -0.460 OA
BRANCH  26  27
ATOM     27  C   LIG    1       -4.596  -0.016   0.269  0.00  0.00    +0.248 C 
BRANCH  27  28
ATOM     28  C   LIG    1       -5.578  -1.187   0.343  0.00  0.00    +0.125 C 
BRANCH  28  29
ATOM     29  N   LIG    1       -5.447  -1.854   1.646  0.00  0.00    -0.297 NA
ATOM     30  C   LIG    1       -6.020  -1.030   2.719  0.00  0.00    +0.100 C 
ATOM     31  C   LIG    1       -5.793  -1.722   4.066  0.00  0.00    +0.100 C 
ATOM     32  N   LIG    1       -6.413  -3.054   4.040  0.00  0.00    -0.289 NA
ATOM     33  C   LIG    1       -5.840  -3.878   2.966  0.00  0.00    +0.100 C 
ATOM     34  C   LIG    1       -6.067  -3.186   1.620  0.00  0.00    +0.100 C 
BRANCH  32  35
ATOM     35  C   LIG    1       -6.282  -3.721   5.342  0.00  0.00    +0.117 C 
BRANCH  35  36
ATOM     36  C   LIG    1       -6.932  -5.079   5.279  0.00  0.00    -0.026 A 
ATOM     37  C   LIG    1       -8.185  -5.220   4.714  0.00  0.00    +0.005 A 
ATOM     38  C   LIG    1       -8.782  -6.465   4.656  0.00  0.00    +0.000 A 
ATOM     39  C   LIG    1       -8.124  -7.571   5.162  0.00  0.00    +0.000 A 
ATOM     40  C   LIG    1       -6.870  -7.430   5.726  0.00  0.00    +0.000 A 
ATOM     41  C   LIG    1       -6.272  -6.185   5.781  0.00  0.00    +0.005 A 
ENDBRANCH  35  36
BRANCH  35  42
ATOM     42  C   LIG    1       -6.958  -2.890   6.402  0.00  0.00    -0.026 A 
ATOM     43  C   LIG    1       -8.205  -2.345   6.163  0.00  0.00    +0.005 A 
ATOM     44  C   LIG    1       -8.825  -1.583   7.135  0.00  0.00    +0.000 A 
ATOM     45  C   LIG    1       -8.197  -1.365   8.347  0.00  0.00    +0.000 A 
ATOM     46  C   LIG    1       -6.950  -1.911   8.587  0.00  0.00    +0.000 A 
ATOM     47  C   LIG    1       -6.332  -2.676   7.617  0.00  0.00    +0.005 A 
ENDBRANCH  35  42
ENDBRANCH  32  35
ENDBRANCH  28  29
ENDBRANCH  27  28
ENDBRANCH  26  27
ENDBRANCH   1  26
TORSDOF 13
