REMARK  Name = ZINC33331643
REMARK                            x       y       z     vdW  Elec       q    Type
REMARK                         _______ _______ _______ _____ _____    ______ ____
ROOT
ATOM      1  C   LIG    1        1.328   1.894   0.024  0.00  0.00    +0.078 C 
ATOM      2  C   LIG    1        1.513   2.686  -1.273  0.00  0.00    +0.032 C 
ATOM      3  C   LIG    1        2.902   3.328  -1.278  0.00  0.00    +0.108 C 
ATOM      4  N   LIG    1        3.928   2.283  -1.170  0.00  0.00    -0.308 N 
ATOM      5  C   LIG    1        3.799   1.541   0.090  0.00  0.00    +0.108 C 
ATOM      6  C   LIG    1        2.437   0.844   0.136  0.00  0.00    +0.032 C 
ENDROOT
BRANCH   1  12
ATOM      7  C   LIG    1       -3.658   2.696  -0.768  0.00  0.00    +0.002 C 
ATOM      8  C   LIG    1       -2.577   3.772  -0.802  0.00  0.00    +0.002 C 
ATOM      9  C   LIG    1       -2.148   4.094   0.608  0.00  0.00    +0.019 C 
ATOM     10  C   LIG    1       -0.949   3.215   1.010  0.00  0.00    +0.108 C 
ATOM     11  N   LIG    1       -1.092   1.826   0.531  0.00  0.00    -0.301 N 
ATOM     12  C   LIG    1       -0.014   1.209   0.009  0.00  0.00    +0.219 C 
ATOM     13  O   LIG    1       -0.125   0.103  -0.478  0.00  0.00    -0.275 OA
ATOM     14  C   LIG    1       -2.343   1.103   0.593  0.00  0.00    +0.108 C 
ATOM     15  C   LIG    1       -3.141   1.320  -0.710  0.00  0.00    +0.019 C 
ENDBRANCH   1  12
BRANCH   4  16
ATOM     16  C   LIG    1        5.202   2.820  -1.303  0.00  0.00    +0.186 A 
ATOM     17  N   LIG    1        6.232   2.742  -0.482  0.00  0.00    -0.124 NA
ATOM     18  N   LIG    1        7.418   3.356  -0.813  0.00  0.00    -0.124 NA
ATOM     19  C   LIG    1        7.520   4.019  -1.948  0.00  0.00    +0.192 A 
ATOM     20  S   LIG    1        5.886   3.794  -2.635  0.00  0.00    -0.015 S 
BRANCH  19  21
ATOM     21  N   LIG    1        8.611   4.706  -2.474  0.00  0.00    -0.249 N 
ATOM     22  C   LIG    1        9.917   4.816  -1.813  0.00  0.00    +0.116 C 
ATOM     23  C   LIG    1       10.638   5.987  -2.516  0.00  0.00    +0.029 C 
ATOM     24  C   LIG    1        9.952   5.993  -3.902  0.00  0.00    +0.098 C 
ATOM     25  C   LIG    1        8.606   5.348  -3.654  0.00  0.00    +0.221 C 
ATOM     26  O   LIG    1        7.659   5.405  -4.410  0.00  0.00    -0.275 OA
ENDBRANCH  19  21
ENDBRANCH   4  16
TORSDOF 3
