REMARK  Name = ZINC51133897
REMARK                            x       y       z     vdW  Elec       q    Type
REMARK                         _______ _______ _______ _____ _____    ______ ____
ROOT
ATOM      1  C   LIG    1        0.204   1.328   0.090  0.00  0.00    +0.133 C 
ATOM      2  N   LIG    1        0.070  -0.131   0.084  0.00  0.00    -0.160 NA
ATOM      3  C   LIG    1       -1.248  -0.787  -0.004  0.00  0.00    +0.236 C 
ATOM      4  C   LIG    1       -1.435  -1.644   1.220  0.00  0.00    +0.193 C 
ATOM      5  O   LIG    1       -2.478  -1.575   1.835  0.00  0.00    -0.290 OA
ATOM      6  C   LIG    1       -0.389  -2.563   1.688  0.00  0.00    +0.046 A 
ATOM      7  C   LIG    1       -0.736  -3.610   2.553  0.00  0.00    +0.013 A 
ATOM      8  C   LIG    1        0.233  -4.474   3.013  0.00  0.00    +0.001 A 
ATOM      9  C   LIG    1        1.552  -4.313   2.626  0.00  0.00    +0.002 A 
ATOM     10  C   LIG    1        1.905  -3.285   1.768  0.00  0.00    +0.029 A 
ATOM     11  C   LIG    1        0.944  -2.418   1.295  0.00  0.00    +0.116 A 
ATOM     12  S   LIG    1        1.399  -1.131   0.169  0.00  0.00    +0.062 S 
ATOM     13  O   LIG    1        1.547  -1.730  -1.111  0.00  0.00    -0.153 OA
ATOM     14  O   LIG    1        2.437  -0.386   0.792  0.00  0.00    -0.153 OA
ENDROOT
BRANCH   3  15
ATOM     15  C   LIG    1       -1.306  -1.647  -1.240  0.00  0.00    +0.245 C 
ATOM     16  N   LIG    1       -2.303  -2.540  -1.393  0.00  0.00    -0.269 N 
ATOM     17  H   LIG    1       -3.024  -2.579  -0.745  0.00  0.00    +0.156 HD
ATOM     18  O   LIG    1       -0.455  -1.535  -2.096  0.00  0.00    -0.273 OA
BRANCH  16  19
ATOM     19  C   LIG    1       -2.300  -3.409  -2.484  0.00  0.00    +0.125 A 
ATOM     20  C   LIG    1       -3.388  -4.246  -2.701  0.00  0.00    +0.044 A 
ATOM     21  C   LIG    1       -3.372  -5.103  -3.787  0.00  0.00    +0.005 A 
ATOM     22  C   LIG    1       -2.262  -5.093  -4.622  0.00  0.00    +0.020 A 
ATOM     23  C   LIG    1       -1.216  -4.235  -4.346  0.00  0.00    +0.113 A 
ATOM     24  N   LIG    1       -1.262  -3.425  -3.305  0.00  0.00    -0.240 NA
ENDBRANCH  16  19
ENDBRANCH   3  15
TORSDOF 2
