REMARK  Name = ZINC14806405
REMARK                            x       y       z     vdW  Elec       q    Type
REMARK                         _______ _______ _______ _____ _____    ______ ____
ROOT
ATOM      1  C   LIG    1       -4.846  -0.415   0.670  0.00  0.00    +0.091 A 
ATOM      2  C   LIG    1       -3.679  -0.784   0.019  0.00  0.00    +0.074 A 
ATOM      3  N   LIG    1       -3.913  -1.943  -0.614  0.00  0.00    -0.339 N 
ATOM      4  H   LIG    1       -3.230  -2.454  -1.185  0.00  0.00    +0.167 HD
ATOM      5  C   LIG    1       -5.151  -2.324  -0.390  0.00  0.00    +0.117 A 
ATOM      6  N   LIG    1       -5.768  -1.400   0.402  0.00  0.00    -0.338 N 
ATOM      7  H   LIG    1       -6.714  -1.432   0.726  0.00  0.00    +0.167 HD
ENDROOT
BRANCH   2   8
ATOM      8  C   LIG    1       -2.404  -0.029   0.016  0.00  0.00    +0.004 A 
ATOM      9  C   LIG    1       -2.417   1.365   0.025  0.00  0.00    +0.014 A 
ATOM     10  C   LIG    1       -1.228   2.065   0.019  0.00  0.00    +0.050 A 
ATOM     11  C   LIG    1       -0.017   1.387   0.010  0.00  0.00    +0.162 A 
ATOM     12  C   LIG    1        0.002  -0.004   0.002  0.00  0.00    +0.163 A 
ATOM     13  O   LIG    1        1.181  -0.685  -0.006  0.00  0.00    -0.485 OA
ATOM     14  C   LIG    1        2.347   0.053  -0.387  0.00  0.00    +0.270 C 
ATOM     15  C   LIG    1        2.335   1.391   0.365  0.00  0.00    +0.270 C 
ATOM     16  O   LIG    1        1.144   2.098   0.002  0.00  0.00    -0.485 OA
ATOM     17  C   LIG    1       -1.188  -0.712   0.004  0.00  0.00    +0.059 A 
ENDBRANCH   2   8
BRANCH   1  22
ATOM     18  C   LIG    1       -6.527   2.443   2.416  0.00  0.00    +0.004 A 
ATOM     19  C   LIG    1       -5.414   3.027   3.008  0.00  0.00    +0.020 A 
ATOM     20  C   LIG    1       -4.166   2.465   2.812  0.00  0.00    +0.111 A 
ATOM     21  N   LIG    1       -4.019   1.385   2.073  0.00  0.00    -0.253 NA
ATOM     22  C   LIG    1       -5.057   0.793   1.489  0.00  0.00    +0.089 A 
ATOM     23  C   LIG    1       -6.346   1.313   1.641  0.00  0.00    +0.030 A 
ENDBRANCH   1  22
BRANCH   5  24
ATOM     24  C   LIG    1       -5.777  -3.554  -0.917  0.00  0.00    +0.015 A 
ATOM     25  C   LIG    1       -7.107  -3.849  -0.607  0.00  0.00    +0.012 A 
ATOM     26  C   LIG    1       -7.691  -4.993  -1.103  0.00  0.00    +0.014 A 
ATOM     27  C   LIG    1       -6.951  -5.864  -1.907  0.00  0.00    +0.037 A 
ATOM     28  C   LIG    1       -5.619  -5.571  -2.212  0.00  0.00    +0.014 A 
ATOM     29  C   LIG    1       -5.037  -4.425  -1.721  0.00  0.00    +0.012 A 
BRANCH  27  30
ATOM     30  C   LIG    1       -7.576  -7.094  -2.433  0.00  0.00    +0.242 C 
ATOM     31  N   LIG    1       -8.860  -7.377  -2.139  0.00  0.00    -0.325 N 
ATOM     32  H   LIG    1       -9.271  -8.184  -2.484  0.00  0.00    +0.145 HD
ATOM     33  H   LIG    1       -9.374  -6.772  -1.581  0.00  0.00    +0.145 HD
ATOM     34  O   LIG    1       -6.932  -7.852  -3.132  0.00  0.00    -0.270 OA
ENDBRANCH  27  30
ENDBRANCH   5  24
TORSDOF 4
