REMARK  Name = ZINC16052626
REMARK                            x       y       z     vdW  Elec       q    Type
REMARK                         _______ _______ _______ _____ _____    ______ ____
ROOT
ATOM      1  C   LIG    1       -1.229  -0.619  -0.217  0.00  0.00    +0.225 A 
ATOM      2  N   LIG    1       -2.343   0.090  -0.205  0.00  0.00    -0.218 NA
ATOM      3  C   LIG    1       -2.322   1.400   0.021  0.00  0.00    +0.152 A 
ATOM      4  C   LIG    1       -1.082   2.021   0.248  0.00  0.00    +0.147 A 
ATOM      5  C   LIG    1        0.073   1.222   0.225  0.00  0.00    +0.163 A 
ATOM      6  N   LIG    1        1.124   2.069   0.472  0.00  0.00    -0.329 N 
ATOM      7  C   LIG    1        0.610   3.321   0.635  0.00  0.00    +0.198 A 
ATOM      8  H   LIG    1        2.061   1.823   0.522  0.00  0.00    +0.168 HD
ATOM      9  N   LIG    1       -0.685   3.290   0.503  0.00  0.00    -0.231 NA
ATOM     10  N   LIG    1       -0.046  -0.081  -0.009  0.00  0.00    -0.216 NA
ENDROOT
BRANCH   3  11
ATOM     11  N   LIG    1       -3.494   2.135   0.030  0.00  0.00    -0.313 N 
ATOM     12  C   LIG    1       -4.799   1.466  -0.071  0.00  0.00    +0.105 C 
ATOM     13  C   LIG    1       -5.586   2.094  -1.226  0.00  0.00    +0.003 C 
ATOM     14  C   LIG    1       -5.671   3.608  -1.017  0.00  0.00    -0.072 C 
ATOM     15  C   LIG    1       -4.261   4.203  -1.014  0.00  0.00    +0.003 C 
ATOM     16  C   LIG    1       -3.459   3.599   0.149  0.00  0.00    +0.105 C 
BRANCH  14  17
ATOM     17  N   LIG    1       -6.453   4.209  -2.105  0.00  0.00    +0.380 N 
ATOM     18  H   LIG    1       -6.005   4.015  -2.988  0.00  0.00    -0.090 HD
ATOM     19  H   LIG    1       -6.509   5.207  -1.968  0.00  0.00    -0.090 HD
ATOM     20  H   LIG    1       -7.383   3.817  -2.107  0.00  0.00    -0.090 HD
ENDBRANCH  14  17
ENDBRANCH   3  11
TORSDOF 2
