REMARK  Name = ZINC13817033
REMARK                            x       y       z     vdW  Elec       q    Type
REMARK                         _______ _______ _______ _____ _____    ______ ____
ROOT
ATOM      1  C   LIG    1       -4.305   0.125   2.841  0.00  0.00    +0.037 A 
ATOM      2  C   LIG    1       -3.574  -0.647   1.946  0.00  0.00    +0.127 A 
ATOM      3  C   LIG    1       -2.246  -0.342   1.678  0.00  0.00    +0.092 A 
ATOM      4  C   LIG    1       -1.640   0.733   2.301  0.00  0.00    +0.138 A 
ATOM      5  C   LIG    1       -2.370   1.515   3.211  0.00  0.00    +0.105 A 
ATOM      6  C   LIG    1       -3.714   1.204   3.472  0.00  0.00    +0.138 A 
ENDROOT
BRANCH   2   7
ATOM      7  O   LIG    1       -4.162  -1.704   1.331  0.00  0.00    -0.506 OA
ATOM      8  H   LIG    1       -4.013  -2.550   1.774  0.00  0.00    +0.292 HD
ENDBRANCH   2   7
BRANCH   4   9
ATOM      9  O   LIG    1       -0.342   1.029   2.039  0.00  0.00    -0.494 OA
ATOM     10  C   LIG    1        0.340   0.186   1.107  0.00  0.00    +0.277 C 
ENDBRANCH   4   9
BRANCH   5  11
ATOM     11  C   LIG    1       -1.731   2.659   3.882  0.00  0.00    +0.193 C 
ATOM     12  O   LIG    1       -1.094   2.486   4.907  0.00  0.00    -0.287 OA
BRANCH  11  13
ATOM     13  C   LIG    1       -1.857   3.962   3.338  0.00  0.00    +0.052 C 
ATOM     14  C   LIG    1       -1.357   5.026   4.007  0.00  0.00    +0.015 C 
BRANCH  14  15
ATOM     15  C   LIG    1       -1.488   6.374   3.443  0.00  0.00    +0.017 A 
ATOM     16  C   LIG    1       -2.124   6.563   2.210  0.00  0.00    +0.015 A 
ATOM     17  C   LIG    1       -2.248   7.819   1.690  0.00  0.00    +0.046 A 
ATOM     18  C   LIG    1       -1.736   8.918   2.373  0.00  0.00    +0.120 A 
ATOM     19  C   LIG    1       -1.098   8.749   3.594  0.00  0.00    +0.091 A 
ATOM     20  C   LIG    1       -0.969   7.483   4.136  0.00  0.00    +0.127 A 
BRANCH  18  21
ATOM     21  O   LIG    1       -1.862  10.162   1.843  0.00  0.00    -0.507 OA
ATOM     22  H   LIG    1       -1.126  10.422   1.272  0.00  0.00    +0.292 HD
ENDBRANCH  18  21
BRANCH  20  23
ATOM     23  O   LIG    1       -0.346   7.311   5.329  0.00  0.00    -0.506 OA
ATOM     24  H   LIG    1        0.607   7.162   5.257  0.00  0.00    +0.292 HD
ENDBRANCH  20  23
ENDBRANCH  14  15
ENDBRANCH  11  13
ENDBRANCH   5  11
BRANCH   6  25
ATOM     25  O   LIG    1       -4.429   1.956   4.346  0.00  0.00    -0.506 OA
ATOM     26  H   LIG    1       -4.382   1.648   5.261  0.00  0.00    +0.292 HD
ENDBRANCH   6  25
BRANCH   1  27
ATOM     27  C   LIG    1       -5.746  -0.214   3.124  0.00  0.00    +0.050 C 
BRANCH  27  28
ATOM     28  C   LIG    1       -6.639   0.431   2.063  0.00  0.00    +0.022 C 
BRANCH  28  29
ATOM     29  C   LIG    1       -6.562   1.931   2.185  0.00  0.00    -0.076 C 
ATOM     30  C   LIG    1       -7.109   2.617   3.410  0.00  0.00    +0.039 C 
ATOM     31  C   LIG    1       -6.019   2.639   1.226  0.00  0.00    +0.007 C 
ENDBRANCH  28  29
BRANCH  28  32
ATOM     32  C   LIG    1       -8.086  -0.023   2.270  0.00  0.00    +0.035 C 
BRANCH  32  36
ATOM     33  C   LIG    1       -9.474  -1.800   0.574  0.00  0.00    +0.038 C 
ATOM     34  C   LIG    1       -9.641  -0.311   0.409  0.00  0.00    -0.080 C 
ATOM     35  C   LIG    1      -10.608   0.230  -0.611  0.00  0.00    +0.038 C 
ATOM     36  C   LIG    1       -8.945   0.512   1.154  0.00  0.00    -0.028 C 
ENDBRANCH  32  36
ENDBRANCH  28  32
ENDBRANCH  27  28
ENDBRANCH   1  27
TORSDOF 13
