REMARK  Name = ZINC14985904
REMARK                            x       y       z     vdW  Elec       q    Type
REMARK                         _______ _______ _______ _____ _____    ______ ____
ROOT
ATOM      1  C   LIG    1       -0.489   3.581   0.026  0.00  0.00    +0.125 A 
ATOM      2  C   LIG    1        0.866   3.484   0.013  0.00  0.00    +0.042 A 
ATOM      3  C   LIG    1        1.198   2.107   0.002  0.00  0.00    +0.001 A 
ATOM      4  C   LIG    1        2.412   1.414  -0.013  0.00  0.00    +0.025 A 
ATOM      5  C   LIG    1        2.405   0.024  -0.020  0.00  0.00    +0.060 A 
ATOM      6  C   LIG    1        1.188  -0.675  -0.013  0.00  0.00    +0.017 A 
ATOM      7  C   LIG    1        0.002  -0.004   0.002  0.00  0.00    +0.027 A 
ATOM      8  C   LIG    1       -0.017   1.391   0.010  0.00  0.00    +0.047 A 
ATOM      9  N   LIG    1       -1.034   2.311   0.019  0.00  0.00    -0.349 N 
ATOM     10  H   LIG    1       -1.982   2.104   0.022  0.00  0.00    +0.166 HD
ENDROOT
BRANCH   1  11
ATOM     11  C   LIG    1       -1.253   4.835   0.040  0.00  0.00    +0.356 C 
ATOM     12  O   LIG    1       -0.670   5.902   0.040  0.00  0.00    -0.243 OA
BRANCH  11  13
ATOM     13  O   LIG    1       -2.601   4.804   0.053  0.00  0.00    -0.460 OA
BRANCH  13  15
ATOM     14  C   LIG    1       -4.802   5.845   0.079  0.00  0.00    +0.048 C 
ATOM     15  C   LIG    1       -3.291   6.082   0.066  0.00  0.00    +0.229 C 
ENDBRANCH  13  15
ENDBRANCH  11  13
ENDBRANCH   1  11
BRANCH   5  16
ATOM     16  C   LIG    1        3.680  -0.719  -0.036  0.00  0.00    +0.337 C 
ATOM     17  O   LIG    1        4.734  -0.115  -0.043  0.00  0.00    -0.245 OA
BRANCH  16  18
ATOM     18  O   LIG    1        3.675  -2.066  -0.043  0.00  0.00    -0.477 OA
ATOM     19  H   LIG    1        2.862  -2.531  -0.038  0.00  0.00    +0.295 HD
ENDBRANCH  16  18
ENDBRANCH   5  16
TORSDOF 5
