REMARK  Name = ZINC28645005
REMARK                            x       y       z     vdW  Elec       q    Type
REMARK                         _______ _______ _______ _____ _____    ______ ____
ROOT
ATOM      1  C   LIG    1        7.751  -2.629   4.445  0.00  0.00    +0.165 C 
ATOM      2  C   LIG    1        6.480  -3.206   5.076  0.00  0.00    +0.030 C 
ATOM      3  C   LIG    1        6.823  -3.820   6.435  0.00  0.00    +0.003 C 
ATOM      4  C   LIG    1        7.827  -4.959   6.244  0.00  0.00    +0.017 C 
ATOM      5  C   LIG    1        9.113  -4.402   5.626  0.00  0.00    +0.110 C 
ATOM      6  N   LIG    1        8.775  -3.682   4.391  0.00  0.00    -0.165 NA
ENDROOT
BRANCH   1   9
ATOM      7  N   LIG    1        7.787  -0.895   2.682  0.00  0.00    -0.314 N 
ATOM      8  H   LIG    1        8.226  -0.305   3.314  0.00  0.00    +0.149 HD
ATOM      9  C   LIG    1        7.448  -2.146   3.050  0.00  0.00    +0.232 C 
ATOM     10  O   LIG    1        6.900  -2.884   2.258  0.00  0.00    -0.274 OA
BRANCH   7  11
ATOM     11  C   LIG    1        7.493  -0.425   1.325  0.00  0.00    +0.104 C 
BRANCH  11  12
ATOM     12  C   LIG    1        7.976   1.018   1.169  0.00  0.00    +0.023 C 
BRANCH  12  13
ATOM     13  C   LIG    1        7.669   1.508  -0.247  0.00  0.00    +0.036 C 
BRANCH  13  17
ATOM     14  C   LIG    1        9.018   5.537  -0.686  0.00  0.00    +0.000 A 
ATOM     15  C   LIG    1        9.867   4.488  -0.983  0.00  0.00    +0.000 A 
ATOM     16  C   LIG    1        9.431   3.184  -0.841  0.00  0.00    +0.003 A 
ATOM     17  C   LIG    1        8.145   2.930  -0.401  0.00  0.00    -0.047 A 
ATOM     18  C   LIG    1        7.296   3.979  -0.103  0.00  0.00    +0.003 A 
ATOM     19  C   LIG    1        7.732   5.283  -0.246  0.00  0.00    +0.000 A 
ENDBRANCH  13  17
ENDBRANCH  12  13
ENDBRANCH  11  12
ENDBRANCH   7  11
ENDBRANCH   1   9
BRANCH   6  20
ATOM     20  S   LIG    1        9.529  -4.052   2.964  0.00  0.00    +0.062 S 
ATOM     21  O   LIG    1       10.852  -4.451   3.295  0.00  0.00    -0.153 OA
ATOM     22  O   LIG    1        9.258  -2.980   2.071  0.00  0.00    -0.153 OA
BRANCH  20  23
ATOM     23  C   LIG    1        8.725  -5.473   2.303  0.00  0.00    +0.106 A 
ATOM     24  C   LIG    1        9.172  -6.738   2.636  0.00  0.00    +0.028 A 
ATOM     25  C   LIG    1        8.541  -7.854   2.118  0.00  0.00    +0.002 A 
ATOM     26  C   LIG    1        7.463  -7.704   1.266  0.00  0.00    +0.000 A 
ATOM     27  C   LIG    1        7.015  -6.439   0.933  0.00  0.00    +0.002 A 
ATOM     28  C   LIG    1        7.643  -5.324   1.455  0.00  0.00    +0.028 A 
ENDBRANCH  20  23
ENDBRANCH   6  20
TORSDOF 7
