REMARK  Name = ZINC29042448
REMARK                            x       y       z     vdW  Elec       q    Type
REMARK                         _______ _______ _______ _____ _____    ______ ____
ROOT
ATOM      1  C   LIG    1       -4.278  -4.446   1.442  0.00  0.00    +0.000 C 
ENDROOT
BRANCH   1   2
ATOM      2  C   LIG    1       -4.059  -3.831   0.059  0.00  0.00    -0.077 C 
BRANCH   2   6
ATOM      3  N   LIG    1       -1.199  -0.722   0.009  0.00  0.00    -0.331 N 
ATOM      4  C   LIG    1       -1.329  -1.519   1.237  0.00  0.00    +0.086 C 
ATOM      5  C   LIG    1       -2.687  -2.225   1.243  0.00  0.00    -0.060 C 
ATOM      6  N   LIG    1       -2.798  -3.077   0.051  0.00  0.00    +0.382 N 
ATOM      7  H   LIG    1       -1.972  -3.803   0.074  0.00  0.00    -0.082 HD
ATOM      8  C   LIG    1       -2.668  -2.281  -1.177  0.00  0.00    -0.060 C 
ATOM      9  C   LIG    1       -1.310  -1.575  -1.183  0.00  0.00    +0.086 C 
BRANCH   3  15
ATOM     10  C   LIG    1       -0.017   1.389   0.010  0.00  0.00    +0.141 A 
ATOM     11  C   LIG    1        1.175   2.094   0.002  0.00  0.00    +0.047 A 
ATOM     12  C   LIG    1        2.380   1.416  -0.013  0.00  0.00    +0.004 A 
ATOM     13  C   LIG    1        2.400   0.034  -0.021  0.00  0.00    +0.002 A 
ATOM     14  C   LIG    1        1.215  -0.677  -0.013  0.00  0.00    +0.027 A 
ATOM     15  C   LIG    1        0.002  -0.004   0.002  0.00  0.00    +0.072 A 
BRANCH  10  17
ATOM     16  C   LIG    1       -1.145   3.482   0.026  0.00  0.00    +0.277 C 
ATOM     17  O   LIG    1       -1.203   2.055   0.019  0.00  0.00    -0.493 OA
ENDBRANCH  10  17
ENDBRANCH   3  15
ENDBRANCH   2   6
ENDBRANCH   1   2
BRANCH   1  18
ATOM     18  C   LIG    1       -5.591  -5.231   1.450  0.00  0.00    +0.103 C 
BRANCH  18  19
ATOM     19  N   LIG    1       -5.800  -5.819   2.776  0.00  0.00    -0.307 N 
ATOM     20  H   LIG    1       -5.060  -5.657   3.572  0.00  0.00    +0.149 HD
ATOM     21  C   LIG    1       -6.900  -6.559   3.018  0.00  0.00    +0.302 C 
ATOM     22  O   LIG    1       -7.718  -6.738   2.138  0.00  0.00    -0.265 OA
BRANCH  21  23
ATOM     23  C   LIG    1       -7.112  -7.155   4.359  0.00  0.00    +0.314 A 
ATOM     24  N   LIG    1       -8.136  -7.891   4.737  0.00  0.00    -0.183 NA
ATOM     25  C   LIG    1       -7.899  -8.206   6.027  0.00  0.00    +0.204 A 
ATOM     26  N   LIG    1       -6.764  -7.648   6.363  0.00  0.00    -0.055 NA
ATOM     27  O   LIG    1       -6.300  -7.042   5.421  0.00  0.00    -0.328 OA
BRANCH  25  28
ATOM     28  C   LIG    1       -8.768  -9.030   6.904  0.00  0.00    +0.041 A 
ATOM     29  C   LIG    1       -8.403  -9.283   8.229  0.00  0.00    +0.014 A 
ATOM     30  C   LIG    1       -9.251 -10.052   9.008  0.00  0.00    +0.020 A 
ATOM     31  C   LIG    1      -10.415 -10.550   8.452  0.00  0.00    +0.111 A 
ATOM     32  N   LIG    1      -10.730 -10.299   7.196  0.00  0.00    -0.263 NA
ATOM     33  C   LIG    1       -9.957  -9.568   6.418  0.00  0.00    +0.122 A 
ENDBRANCH  25  28
ENDBRANCH  21  23
ENDBRANCH  18  19
ENDBRANCH   1  18
TORSDOF 8
