REMARK  Name = ZINC15206087
REMARK                            x       y       z     vdW  Elec       q    Type
REMARK                         _______ _______ _______ _____ _____    ______ ____
ROOT
ATOM      1  C   LIG    1        2.712   2.234  -2.017  0.00  0.00    +0.018 C 
ATOM      2  C   LIG    1        2.136   1.486  -1.051  0.00  0.00    +0.038 C 
ATOM      3  C   LIG    1        1.050   2.025  -0.136  0.00  0.00    +0.268 C 
ATOM      4  O   LIG    1       -0.051   1.116  -0.159  0.00  0.00    -0.486 OA
ATOM      5  C   LIG    1        0.173  -0.211  -0.016  0.00  0.00    +0.139 A 
ATOM      6  C   LIG    1       -0.845  -1.021   0.464  0.00  0.00    +0.092 A 
ATOM      7  C   LIG    1       -0.649  -2.388   0.600  0.00  0.00    +0.124 A 
ATOM      8  C   LIG    1        0.566  -2.967   0.255  0.00  0.00    +0.091 A 
ATOM      9  C   LIG    1        1.597  -2.175  -0.220  0.00  0.00    +0.135 A 
ATOM     10  C   LIG    1        1.408  -0.793  -0.342  0.00  0.00    +0.105 A 
ATOM     11  C   LIG    1        2.515   0.075  -0.801  0.00  0.00    +0.199 C 
ATOM     12  O   LIG    1        3.650  -0.338  -0.962  0.00  0.00    -0.287 OA
ENDROOT
BRANCH   1  18
ATOM     13  C   LIG    1        2.386   4.307  -3.352  0.00  0.00    +0.011 A 
ATOM     14  C   LIG    1        2.107   5.653  -3.429  0.00  0.00    +0.046 A 
ATOM     15  C   LIG    1        1.871   6.384  -2.270  0.00  0.00    +0.117 A 
ATOM     16  C   LIG    1        1.910   5.759  -1.028  0.00  0.00    +0.046 A 
ATOM     17  C   LIG    1        2.182   4.412  -0.941  0.00  0.00    +0.011 A 
ATOM     18  C   LIG    1        2.420   3.672  -2.105  0.00  0.00    -0.024 A 
BRANCH  15  19
ATOM     19  O   LIG    1        1.603   7.712  -2.351  0.00  0.00    -0.507 OA
ATOM     20  H   LIG    1        2.388   8.275  -2.311  0.00  0.00    +0.292 HD
ENDBRANCH  15  19
ENDBRANCH   1  18
BRANCH   7  21
ATOM     21  O   LIG    1       -1.653  -3.167   1.075  0.00  0.00    -0.507 OA
ATOM     22  H   LIG    1       -1.651  -3.269   2.037  0.00  0.00    +0.292 HD
ENDBRANCH   7  21
BRANCH   9  23
ATOM     23  O   LIG    1        2.784  -2.735  -0.566  0.00  0.00    -0.506 OA
ATOM     24  H   LIG    1        3.421  -2.785   0.160  0.00  0.00    +0.292 HD
ENDBRANCH   9  23
TORSDOF 4
