REMARK  Name = ZINC28570576
REMARK                            x       y       z     vdW  Elec       q    Type
REMARK                         _______ _______ _______ _____ _____    ______ ____
ROOT
ATOM      1  C   UNK    1       -0.013   1.086   0.008  0.00  0.00    +0.068 C 
ENDROOT
BRANCH   1   2
ATOM      2  S   UNK    1       -0.890   1.687  -1.462  0.00  0.00    -0.156 S 
BRANCH   2   3
ATOM      3  C   UNK    1        0.072   1.024  -2.849  0.00  0.00    +0.104 C 
BRANCH   3  10
ATOM      4  C   UNK    1        0.886   3.499  -4.097  0.00  0.00    +0.044 C 
ATOM      5  C   UNK    1       -0.168   2.639  -4.746  0.00  0.00    -0.046 A 
ATOM      6  C   UNK    1       -0.746   3.034  -5.938  0.00  0.00    +0.003 A 
ATOM      7  C   UNK    1       -1.712   2.245  -6.533  0.00  0.00    +0.000 A 
ATOM      8  C   UNK    1       -2.101   1.060  -5.936  0.00  0.00    +0.000 A 
ATOM      9  C   UNK    1       -1.520   0.663  -4.746  0.00  0.00    +0.005 A 
ATOM     10  C   UNK    1       -0.557   1.455  -4.149  0.00  0.00    -0.035 A 
ENDBRANCH   3  10
ENDBRANCH   2   3
ENDBRANCH   1   2
BRANCH   1  11
ATOM     11  C   UNK    1       -0.729   1.579   1.267  0.00  0.00    +0.005 C 
BRANCH  11  12
ATOM     12  C   UNK    1        0.011   1.072   2.506  0.00  0.00    +0.036 C 
BRANCH  12  13
ATOM     13  N   UNK    1        1.349   1.676   2.559  0.00  0.00    +0.387 N 
ATOM     14  H   UNK    1        1.913   1.398   1.656  0.00  0.00    -0.089 HD
ATOM     15  H   UNK    1        1.256   2.771   2.610  0.00  0.00    -0.089 HD
ATOM     16  H   UNK    1        1.881   1.312   3.450  0.00  0.00    -0.089 HD
ENDBRANCH  12  13
BRANCH  12  17
ATOM     17  C   UNK    1       -0.761   1.454   3.743  0.00  0.00    +0.290 C 
ATOM     18  O   UNK    1       -0.423   2.414   4.394  0.00  0.00    -0.253 OA
BRANCH  17  19
ATOM     19  O   UNK    1       -1.824   0.727   4.122  0.00  0.00    -0.482 OA
ATOM     20  H   UNK    1       -2.086  -0.018   3.617  0.00  0.00    +0.295 HD
ENDBRANCH  17  19
ENDBRANCH  12  17
ENDBRANCH  11  12
ENDBRANCH   1  11
TORSDOF 8
