REMARK  Name = ZINC29056374
REMARK                            x       y       z     vdW  Elec       q    Type
REMARK                         _______ _______ _______ _____ _____    ______ ____
ROOT
ATOM      1  C   LIG    1       -0.013   1.086   0.008  0.00  0.00    +0.074 C 
ATOM      2  C   LIG    1       -0.729   1.579   1.267  0.00  0.00    +0.165 C 
ATOM      3  C   LIG    1       -2.164   1.050   1.278  0.00  0.00    +0.074 C 
ATOM      4  O   LIG    1       -0.748   3.009   1.275  0.00  0.00    -0.346 OA
ATOM      5  C   LIG    1       -1.376   3.571   2.431  0.00  0.00    +0.212 C 
ATOM      6  C   LIG    1       -0.649   3.071   3.684  0.00  0.00    +0.216 C 
ATOM      7 BR   LIG    1        1.190   3.767   3.701  0.00  0.00    -0.049 Br
ATOM      8  C   LIG    1       -0.617   1.538   3.660  0.00  0.00    +0.212 C 
ATOM      9  O   LIG    1       -0.037   1.106   2.425  0.00  0.00    -0.346 OA
ENDROOT
BRANCH   6  10
ATOM     10  N   LIG    1       -1.361   3.528   4.880  0.00  0.00    -0.007 N 
ATOM     11  O   LIG    1       -0.791   4.228   5.698  0.00  0.00    -0.134 OA
BRANCH  10  12
ATOM     12  O   LIG    1       -2.522   3.208   5.057  0.00  0.00    -0.399 OA
ATOM     13  H   LIG    1       -2.961   2.669   4.428  0.00  0.00    +0.329 HD
ENDBRANCH  10  12
ENDBRANCH   6  10
TORSDOF 2
