REMARK  Name = ZINC49765554
REMARK                            x       y       z     vdW  Elec       q    Type
REMARK                         _______ _______ _______ _____ _____    ______ ____
ROOT
ATOM      1  N   LIG    1        0.735  -3.946  -2.379  0.00  0.00    -0.314 N 
ATOM      2  C   LIG    1        1.579  -4.872  -1.775  0.00  0.00    +0.068 A 
ATOM      3  C   LIG    1        2.791  -4.755  -1.109  0.00  0.00    +0.028 A 
ATOM      4  C   LIG    1        3.411  -5.881  -0.605  0.00  0.00    +0.002 A 
ATOM      5  C   LIG    1        2.828  -7.127  -0.761  0.00  0.00    +0.002 A 
ATOM      6  C   LIG    1        1.623  -7.255  -1.422  0.00  0.00    +0.028 A 
ATOM      7  C   LIG    1        0.992  -6.129  -1.933  0.00  0.00    +0.066 A 
ATOM      8  N   LIG    1       -0.198  -5.942  -2.629  0.00  0.00    -0.326 N 
ATOM      9  H   LIG    1       -0.823  -6.638  -2.884  0.00  0.00    +0.169 HD
ATOM     10  C   LIG    1       -0.338  -4.613  -2.884  0.00  0.00    +0.201 A 
ATOM     11  N   LIG    1       -1.357  -4.056  -3.527  0.00  0.00    -0.142 NA
ENDROOT
BRANCH  11  12
ATOM     12  C   LIG    1       -2.416  -4.797  -3.872  0.00  0.00    +0.270 C 
ATOM     13  O   LIG    1       -2.486  -5.961  -3.517  0.00  0.00    -0.268 OA
BRANCH  12  14
ATOM     14  C   LIG    1       -3.502  -4.204  -4.685  0.00  0.00    +0.041 A 
ATOM     15  C   LIG    1       -3.422  -2.874  -5.098  0.00  0.00    +0.013 A 
ATOM     16  C   LIG    1       -4.437  -2.327  -5.855  0.00  0.00    +0.003 A 
ATOM     17  C   LIG    1       -5.534  -3.095  -6.204  0.00  0.00    +0.032 A 
ATOM     18  C   LIG    1       -5.620  -4.414  -5.797  0.00  0.00    +0.122 A 
ATOM     19  C   LIG    1       -4.608  -4.974  -5.045  0.00  0.00    +0.045 A 
BRANCH  18  20
ATOM     20  N   LIG    1       -6.797  -5.228  -6.175  0.00  0.00    +0.006 N 
ATOM     21  O   LIG    1       -7.682  -4.740  -6.838  0.00  0.00    -0.130 OA
BRANCH  20  22
ATOM     22  O   LIG    1       -6.873  -6.381  -5.820  0.00  0.00    -0.396 OA
ATOM     23  H   LIG    1       -6.188  -6.760  -5.306  0.00  0.00    +0.329 HD
ENDBRANCH  20  22
ENDBRANCH  18  20
ENDBRANCH  12  14
ENDBRANCH  11  12
BRANCH   1  24
ATOM     24  C   LIG    1        0.959  -2.500  -2.453  0.00  0.00    +0.106 C 
BRANCH  24  25
ATOM     25  C   LIG    1        0.340  -1.825  -1.227  0.00  0.00    -0.057 C 
BRANCH  25  26
ATOM     26  N   LIG    1        0.672  -0.394  -1.237  0.00  0.00    +0.380 N 
ATOM     27  H   LIG    1        1.673  -0.281  -1.281  0.00  0.00    -0.082 HD
BRANCH  26  29
ATOM     28  C   LIG    1        0.501   1.705  -2.487  0.00  0.00    -0.017 C 
ATOM     29  C   LIG    1        0.055   0.244  -2.408  0.00  0.00    -0.082 C 
ENDBRANCH  26  29
BRANCH  26  30
ATOM     30  C   LIG    1        0.161   0.235  -0.011  0.00  0.00    -0.082 C 
ATOM     31  C   LIG    1        0.890  -0.346   1.202  0.00  0.00    -0.017 C 
ENDBRANCH  26  30
ENDBRANCH  25  26
ENDBRANCH  24  25
ENDBRANCH   1  24
TORSDOF 9
