REMARK  Name = ZINC33353703
REMARK                            x       y       z     vdW  Elec       q    Type
REMARK                         _______ _______ _______ _____ _____    ______ ____
ROOT
ATOM      1  C   LIG    1       -2.550  -0.538   0.128  0.00  0.00    +0.203 C 
ATOM      2  C   LIG    1       -3.149  -0.883   1.463  0.00  0.00    +0.041 C 
ATOM      3  C   LIG    1       -3.597   0.281   2.005  0.00  0.00    +0.027 C 
ATOM      4  N   LIG    1       -3.353   1.335   1.181  0.00  0.00    -0.242 N 
ATOM      5  C   LIG    1       -4.274   0.315   3.360  0.00  0.00    +0.058 C 
ATOM      6  C   LIG    1       -4.928  -1.051   3.600  0.00  0.00    -0.023 C 
ATOM      7  C   LIG    1       -6.035  -1.271   2.567  0.00  0.00    +0.011 C 
ATOM      8  C   LIG    1       -5.537  -1.081   5.004  0.00  0.00    +0.011 C 
ATOM      9  C   LIG    1       -3.889  -2.166   3.475  0.00  0.00    +0.086 C 
ATOM     10  C   LIG    1       -3.264  -2.130   2.097  0.00  0.00    +0.163 C 
ATOM     11  O   LIG    1       -2.874  -3.146   1.558  0.00  0.00    -0.292 OA
ATOM     12  C   LIG    1       -2.738   0.966   0.040  0.00  0.00    +0.248 C 
ATOM     13  O   LIG    1       -2.402   1.690  -0.873  0.00  0.00    -0.273 OA
ENDROOT
BRANCH   1  16
ATOM     14  C   LIG    1       -0.365   0.531   2.072  0.00  0.00    +0.065 C 
ATOM     15  C   LIG    1       -0.139  -0.432   0.935  0.00  0.00    +0.040 A 
ATOM     16  C   LIG    1       -1.086  -0.894   0.094  0.00  0.00    +0.067 A 
ATOM     17  C   LIG    1       -0.466  -1.771  -0.826  0.00  0.00    +0.277 A 
ATOM     18  N   LIG    1        0.847  -1.822  -0.521  0.00  0.00    -0.219 N 
ATOM     19  O   LIG    1       -1.017  -2.372  -1.731  0.00  0.00    -0.265 OA
ATOM     20  N   LIG    1        1.060  -0.980   0.579  0.00  0.00    -0.294 N 
ATOM     21  H   LIG    1        1.912  -0.817   1.014  0.00  0.00    +0.187 HD
BRANCH  18  22
ATOM     22  C   LIG    1        1.820  -2.574  -1.185  0.00  0.00    +0.067 A 
ATOM     23  C   LIG    1        1.469  -3.361  -2.274  0.00  0.00    +0.028 A 
ATOM     24  C   LIG    1        2.433  -4.103  -2.929  0.00  0.00    +0.002 A 
ATOM     25  C   LIG    1        3.747  -4.062  -2.501  0.00  0.00    +0.000 A 
ATOM     26  C   LIG    1        4.101  -3.280  -1.417  0.00  0.00    +0.002 A 
ATOM     27  C   LIG    1        3.142  -2.532  -0.761  0.00  0.00    +0.028 A 
ENDBRANCH  18  22
ENDBRANCH   1  16
BRANCH   4  28
ATOM     28  C   LIG    1       -3.703   2.657   1.485  0.00  0.00    +0.042 A 
ATOM     29  C   LIG    1       -3.072   3.321   2.530  0.00  0.00    +0.024 A 
ATOM     30  C   LIG    1       -3.418   4.624   2.827  0.00  0.00    +0.003 A 
ATOM     31  C   LIG    1       -4.391   5.269   2.086  0.00  0.00    +0.020 A 
ATOM     32  C   LIG    1       -5.022   4.611   1.045  0.00  0.00    +0.043 A 
ATOM     33 CL   LIG    1       -6.244   5.425   0.118  0.00  0.00    -0.083 Cl
ATOM     34  C   LIG    1       -4.675   3.309   0.738  0.00  0.00    +0.043 A 
ENDBRANCH   4  28
BRANCH   1  35
ATOM     35  C   LIG    1       -3.301  -1.243  -1.004  0.00  0.00    +0.412 C 
ATOM     36  F   LIG    1       -2.757  -0.860  -2.234  0.00  0.00    -0.169 F 
ATOM     37  F   LIG    1       -4.653  -0.884  -0.960  0.00  0.00    -0.169 F 
ATOM     38  F   LIG    1       -3.182  -2.628  -0.851  0.00  0.00    -0.169 F 
ENDBRANCH   1  35
TORSDOF 4
