REMARK  Name = ZINC28385975
REMARK                            x       y       z     vdW  Elec       q    Type
REMARK                         _______ _______ _______ _____ _____    ______ ____
ROOT
ATOM      1  C   LIG    1        0.071   1.801  -0.003  0.00  0.00    +0.009 C 
ENDROOT
BRANCH   1   2
ATOM      2  C   LIG    1       -0.717   2.038   1.287  0.00  0.00    +0.116 C 
BRANCH   2   6
ATOM      3  C   LIG    1        1.685   0.940   4.644  0.00  0.00    +0.000 A 
ATOM      4  C   LIG    1        1.359   2.266   4.432  0.00  0.00    +0.000 A 
ATOM      5  C   LIG    1        0.582   2.622   3.345  0.00  0.00    +0.005 A 
ATOM      6  C   LIG    1        0.131   1.651   2.471  0.00  0.00    -0.026 A 
ATOM      7  C   LIG    1        0.452   0.324   2.687  0.00  0.00    +0.005 A 
ATOM      8  C   LIG    1        1.233  -0.031   3.770  0.00  0.00    +0.000 A 
ENDBRANCH   2   6
BRANCH   2   9
ATOM      9  C   LIG    1       -1.086   3.496   1.389  0.00  0.00    -0.026 A 
ATOM     10  C   LIG    1       -0.592   4.400   0.467  0.00  0.00    +0.005 A 
ATOM     11  C   LIG    1       -0.934   5.736   0.558  0.00  0.00    +0.000 A 
ATOM     12  C   LIG    1       -1.763   6.170   1.576  0.00  0.00    +0.000 A 
ATOM     13  C   LIG    1       -2.252   5.267   2.501  0.00  0.00    +0.000 A 
ATOM     14  C   LIG    1       -1.914   3.929   2.407  0.00  0.00    +0.005 A 
ENDBRANCH   2   9
BRANCH   2  15
ATOM     15  C   LIG    1       -1.971   1.202   1.271  0.00  0.00    +0.320 C 
ATOM     16  O   LIG    1       -2.157   0.377   2.133  0.00  0.00    -0.250 OA
BRANCH  15  17
ATOM     17  O   LIG    1       -2.880   1.375   0.299  0.00  0.00    -0.480 OA
ATOM     18  H   LIG    1       -2.736   2.016  -0.369  0.00  0.00    +0.295 HD
ENDBRANCH  15  17
ENDBRANCH   2  15
ENDBRANCH   1   2
BRANCH   1  19
ATOM     19  C   LIG    1        0.321   0.301  -0.179  0.00  0.00    -0.077 C 
BRANCH  19  20
ATOM     20  N   LIG    1        1.000   0.065  -1.460  0.00  0.00    +0.380 N 
ATOM     21  H   LIG    1        1.882   0.721  -1.504  0.00  0.00    -0.082 HD
ATOM     22  C   LIG    1        0.128   0.414  -2.589  0.00  0.00    -0.076 C 
ATOM     23  C   LIG    1        0.912   0.294  -3.898  0.00  0.00    +0.021 C 
ATOM     24  C   LIG    1        1.427  -1.140  -4.050  0.00  0.00    +0.088 C 
ATOM     25  C   LIG    1        2.293  -1.494  -2.837  0.00  0.00    +0.021 C 
ATOM     26  C   LIG    1        1.468  -1.323  -1.560  0.00  0.00    -0.076 C 
BRANCH  24  27
ATOM     27  C   LIG    1        2.251  -1.250  -5.307  0.00  0.00    -0.016 A 
ATOM     28  C   LIG    1        3.610  -1.002  -5.266  0.00  0.00    +0.008 A 
ATOM     29  C   LIG    1        4.367  -1.109  -6.417  0.00  0.00    +0.020 A 
ATOM     30  C   LIG    1        3.763  -1.452  -7.613  0.00  0.00    +0.041 A 
ATOM     31 CL   LIG    1        4.712  -1.580  -9.061  0.00  0.00    -0.084 Cl
ATOM     32  C   LIG    1        2.401  -1.695  -7.654  0.00  0.00    +0.020 A 
ATOM     33  C   LIG    1        1.646  -1.593  -6.501  0.00  0.00    +0.008 A 
ENDBRANCH  24  27
BRANCH  24  34
ATOM     34  O   LIG    1        0.319  -2.039  -4.125  0.00  0.00    -0.384 OA
ATOM     35  H   LIG    1        0.494  -3.119  -4.236  0.00  0.00    +0.211 HD
ENDBRANCH  24  34
ENDBRANCH  19  20
ENDBRANCH   1  19
TORSDOF 9
