REMARK  Name = ZINC27196940
REMARK                            x       y       z     vdW  Elec       q    Type
REMARK                         _______ _______ _______ _____ _____    ______ ____
ROOT
ATOM      1  C   LIG    1        1.334   1.859  -0.001  0.00  0.00    +0.176 C 
ATOM      2  C   LIG    1        2.264   0.702  -0.435  0.00  0.00    +0.042 C 
ATOM      3  C   LIG    1        2.499   0.721  -1.947  0.00  0.00    +0.012 C 
ATOM      4  C   LIG    1        1.421  -0.527  -0.017  0.00  0.00    +0.130 C 
ATOM      5  C   LIG    1        0.002  -0.004   0.002  0.00  0.00    +0.237 C 
ATOM      6  N   LIG    1       -0.015   1.283   0.009  0.00  0.00    -0.277 N 
ATOM      7  H   LIG    1       -0.975   1.820   0.021  0.00  0.00    +0.304 HD
ENDROOT
BRANCH   5   8
ATOM      8  N   LIG    1       -1.116  -0.795   0.011  0.00  0.00    -0.254 N 
ATOM      9  H   LIG    1       -1.015  -1.891   0.004  0.00  0.00    +0.288 HD
ATOM     10  H   LIG    1       -2.115  -0.335   0.025  0.00  0.00    +0.288 HD
ENDBRANCH   5   8
BRANCH   1  11
ATOM     11  C   LIG    1        1.413   3.010  -1.006  0.00  0.00    +0.049 C 
BRANCH  11  13
ATOM     12  C   LIG    1        0.608   5.315  -1.535  0.00  0.00    +0.004 C 
ATOM     13  C   LIG    1        0.529   4.164  -0.530  0.00  0.00    +0.001 C 
ENDBRANCH  11  13
ENDBRANCH   1  11
TORSDOF 3
