REMARK  Name = ZINC64859559
REMARK                            x       y       z     vdW  Elec       q    Type
REMARK                         _______ _______ _______ _____ _____    ______ ____
ROOT
ATOM      1  C   LIG    1        2.489  -2.487  -4.353  0.00  0.00    +0.028 C 
ATOM      2  C   LIG    1        2.628  -3.840  -4.376  0.00  0.00    +0.078 C 
ATOM      3  C   LIG    1        3.332  -4.704  -5.351  0.00  0.00    +0.275 C 
ATOM      4  N   LIG    1        3.299  -5.997  -5.114  0.00  0.00    -0.168 NA
ATOM      5  C   LIG    1        2.675  -6.512  -4.066  0.00  0.00    +0.102 C 
ATOM      6  O   LIG    1        3.912  -4.242  -6.320  0.00  0.00    -0.267 OA
ATOM      7  S   LIG    1        2.019  -5.074  -3.234  0.00  0.00    -0.066 S 
ENDROOT
BRANCH   5   8
ATOM      8  C   LIG    1        2.555  -7.930  -3.676  0.00  0.00    +0.005 A 
ATOM      9  C   LIG    1        1.844  -8.284  -2.527  0.00  0.00    +0.012 A 
ATOM     10  C   LIG    1        1.735  -9.611  -2.168  0.00  0.00    +0.020 A 
ATOM     11  C   LIG    1        2.330 -10.592  -2.944  0.00  0.00    +0.041 A 
ATOM     12 CL   LIG    1        2.189 -12.261  -2.486  0.00  0.00    -0.084 Cl
ATOM     13  C   LIG    1        3.037 -10.248  -4.085  0.00  0.00    +0.020 A 
ATOM     14  C   LIG    1        3.148  -8.925  -4.458  0.00  0.00    +0.012 A 
ENDBRANCH   5   8
BRANCH   1  18
ATOM     15  C   LIG    1        0.757  -0.592  -0.980  0.00  0.00    +0.120 A 
ATOM     16  C   LIG    1        1.058  -1.949  -0.934  0.00  0.00    +0.046 A 
ATOM     17  C   LIG    1        1.620  -2.570  -2.026  0.00  0.00    +0.011 A 
ATOM     18  C   LIG    1        1.889  -1.831  -3.186  0.00  0.00    -0.024 A 
ATOM     19  C   LIG    1        1.585  -0.464  -3.227  0.00  0.00    +0.011 A 
ATOM     20  C   LIG    1        1.018   0.145  -2.130  0.00  0.00    +0.046 A 
BRANCH  15  22
ATOM     21  C   LIG    1       -0.038  -0.800   1.249  0.00  0.00    +0.277 C 
ATOM     22  O   LIG    1        0.203   0.015   0.100  0.00  0.00    -0.495 OA
ENDBRANCH  15  22
ENDBRANCH   1  18
TORSDOF 3
