REMARK  Name = ZINC38349969
REMARK                            x       y       z     vdW  Elec       q    Type
REMARK                         _______ _______ _______ _____ _____    ______ ____
ROOT
ATOM      1  C   LIG    1        0.405   1.183  -1.743  0.00  0.00    +0.012 C 
ATOM      2  C   LIG    1        0.417  -0.330  -1.462  0.00  0.00    -0.019 C 
ATOM      3  C   LIG    1        1.352  -0.993  -2.466  0.00  0.00    +0.008 C 
ATOM      4  C   LIG    1        2.821  -0.682  -2.141  0.00  0.00    +0.005 C 
ATOM      5  C   LIG    1        3.104  -1.219  -0.739  0.00  0.00    +0.004 C 
ATOM      6  C   LIG    1        2.313  -0.409   0.281  0.00  0.00    -0.023 C 
ATOM      7  C   LIG    1        2.712   1.061   0.294  0.00  0.00    +0.012 C 
ATOM      8  C   LIG    1        2.580  -0.988   1.681  0.00  0.00    +0.041 C 
ATOM      9  C   LIG    1        4.075  -0.926   1.985  0.00  0.00    +0.144 C 
ATOM     10  C   LIG    1        4.845  -1.793   0.995  0.00  0.00    +0.149 C 
ATOM     11  C   LIG    1        4.579  -1.385  -0.454  0.00  0.00    -0.003 C 
ATOM     12  C   LIG    1        5.113  -2.542  -1.335  0.00  0.00    +0.014 C 
ATOM     13  C   LIG    1        5.396  -0.143  -0.806  0.00  0.00    +0.014 C 
ATOM     14  C   LIG    1       -1.020  -0.835  -1.670  0.00  0.00    -0.005 C 
ATOM     15  C   LIG    1       -0.999  -2.366  -1.555  0.00  0.00    +0.016 C 
ATOM     16  C   LIG    1       -1.515  -0.490  -3.067  0.00  0.00    +0.012 C 
ATOM     17  C   LIG    1       -3.026  -0.675  -3.201  0.00  0.00    +0.019 C 
ATOM     18  C   LIG    1       -3.770   0.171  -2.174  0.00  0.00    +0.074 C 
ATOM     19  C   LIG    1       -3.433  -0.320  -0.769  0.00  0.00    +0.033 C 
ATOM     20  C   LIG    1       -3.982  -1.720  -0.530  0.00  0.00    +0.015 C 
ATOM     21  C   LIG    1       -5.494  -1.768  -0.755  0.00  0.00    -0.034 C 
ATOM     22  C   LIG    1       -5.967  -3.221  -0.600  0.00  0.00    +0.011 C 
ATOM     23  C   LIG    1       -6.215  -0.903   0.277  0.00  0.00    +0.011 C 
ATOM     24  C   LIG    1       -5.819  -1.297  -2.171  0.00  0.00    +0.007 C 
ATOM     25  C   LIG    1       -5.277   0.107  -2.417  0.00  0.00    +0.019 C 
ATOM     26  C   LIG    1       -1.925  -0.315  -0.594  0.00  0.00    -0.063 C 
ATOM     27  C   LIG    1       -1.478   0.166   0.538  0.00  0.00    -0.026 C 
ATOM     28  C   LIG    1       -0.031   0.274   0.914  0.00  0.00    +0.031 C 
ATOM     29  C   LIG    1        0.821  -0.584  -0.019  0.00  0.00    +0.006 C 
ENDROOT
BRANCH   9  30
ATOM     30  O   LIG    1        4.296  -1.430   3.312  0.00  0.00    -0.389 OA
ATOM     31  H   LIG    1        5.224  -1.426   3.585  0.00  0.00    +0.210 HD
ENDBRANCH   9  30
BRANCH  10  32
ATOM     32  O   LIG    1        6.248  -1.683   1.262  0.00  0.00    -0.389 OA
ATOM     33  H   LIG    1        6.503  -1.967   2.150  0.00  0.00    +0.210 HD
ENDBRANCH  10  32
BRANCH  18  34
ATOM     34  C   LIG    1       -3.346   1.617  -2.303  0.00  0.00    +0.312 C 
ATOM     35  O   LIG    1       -3.521   2.212  -3.353  0.00  0.00    -0.250 OA
BRANCH  34  36
ATOM     36  O   LIG    1       -2.830   2.188  -1.357  0.00  0.00    -0.480 OA
ATOM     37  H   LIG    1       -2.696   1.731  -0.550  0.00  0.00    +0.295 HD
ENDBRANCH  34  36
ENDBRANCH  18  34
TORSDOF 4
