REMARK  Name = ZINC27075486
REMARK                            x       y       z     vdW  Elec       q    Type
REMARK                         _______ _______ _______ _____ _____    ______ ____
ROOT
ATOM      1  C   LIG    1       -1.564  -2.227   0.764  0.00  0.00    -0.018 A 
ATOM      2  C   LIG    1       -1.722  -2.787  -0.508  0.00  0.00    -0.002 A 
ATOM      3  C   LIG    1       -1.607  -4.174  -0.638  0.00  0.00    +0.010 A 
ATOM      4  C   LIG    1       -1.355  -4.933   0.487  0.00  0.00    +0.050 A 
ATOM      5  N   LIG    1       -1.219  -4.365   1.670  0.00  0.00    -0.255 NA
ATOM      6  C   LIG    1       -1.315  -3.059   1.835  0.00  0.00    +0.048 A 
ENDROOT
BRANCH   2   7
ATOM      7  C   LIG    1       -1.997  -1.932  -1.687  0.00  0.00    +0.024 A 
ATOM      8  C   LIG    1       -0.949  -1.497  -2.496  0.00  0.00    +0.015 A 
ATOM      9  C   LIG    1       -1.209  -0.702  -3.593  0.00  0.00    +0.039 A 
ATOM     10  C   LIG    1       -2.511  -0.332  -3.893  0.00  0.00    +0.127 A 
ATOM     11  F   LIG    1       -2.759   0.447  -4.969  0.00  0.00    -0.205 F 
ATOM     12  C   LIG    1       -3.559  -0.758  -3.095  0.00  0.00    +0.084 A 
ATOM     13  C   LIG    1       -3.311  -1.562  -1.995  0.00  0.00    +0.127 A 
BRANCH  13  14
ATOM     14  O   LIG    1       -4.338  -1.986  -1.215  0.00  0.00    -0.506 OA
ATOM     15  H   LIG    1       -5.371  -1.695  -1.459  0.00  0.00    +0.292 HD
ENDBRANCH  13  14
ENDBRANCH   2   7
BRANCH   4  16
ATOM     16  C   LIG    1       -1.236  -6.430   0.362  0.00  0.00    +0.032 C 
ATOM     17  C   LIG    1       -2.426  -7.096   1.055  0.00  0.00    +0.014 C 
ATOM     18  C   LIG    1        0.065  -6.894   1.022  0.00  0.00    +0.014 C 
ENDBRANCH   4  16
BRANCH   6  19
ATOM     19  C   LIG    1       -1.149  -2.470   3.212  0.00  0.00    +0.032 C 
ATOM     20  C   LIG    1        0.272  -2.736   3.713  0.00  0.00    +0.014 C 
ATOM     21  C   LIG    1       -2.156  -3.114   4.167  0.00  0.00    +0.014 C 
ENDBRANCH   6  19
BRANCH   3  22
ATOM     22  C   LIG    1       -1.762  -4.831  -1.985  0.00  0.00    +0.144 C 
ATOM     23  C   LIG    1       -0.484  -4.626  -2.802  0.00  0.00    +0.043 C 
BRANCH  22  24
ATOM     24  O   LIG    1       -2.868  -4.248  -2.676  0.00  0.00    -0.387 OA
ATOM     25  H   LIG    1       -3.137  -4.601  -3.682  0.00  0.00    +0.210 HD
ENDBRANCH  22  24
ENDBRANCH   3  22
BRANCH   1  26
ATOM     26  C   LIG    1       -1.671  -0.737   0.963  0.00  0.00    +0.037 C 
BRANCH  26  27
ATOM     27  C   LIG    1       -0.275  -0.114   0.916  0.00  0.00    +0.004 C 
BRANCH  27  29
ATOM     28  C   LIG    1        1.013   2.021   1.071  0.00  0.00    +0.004 C 
ATOM     29  C   LIG    1       -0.384   1.399   1.118  0.00  0.00    -0.003 C 
ENDBRANCH  27  29
ENDBRANCH  26  27
ENDBRANCH   1  26
TORSDOF 9
