REMARK  Name = ZINC38334036
REMARK                            x       y       z     vdW  Elec       q    Type
REMARK                         _______ _______ _______ _____ _____    ______ ____
ROOT
ATOM      1  C   LIG    1        3.529  -2.015  -0.914  0.00  0.00    +0.055 C 
ATOM      2  C   LIG    1        4.841  -2.805  -0.892  0.00  0.00    -0.050 C 
ATOM      3  C   LIG    1        4.584  -4.174  -0.249  0.00  0.00    -0.021 C 
ATOM      4  C   LIG    1        4.049  -3.954   1.171  0.00  0.00    +0.017 C 
ATOM      5  C   LIG    1        2.759  -3.133   1.093  0.00  0.00    +0.085 C 
ATOM      6  C   LIG    1        3.512  -4.905  -1.068  0.00  0.00    +0.017 C 
ATOM      7  C   LIG    1        2.237  -4.057  -1.084  0.00  0.00    +0.085 C 
ATOM      8  N   LIG    1        2.461  -2.826  -0.314  0.00  0.00    -0.300 NA
ENDROOT
BRANCH   2   9
ATOM      9  N   LIG    1        5.845  -2.072  -0.110  0.00  0.00    +0.385 N 
ATOM     10  H   LIG    1        5.518  -1.964   0.839  0.00  0.00    -0.085 HD
ATOM     11  H   LIG    1        5.992  -1.162  -0.521  0.00  0.00    -0.085 HD
BRANCH   9  12
ATOM     12  C   LIG    1        7.109  -2.820  -0.111  0.00  0.00    -0.045 C 
BRANCH  12  13
ATOM     13  C   LIG    1        8.139  -2.068   0.692  0.00  0.00    -0.046 A 
ATOM     14  C   LIG    1        9.086  -1.294   0.048  0.00  0.00    +0.003 A 
ATOM     15  C   LIG    1       10.031  -0.604   0.784  0.00  0.00    +0.000 A 
ATOM     16  C   LIG    1       10.029  -0.687   2.164  0.00  0.00    +0.001 A 
ATOM     17  C   LIG    1        9.082  -1.460   2.809  0.00  0.00    +0.020 A 
ATOM     18  C   LIG    1        8.133  -2.147   2.073  0.00  0.00    +0.042 A 
ATOM     19 CL   LIG    1        6.939  -3.114   2.882  0.00  0.00    -0.083 Cl
ENDBRANCH  12  13
ENDBRANCH   9  12
ENDBRANCH   2   9
BRANCH   1  20
ATOM     20  C   LIG    1        3.699  -0.722  -0.113  0.00  0.00    +0.064 C 
BRANCH  20  24
ATOM     21  C   LIG    1        6.400   1.875  -2.163  0.00  0.00    +0.000 A 
ATOM     22  C   LIG    1        6.501   1.715  -0.794  0.00  0.00    +0.000 A 
ATOM     23  C   LIG    1        5.626   0.875  -0.131  0.00  0.00    +0.004 A 
ATOM     24  C   LIG    1        4.651   0.195  -0.836  0.00  0.00    -0.039 A 
ATOM     25  C   LIG    1        4.550   0.356  -2.205  0.00  0.00    +0.004 A 
ATOM     26  C   LIG    1        5.426   1.195  -2.869  0.00  0.00    +0.000 A 
ENDBRANCH  20  24
BRANCH  20  27
ATOM     27  C   LIG    1        2.362  -0.043   0.034  0.00  0.00    -0.039 A 
ATOM     28  C   LIG    1        1.902   0.313   1.288  0.00  0.00    +0.004 A 
ATOM     29  C   LIG    1        0.675   0.936   1.423  0.00  0.00    +0.000 A 
ATOM     30  C   LIG    1       -0.091   1.203   0.303  0.00  0.00    +0.000 A 
ATOM     31  C   LIG    1        0.369   0.848  -0.951  0.00  0.00    +0.000 A 
ATOM     32  C   LIG    1        1.598   0.229  -1.086  0.00  0.00    +0.004 A 
ENDBRANCH  20  27
ENDBRANCH   1  20
TORSDOF 6
