REMARK  Name = ZINC22116608
REMARK                            x       y       z     vdW  Elec       q    Type
REMARK                         _______ _______ _______ _____ _____    ______ ____
ROOT
ATOM      1  C   LIG    1       -1.293  -0.774   0.011  0.00  0.00    +0.032 C 
ATOM      2  C   LIG    1       -1.352  -1.642   1.267  0.00  0.00    -0.070 C 
ATOM      3  N   LIG    1       -2.750  -1.740   1.699  0.00  0.00    +0.380 N 
ATOM      4  H   LIG    1       -3.110  -0.814   1.878  0.00  0.00    -0.086 HD
ATOM      5  H   LIG    1       -2.800  -2.284   2.547  0.00  0.00    -0.086 HD
ATOM      6  C   LIG    1       -3.560  -2.381   0.663  0.00  0.00    -0.078 C 
ATOM      7  C   LIG    1       -2.682  -3.417  -0.047  0.00  0.00    +0.018 C 
ATOM      8  C   LIG    1       -2.044  -2.822  -1.275  0.00  0.00    -0.023 A 
ATOM      9  C   LIG    1       -2.134  -3.529  -2.467  0.00  0.00    +0.089 A 
ATOM     10 CL   LIG    1       -3.007  -5.028  -2.517  0.00  0.00    -0.079 Cl
ATOM     11  C   LIG    1       -1.529  -3.048  -3.614  0.00  0.00    +0.177 A 
ATOM     12  C   LIG    1       -0.827  -1.848  -3.570  0.00  0.00    +0.160 A 
ATOM     13  C   LIG    1       -0.756  -1.139  -2.384  0.00  0.00    +0.053 A 
ATOM     14  C   LIG    1       -1.376  -1.618  -1.238  0.00  0.00    -0.034 A 
ENDROOT
BRANCH   1  20
ATOM     15  C   LIG    1       -0.017   1.378   0.010  0.00  0.00    +0.008 A 
ATOM     16  C   LIG    1        1.169   2.087   0.002  0.00  0.00    +0.045 A 
ATOM     17  C   LIG    1        2.380   1.409  -0.013  0.00  0.00    +0.117 A 
ATOM     18  C   LIG    1        2.396   0.022  -0.021  0.00  0.00    +0.045 A 
ATOM     19  C   LIG    1        1.207  -0.681  -0.013  0.00  0.00    +0.008 A 
ATOM     20  C   LIG    1        0.002  -0.004   0.002  0.00  0.00    -0.042 A 
BRANCH  17  21
ATOM     21  O   LIG    1        3.548   2.104  -0.021  0.00  0.00    -0.507 OA
ATOM     22  H   LIG    1        3.895   2.300   0.860  0.00  0.00    +0.292 HD
ENDBRANCH  17  21
ENDBRANCH   1  20
BRANCH  11  23
ATOM     23  O   LIG    1       -1.621  -3.744  -4.779  0.00  0.00    -0.502 OA
ATOM     24  H   LIG    1       -1.210  -3.416  -5.555  0.00  0.00    +0.292 HD
ENDBRANCH  11  23
BRANCH  12  25
ATOM     25  O   LIG    1       -0.215  -1.373  -4.687  0.00  0.00    -0.503 OA
ATOM     26  H   LIG    1        0.698  -1.673  -4.793  0.00  0.00    +0.292 HD
ENDBRANCH  12  25
TORSDOF 4
