REMARK  Name = ZINC16951200
REMARK                            x       y       z     vdW  Elec       q    Type
REMARK                         _______ _______ _______ _____ _____    ______ ____
ROOT
ATOM      1  C   UNK    1        0.086   1.116   2.944  0.00  0.00    +0.091 C 
ENDROOT
BRANCH   1   5
ATOM      2  C   UNK    1       -2.676   3.928   4.602  0.00  0.00    -0.018 A 
ATOM      3  C   UNK    1       -1.890   4.282   3.507  0.00  0.00    +0.009 A 
ATOM      4  C   UNK    1       -1.000   3.370   2.976  0.00  0.00    +0.006 A 
ATOM      5  C   UNK    1       -0.887   2.107   3.529  0.00  0.00    -0.023 A 
ATOM      6  C   UNK    1       -1.669   1.749   4.612  0.00  0.00    +0.006 A 
ATOM      7  C   UNK    1       -2.558   2.654   5.154  0.00  0.00    +0.009 A 
BRANCH   2  11
ATOM      8  C   UNK    1       -5.424   6.723   6.250  0.00  0.00    +0.000 A 
ATOM      9  C   UNK    1       -5.311   5.460   6.802  0.00  0.00    +0.001 A 
ATOM     10  C   UNK    1       -4.421   4.549   6.271  0.00  0.00    +0.008 A 
ATOM     11  C   UNK    1       -3.635   4.903   5.177  0.00  0.00    -0.018 A 
ATOM     12  C   UNK    1       -3.749   6.178   4.627  0.00  0.00    +0.008 A 
ATOM     13  C   UNK    1       -4.646   7.080   5.163  0.00  0.00    +0.001 A 
ENDBRANCH   2  11
ENDBRANCH   1   5
BRANCH   1  14
ATOM     14  C   UNK    1        1.468   1.718   2.929  0.00  0.00    -0.023 A 
ATOM     15  C   UNK    1        1.813   2.679   3.861  0.00  0.00    +0.005 A 
ATOM     16  C   UNK    1        3.082   3.228   3.849  0.00  0.00    +0.000 A 
ATOM     17  C   UNK    1        4.002   2.823   2.900  0.00  0.00    +0.000 A 
ATOM     18  C   UNK    1        3.654   1.867   1.964  0.00  0.00    +0.000 A 
ATOM     19  C   UNK    1        2.387   1.314   1.979  0.00  0.00    +0.005 A 
ENDBRANCH   1  14
BRANCH   1  20
ATOM     20  C   UNK    1        0.093  -0.136   3.783  0.00  0.00    -0.023 A 
ATOM     21  C   UNK    1        0.485  -0.078   5.108  0.00  0.00    +0.005 A 
ATOM     22  C   UNK    1        0.487  -1.225   5.879  0.00  0.00    +0.000 A 
ATOM     23  C   UNK    1        0.106  -2.432   5.323  0.00  0.00    +0.000 A 
ATOM     24  C   UNK    1       -0.280  -2.491   3.997  0.00  0.00    +0.000 A 
ATOM     25  C   UNK    1       -0.287  -1.343   3.227  0.00  0.00    +0.005 A 
ENDBRANCH   1  20
BRANCH   1  26
ATOM     26  S   UNK    1       -0.414   0.705   1.250  0.00  0.00    -0.141 S 
BRANCH  26  27
ATOM     27  C   UNK    1       -2.146   0.194   1.415  0.00  0.00    +0.065 C 
BRANCH  27  28
ATOM     28  C   UNK    1       -2.660  -0.311   0.065  0.00  0.00    +0.046 C 
BRANCH  28  29
ATOM     29  N   UNK    1       -2.569   0.752  -0.951  0.00  0.00    +0.387 N 
ATOM     30  H   UNK    1       -2.949   0.404  -1.839  0.00  0.00    -0.089 HD
ATOM     31  H   UNK    1       -1.597   1.022  -1.089  0.00  0.00    -0.089 HD
ATOM     32  H   UNK    1       -3.108   1.565  -0.655  0.00  0.00    -0.089 HD
ENDBRANCH  28  29
BRANCH  28  33
ATOM     33  C   UNK    1       -4.099  -0.736   0.202  0.00  0.00    +0.291 C 
ATOM     34  O   UNK    1       -4.984   0.003  -0.160  0.00  0.00    -0.253 OA
BRANCH  33  35
ATOM     35  O   UNK    1       -4.399  -1.934   0.727  0.00  0.00    -0.482 OA
ATOM     36  H   UNK    1       -3.712  -2.507   1.008  0.00  0.00    +0.295 HD
ENDBRANCH  33  35
ENDBRANCH  28  33
ENDBRANCH  27  28
ENDBRANCH  26  27
ENDBRANCH   1  26
TORSDOF 10
