REMARK  Name = ZINC23549779
REMARK                            x       y       z     vdW  Elec       q    Type
REMARK                         _______ _______ _______ _____ _____    ______ ____
ROOT
ATOM      1  N   LIG    1       -2.852   1.610   0.036  0.00  0.00    +0.382 N 
ATOM      2  H   LIG    1       -2.756   2.705   0.042  0.00  0.00    -0.081 HD
ATOM      3  C   LIG    1       -2.207   1.109  -1.184  0.00  0.00    -0.077 C 
ATOM      4  C   LIG    1       -0.756   1.594  -1.230  0.00  0.00    +0.003 C 
ATOM      5  C   LIG    1       -0.013   1.086   0.008  0.00  0.00    +0.067 C 
ATOM      6  C   LIG    1       -0.732   1.581   1.266  0.00  0.00    +0.003 C 
ATOM      7  C   LIG    1       -2.185   1.096   1.239  0.00  0.00    -0.077 C 
ENDROOT
BRANCH   5   8
ATOM      8  N   LIG    1        1.361   1.594  -0.002  0.00  0.00    -0.341 N 
ATOM      9  H   LIG    1        1.601   2.520  -0.546  0.00  0.00    +0.146 HD
BRANCH   8  10
ATOM     10  C   LIG    1        2.369   0.902   0.679  0.00  0.00    +0.028 A 
ATOM     11  C   LIG    1        2.060  -0.272   1.368  0.00  0.00    +0.025 A 
ATOM     12  C   LIG    1        3.028  -0.962   2.039  0.00  0.00    +0.029 A 
ATOM     13  C   LIG    1        4.341  -0.498   2.043  0.00  0.00    +0.066 A 
ATOM     14  C   LIG    1        4.664   0.685   1.352  0.00  0.00    +0.021 A 
ATOM     15  C   LIG    1        6.094   0.898   1.546  0.00  0.00    +0.142 A 
ATOM     16  N   LIG    1        6.546  -0.077   2.282  0.00  0.00    -0.181 NA
ATOM     17  N   LIG    1        5.506  -0.954   2.608  0.00  0.00    -0.277 N 
ATOM     18  H   LIG    1        5.503  -1.877   3.205  0.00  0.00    +0.189 HD
ATOM     19  C   LIG    1        3.663   1.381   0.663  0.00  0.00    +0.034 A 
ENDBRANCH   8  10
ENDBRANCH   5   8
BRANCH   1  20
ATOM     20  C   LIG    1       -4.284   1.280   0.048  0.00  0.00    -0.043 C 
BRANCH  20  24
ATOM     21  C   LIG    1       -5.915   2.146   3.899  0.00  0.00    +0.000 A 
ATOM     22  C   LIG    1       -5.910   3.118   2.917  0.00  0.00    +0.000 A 
ATOM     23  C   LIG    1       -5.382   2.838   1.670  0.00  0.00    +0.002 A 
ATOM     24  C   LIG    1       -4.859   1.585   1.406  0.00  0.00    -0.064 A 
ATOM     25  C   LIG    1       -4.869   0.612   2.388  0.00  0.00    +0.002 A 
ATOM     26  C   LIG    1       -5.392   0.893   3.636  0.00  0.00    +0.000 A 
ENDBRANCH  20  24
ENDBRANCH   1  20
TORSDOF 4
