REMARK  Name = ZINC40915624
REMARK                            x       y       z     vdW  Elec       q    Type
REMARK                         _______ _______ _______ _____ _____    ______ ____
ROOT
ATOM      1  N   LIG    1       -3.465  -4.913  -0.300  0.00  0.00    -0.269 N 
ATOM      2  H   LIG    1       -4.303  -4.451  -0.145  0.00  0.00    +0.156 HD
ATOM      3  C   LIG    1       -3.441  -6.257  -0.388  0.00  0.00    +0.307 C 
ATOM      4  N   LIG    1       -4.596  -6.951  -0.416  0.00  0.00    -0.282 N 
ATOM      5  C   LIG    1       -5.886  -6.253  -0.520  0.00  0.00    +0.128 C 
ATOM      6  C   LIG    1       -6.647  -6.807  -1.731  0.00  0.00    +0.127 C 
ATOM      7  N   LIG    1       -6.640  -8.274  -1.659  0.00  0.00    -0.295 N 
ATOM      8  C   LIG    1       -7.795  -8.968  -1.687  0.00  0.00    +0.247 C 
ATOM      9  O   LIG    1       -8.857  -8.382  -1.619  0.00  0.00    -0.270 OA
ATOM     10  C   LIG    1       -5.350  -8.972  -1.556  0.00  0.00    +0.127 C 
ATOM     11  C   LIG    1       -4.589  -8.419  -0.350  0.00  0.00    +0.128 C 
ATOM     12  O   LIG    1       -2.378  -6.845  -0.442  0.00  0.00    -0.252 OA
ENDROOT
BRANCH   1  17
ATOM     13  C   LIG    1       -1.135  -2.142  -0.997  0.00  0.00    +0.038 A 
ATOM     14  C   LIG    1        0.085  -2.748  -0.691  0.00  0.00    +0.013 A 
ATOM     15  C   LIG    1        0.116  -4.058  -0.260  0.00  0.00    +0.003 A 
ATOM     16  C   LIG    1       -1.059  -4.776  -0.131  0.00  0.00    +0.023 A 
ATOM     17  C   LIG    1       -2.278  -4.182  -0.433  0.00  0.00    +0.035 A 
ATOM     18  C   LIG    1       -2.320  -2.864  -0.861  0.00  0.00    +0.036 A 
BRANCH  13  22
ATOM     19  C   LIG    1       -0.059   1.349  -2.048  0.00  0.00    +0.128 C 
ATOM     20  N   LIG    1       -0.023  -0.042  -1.590  0.00  0.00    -0.314 N 
ATOM     21  H   LIG    1        0.826  -0.463  -1.382  0.00  0.00    +0.149 HD
ATOM     22  C   LIG    1       -1.170  -0.738  -1.459  0.00  0.00    +0.244 C 
ATOM     23  O   LIG    1       -2.234  -0.211  -1.721  0.00  0.00    -0.270 OA
ENDBRANCH  13  22
ENDBRANCH   1  17
BRANCH   8  24
ATOM     24  C   LIG    1       -7.769 -10.442  -1.802  0.00  0.00    +0.049 A 
ATOM     25  C   LIG    1       -7.026 -11.054  -2.813  0.00  0.00    +0.013 A 
ATOM     26  C   LIG    1       -7.006 -12.429  -2.914  0.00  0.00    +0.001 A 
ATOM     27  C   LIG    1       -7.722 -13.202  -2.016  0.00  0.00    +0.001 A 
ATOM     28  C   LIG    1       -8.460 -12.602  -1.012  0.00  0.00    +0.013 A 
ATOM     29  C   LIG    1       -8.484 -11.228  -0.896  0.00  0.00    +0.067 A 
BRANCH  29  30
ATOM     30  C   LIG    1       -9.284 -10.576   0.202  0.00  0.00    +0.418 C 
ATOM     31  F   LIG    1      -10.257  -9.742  -0.362  0.00  0.00    -0.166 F 
ATOM     32  F   LIG    1       -8.433  -9.817   1.012  0.00  0.00    -0.166 F 
ATOM     33  F   LIG    1       -9.907 -11.563   0.974  0.00  0.00    -0.166 F 
ENDBRANCH  29  30
ENDBRANCH   8  24
TORSDOF 4
