REMARK  Name = ZINC17193772
REMARK                            x       y       z     vdW  Elec       q    Type
REMARK                         _______ _______ _______ _____ _____    ______ ____
ROOT
ATOM      1  N   LIG    1        0.073  -2.854  -0.015  0.00  0.00    -0.309 N 
ATOM      2  H   LIG    1       -0.773  -2.379  -0.004  0.00  0.00    +0.149 HD
ATOM      3  C   LIG    1        1.231  -2.165  -0.022  0.00  0.00    +0.246 C 
ATOM      4  O   LIG    1        2.292  -2.760  -0.035  0.00  0.00    -0.270 OA
ENDROOT
BRANCH   1  10
ATOM      5  C   LIG    1       -1.602  -8.093  -1.245  0.00  0.00    -0.095 C 
ATOM      6  N   LIG    1       -1.257  -6.656  -0.992  0.00  0.00    +0.382 N 
ATOM      7  H   LIG    1       -1.946  -6.056  -1.461  0.00  0.00    -0.081 HD
ATOM      8  C   LIG    1       -1.241  -6.377   0.447  0.00  0.00    -0.067 C 
ATOM      9  C   LIG    1       -1.206  -4.847   0.596  0.00  0.00    +0.007 C 
ATOM     10  C   LIG    1        0.091  -4.318  -0.023  0.00  0.00    +0.070 C 
ATOM     11  C   LIG    1        0.216  -4.818  -1.466  0.00  0.00    +0.007 C 
ATOM     12  C   LIG    1        0.130  -6.928   0.903  0.00  0.00    -0.017 C 
ATOM     13  C   LIG    1        1.006  -6.910  -0.367  0.00  0.00    -0.017 C 
ATOM     14  C   LIG    1        0.085  -6.349  -1.475  0.00  0.00    -0.067 C 
ENDBRANCH   1  10
BRANCH   3  15
ATOM     15  C   LIG    1        1.213  -0.692  -0.013  0.00  0.00    +0.064 A 
ATOM     16  C   LIG    1        0.002  -0.004   0.002  0.00  0.00    +0.015 A 
ATOM     17  C   LIG    1       -0.017   1.378   0.010  0.00  0.00    +0.003 A 
ATOM     18  C   LIG    1        1.162   2.099   0.002  0.00  0.00    +0.028 A 
ATOM     19  C   LIG    1        2.382   1.439  -0.013  0.00  0.00    +0.067 A 
ATOM     20  N   LIG    1        3.699   1.857  -0.023  0.00  0.00    -0.344 N 
ATOM     21  H   LIG    1        4.022   2.803  -0.021  0.00  0.00    +0.167 HD
ATOM     22  C   LIG    1        4.473   0.740  -0.037  0.00  0.00    +0.197 A 
ATOM     23  N   LIG    1        3.721  -0.324  -0.035  0.00  0.00    -0.235 NA
ATOM     24  C   LIG    1        2.423   0.035  -0.021  0.00  0.00    +0.101 A 
ENDBRANCH   3  15
TORSDOF 2
