REMARK  Name = ZINC28135855
REMARK                            x       y       z     vdW  Elec       q    Type
REMARK                         _______ _______ _______ _____ _____    ______ ____
ROOT
ATOM      1  C   LIG    1       -5.364  -6.836   0.804  0.00  0.00    +0.096 C 
ENDROOT
BRANCH   1   2
ATOM      2  C   LIG    1       -5.333  -8.341   0.886  0.00  0.00    +0.217 C 
ATOM      3  N   LIG    1       -6.484  -9.034   0.994  0.00  0.00    -0.285 N 
ATOM      4  H   LIG    1       -7.449  -8.511   0.928  0.00  0.00    +0.155 HD
ATOM      5  O   LIG    1       -4.273  -8.928   0.855  0.00  0.00    -0.275 OA
BRANCH   3   6
ATOM      6  C   LIG    1       -6.451 -10.412   1.189  0.00  0.00    +0.046 A 
ATOM      7  C   LIG    1       -5.345 -11.007   1.782  0.00  0.00    +0.024 A 
ATOM      8  C   LIG    1       -5.316 -12.373   1.978  0.00  0.00    +0.002 A 
ATOM      9  C   LIG    1       -6.383 -13.162   1.578  0.00  0.00    +0.001 A 
ATOM     10  C   LIG    1       -7.487 -12.589   0.984  0.00  0.00    +0.015 A 
ATOM     11  C   LIG    1       -7.533 -11.208   0.783  0.00  0.00    +0.060 A 
BRANCH  11  12
ATOM     12  C   LIG    1       -8.711 -10.589   0.147  0.00  0.00    +0.268 C 
ATOM     13  N   LIG    1       -9.792 -11.340  -0.144  0.00  0.00    -0.193 N 
ATOM     14  H   LIG    1       -9.796 -12.414   0.094  0.00  0.00    +0.183 HD
ATOM     15  O   LIG    1       -8.707  -9.402  -0.115  0.00  0.00    -0.268 OA
BRANCH  13  16
ATOM     16  O   LIG    1      -10.924 -10.746  -0.754  0.00  0.00    -0.295 OA
ATOM     17  H   LIG    1      -11.806 -11.359  -0.991  0.00  0.00    +0.241 HD
ENDBRANCH  13  16
ENDBRANCH  11  12
ENDBRANCH   3   6
ENDBRANCH   1   2
BRANCH   1  18
ATOM     18  C   LIG    1       -3.935  -6.302   0.689  0.00  0.00    +0.009 C 
BRANCH  18  19
ATOM     19  C   LIG    1       -3.967  -4.775   0.606  0.00  0.00    +0.000 C 
BRANCH  19  20
ATOM     20  C   LIG    1       -2.538  -4.240   0.490  0.00  0.00    +0.000 C 
BRANCH  20  21
ATOM     21  C   LIG    1       -2.570  -2.713   0.407  0.00  0.00    +0.009 C 
BRANCH  21  22
ATOM     22  C   LIG    1       -1.141  -2.179   0.291  0.00  0.00    +0.096 C 
BRANCH  22  25
ATOM     23  N   LIG    1       -0.021   0.019   0.102  0.00  0.00    -0.285 N 
ATOM     24  H   LIG    1        0.933  -0.515  -0.021  0.00  0.00    +0.155 HD
ATOM     25  C   LIG    1       -1.172  -0.674   0.210  0.00  0.00    +0.217 C 
ATOM     26  O   LIG    1       -2.233  -0.087   0.241  0.00  0.00    -0.275 OA
BRANCH  23  30
ATOM     27  C   LIG    1       -0.077   4.182   0.233  0.00  0.00    +0.000 A 
ATOM     28  C   LIG    1       -1.081   3.459   0.850  0.00  0.00    +0.002 A 
ATOM     29  C   LIG    1       -1.066   2.079   0.808  0.00  0.00    +0.023 A 
ATOM     30  C   LIG    1       -0.040   1.417   0.146  0.00  0.00    +0.033 A 
ATOM     31  C   LIG    1        0.971   2.146  -0.467  0.00  0.00    +0.023 A 
ATOM     32  C   LIG    1        0.946   3.526  -0.427  0.00  0.00    +0.002 A 
ENDBRANCH  23  30
ENDBRANCH  22  25
ENDBRANCH  21  22
ENDBRANCH  20  21
ENDBRANCH  19  20
ENDBRANCH  18  19
ENDBRANCH   1  18
TORSDOF 11
