REMARK  Name = ZINC20149036
REMARK                            x       y       z     vdW  Elec       q    Type
REMARK                         _______ _______ _______ _____ _____    ______ ____
ROOT
ATOM      1  C   LIG    1        2.403  -4.510  -0.049  0.00  0.00    +0.113 A 
ATOM      2  C   LIG    1        2.277  -5.191   1.149  0.00  0.00    +0.031 A 
ATOM      3  C   LIG    1        2.011  -6.545   1.151  0.00  0.00    +0.029 A 
ATOM      4  C   LIG    1        1.869  -7.227  -0.060  0.00  0.00    +0.064 A 
ATOM      5  C   LIG    1        1.998  -6.532  -1.265  0.00  0.00    +0.029 A 
ATOM      6  C   LIG    1        2.258  -5.178  -1.252  0.00  0.00    +0.031 A 
ENDROOT
BRANCH   1   7
ATOM      7  S   LIG    1        2.743  -2.780  -0.042  0.00  0.00    +0.101 S 
ATOM      8  O   LIG    1        3.374  -2.495   1.199  0.00  0.00    -0.146 OA
ATOM      9  O   LIG    1        3.348  -2.481  -1.292  0.00  0.00    -0.146 OA
BRANCH   7  16
ATOM     10  C   LIG    1       -0.016   1.354   0.009  0.00  0.00    +0.005 A 
ATOM     11  C   LIG    1        1.195   2.067   0.002  0.00  0.00    +0.018 A 
ATOM     12  C   LIG    1        2.374   1.409  -0.013  0.00  0.00    +0.084 A 
ATOM     13  N   LIG    1        2.412   0.047  -0.022  0.00  0.00    -0.345 N 
ATOM     14  H   LIG    1        3.266  -0.412  -0.033  0.00  0.00    +0.167 HD
ATOM     15  C   LIG    1        1.246  -0.679  -0.014  0.00  0.00    +0.153 A 
ATOM     16  N   LIG    1        1.285  -1.996  -0.022  0.00  0.00    -0.111 NA
ATOM     17  C   LIG    1        0.002  -0.004   0.002  0.00  0.00    +0.048 A 
ENDBRANCH   7  16
ENDBRANCH   1   7
BRANCH   4  18
ATOM     18  N   LIG    1        1.606  -8.570  -0.065  0.00  0.00    -0.255 NA
ATOM     19  C   LIG    1        0.688  -9.054  -0.864  0.00  0.00    +0.125 C 
BRANCH  19  20
ATOM     20  C   LIG    1        0.415 -10.444  -0.870  0.00  0.00    +0.063 A 
ATOM     21  C   LIG    1       -0.576 -11.147  -1.707  0.00  0.00    +0.028 A 
ATOM     22  C   LIG    1       -0.481 -12.504  -1.360  0.00  0.00    +0.051 A 
ATOM     23  N   LIG    1        0.492 -12.627  -0.385  0.00  0.00    -0.325 N 
ATOM     24  H   LIG    1        0.756 -13.463   0.030  0.00  0.00    +0.169 HD
ATOM     25  C   LIG    1       -1.311 -13.425  -1.999  0.00  0.00    +0.028 A 
ATOM     26  C   LIG    1       -2.205 -13.039  -2.946  0.00  0.00    +0.031 A 
ATOM     27  C   LIG    1       -2.331 -11.682  -3.324  0.00  0.00    +0.079 A 
ATOM     28  N   LIG    1       -3.151 -11.112  -4.232  0.00  0.00    -0.247 NA
ATOM     29  C   LIG    1       -3.146  -9.832  -4.465  0.00  0.00    +0.157 A 
ATOM     30  S   LIG    1       -1.968  -9.226  -3.427  0.00  0.00    -0.075 S 
ATOM     31  C   LIG    1       -1.489 -10.758  -2.673  0.00  0.00    +0.049 A 
ATOM     32  C   LIG    1        1.030 -11.414  -0.094  0.00  0.00    +0.200 A 
BRANCH  32  33
ATOM     33  O   LIG    1        2.009 -11.188   0.812  0.00  0.00    -0.493 OA
ATOM     34  H   LIG    1        2.325 -10.318   0.953  0.00  0.00    +0.294 HD
ENDBRANCH  32  33
ENDBRANCH  19  20
ENDBRANCH   4  18
TORSDOF 5
