REMARK  Name = ZINC14756841
REMARK                            x       y       z     vdW  Elec       q    Type
REMARK                         _______ _______ _______ _____ _____    ______ ____
ROOT
ATOM      1  C   LIG    1        3.057   3.080  -3.573  0.00  0.00    +0.146 A 
ATOM      2  C   LIG    1        1.855   2.447  -3.675  0.00  0.00    +0.098 A 
ATOM      3  C   LIG    1        1.164   2.072  -2.502  0.00  0.00    +0.197 A 
ATOM      4  C   LIG    1        1.796   2.393  -1.209  0.00  0.00    +0.109 A 
ATOM      5  C   LIG    1        3.039   3.048  -1.215  0.00  0.00    +0.143 A 
ATOM      6  C   LIG    1        3.652   3.359  -0.009  0.00  0.00    +0.051 A 
ATOM      7  C   LIG    1        3.042   3.027   1.184  0.00  0.00    +0.053 A 
ATOM      8  C   LIG    1        1.813   2.383   1.197  0.00  0.00    +0.162 A 
ATOM      9  C   LIG    1        1.184   2.058   0.002  0.00  0.00    +0.176 A 
ATOM     10  O   LIG    1        0.085   1.503  -2.556  0.00  0.00    -0.287 OA
ATOM     11  O   LIG    1        3.623   3.367  -2.390  0.00  0.00    -0.454 OA
ENDROOT
BRANCH   1  17
ATOM     12  C   LIG    1        4.238   2.478  -5.684  0.00  0.00    +0.134 A 
ATOM     13  C   LIG    1        4.896   2.850  -6.845  0.00  0.00    +0.046 A 
ATOM     14  C   LIG    1        5.095   4.187  -7.134  0.00  0.00    +0.007 A 
ATOM     15  C   LIG    1        4.635   5.167  -6.274  0.00  0.00    +0.046 A 
ATOM     16  C   LIG    1        3.970   4.817  -5.110  0.00  0.00    +0.134 A 
ATOM     17  C   LIG    1        3.763   3.464  -4.807  0.00  0.00    +0.100 A 
BRANCH  12  19
ATOM     18  C   LIG    1        4.559   0.217  -6.339  0.00  0.00    +0.277 C 
ATOM     19  O   LIG    1        4.049   1.165  -5.399  0.00  0.00    -0.494 OA
ENDBRANCH  12  19
BRANCH  16  20
ATOM     20  O   LIG    1        3.520   5.781  -4.268  0.00  0.00    -0.494 OA
ATOM     21  C   LIG    1        3.767   7.138  -4.642  0.00  0.00    +0.277 C 
ENDBRANCH  16  20
ENDBRANCH   1  17
BRANCH   8  22
ATOM     22  O   LIG    1        1.224   2.067   2.382  0.00  0.00    -0.491 OA
ATOM     23  C   LIG    1        1.926   2.430   3.573  0.00  0.00    +0.277 C 
ENDBRANCH   8  22
BRANCH   9  24
ATOM     24  O   LIG    1       -0.017   1.425   0.010  0.00  0.00    -0.491 OA
ATOM     25  C   LIG    1        0.002  -0.004   0.002  0.00  0.00    +0.277 C 
ENDBRANCH   9  24
TORSDOF 5
