REMARK  Name = ZINC15834285
REMARK                            x       y       z     vdW  Elec       q    Type
REMARK                         _______ _______ _______ _____ _____    ______ ____
ROOT
ATOM      1  C   LIG    1        3.094  -0.338  -1.999  0.00  0.00    +0.069 A 
ATOM      2  C   LIG    1        3.868   0.758  -2.288  0.00  0.00    +0.089 A 
ATOM      3  C   LIG    1        3.248   1.911  -1.586  0.00  0.00    +0.082 A 
ATOM      4  N   LIG    1        3.840   3.176  -1.713  0.00  0.00    -0.294 N 
ATOM      5  C   LIG    1        3.276   4.352  -1.044  0.00  0.00    +0.154 C 
ATOM      6  C   LIG    1        4.951   3.267  -2.477  0.00  0.00    +0.332 A 
ATOM      7  N   LIG    1        5.535   2.252  -3.121  0.00  0.00    -0.263 N 
ATOM      8  C   LIG    1        6.739   2.535  -3.906  0.00  0.00    +0.157 C 
ATOM      9  O   LIG    1        5.462   4.364  -2.588  0.00  0.00    -0.246 OA
ATOM     10  C   LIG    1        2.193   1.438  -0.940  0.00  0.00    +0.073 A 
ATOM     11  C   LIG    1        1.219   2.159  -0.033  0.00  0.00    +0.150 C 
ATOM     12  N   LIG    1       -0.047   1.411  -0.043  0.00  0.00    -0.330 N 
ATOM     13  H   LIG    1       -0.891   1.889  -0.043  0.00  0.00    +0.147 HD
ATOM     14  C   LIG    1       -0.037   0.011  -0.058  0.00  0.00    +0.052 A 
ATOM     15  C   LIG    1       -1.069  -0.706   0.526  0.00  0.00    +0.025 A 
ATOM     16  C   LIG    1       -1.057  -2.088   0.485  0.00  0.00    +0.002 A 
ATOM     17  C   LIG    1       -0.021  -2.761  -0.136  0.00  0.00    +0.002 A 
ATOM     18  C   LIG    1        1.018  -2.055  -0.715  0.00  0.00    +0.028 A 
ATOM     19  C   LIG    1        1.018  -0.674  -0.669  0.00  0.00    +0.068 A 
ATOM     20  C   LIG    1        5.076   0.974  -3.091  0.00  0.00    +0.266 A 
ATOM     21  O   LIG    1        5.630   0.070  -3.688  0.00  0.00    -0.267 OA
ATOM     22  N   LIG    1        2.076   0.079  -1.198  0.00  0.00    -0.306 N 
ENDROOT
BRANCH   1  29
ATOM     23  C   LIG    1        4.738  -2.130  -0.430  0.00  0.00    +0.044 C 
ATOM     24  C   LIG    1        4.115  -2.592  -1.722  0.00  0.00    -0.041 A 
ATOM     25  C   LIG    1        4.322  -3.881  -2.167  0.00  0.00    +0.004 A 
ATOM     26  C   LIG    1        3.756  -4.305  -3.357  0.00  0.00    +0.000 A 
ATOM     27  C   LIG    1        2.975  -3.442  -4.105  0.00  0.00    +0.001 A 
ATOM     28  C   LIG    1        2.756  -2.152  -3.670  0.00  0.00    +0.010 A 
ATOM     29  C   LIG    1        3.324  -1.717  -2.470  0.00  0.00    +0.003 A 
ENDBRANCH   1  29
BRANCH  11  30
ATOM     30  C   LIG    1        1.770   2.209   1.369  0.00  0.00    -0.021 A 
ATOM     31  C   LIG    1        1.686   1.097   2.185  0.00  0.00    +0.006 A 
ATOM     32  C   LIG    1        2.196   1.142   3.469  0.00  0.00    +0.000 A 
ATOM     33  C   LIG    1        2.781   2.302   3.941  0.00  0.00    +0.000 A 
ATOM     34  C   LIG    1        2.861   3.416   3.126  0.00  0.00    +0.000 A 
ATOM     35  C   LIG    1        2.355   3.370   1.840  0.00  0.00    +0.006 A 
ENDBRANCH  11  30
TORSDOF 2
