REMARK  Name = ZINC13829389
REMARK                            x       y       z     vdW  Elec       q    Type
REMARK                         _______ _______ _______ _____ _____    ______ ____
ROOT
ATOM      1  C   LIG    1        2.252  -4.577   3.685  0.00  0.00    -0.047 A 
ATOM      2  C   LIG    1        3.620  -4.782   3.635  0.00  0.00    +0.004 A 
ATOM      3  C   LIG    1        4.293  -5.239   4.749  0.00  0.00    +0.012 A 
ATOM      4  C   LIG    1        3.592  -5.494   5.929  0.00  0.00    +0.022 A 
ATOM      5  C   LIG    1        2.212  -5.285   5.973  0.00  0.00    +0.012 A 
ATOM      6  C   LIG    1        1.552  -4.822   4.853  0.00  0.00    +0.004 A 
ENDROOT
BRANCH   4   7
ATOM      7  C   LIG    1        4.307  -5.984   7.126  0.00  0.00    +0.186 C 
ATOM      8  O   LIG    1        5.509  -6.166   7.085  0.00  0.00    -0.287 OA
BRANCH   7   9
ATOM      9  C   LIG    1        3.565  -6.252   8.367  0.00  0.00    +0.044 C 
ATOM     10  C   LIG    1        4.209  -6.694   9.446  0.00  0.00    +0.012 C 
ENDBRANCH   7   9
ENDBRANCH   4   7
BRANCH   1  11
ATOM     11  C   LIG    1        1.524  -4.077   2.464  0.00  0.00    +0.035 C 
BRANCH  11  12
ATOM     12  C   LIG    1        1.503  -2.548   2.473  0.00  0.00    +0.005 C 
BRANCH  12  13
ATOM     13  C   LIG    1        0.763  -2.041   1.233  0.00  0.00    +0.000 C 
BRANCH  13  14
ATOM     14  C   LIG    1        0.742  -0.511   1.242  0.00  0.00    -0.000 C 
BRANCH  14  16
ATOM     15  C   LIG    1       -0.019   1.526   0.010  0.00  0.00    +0.004 C 
ATOM     16  C   LIG    1        0.002  -0.004   0.002  0.00  0.00    -0.003 C 
ENDBRANCH  14  16
ENDBRANCH  13  14
ENDBRANCH  12  13
ENDBRANCH  11  12
ENDBRANCH   1  11
TORSDOF 7
