REMARK  Name = ZINC21289032
REMARK                            x       y       z     vdW  Elec       q    Type
REMARK                         _______ _______ _______ _____ _____    ______ ____
ROOT
ATOM      1  C   LIG    1       -1.248  -0.711   0.695  0.00  0.00    +0.119 A 
ATOM      2  C   LIG    1       -2.431  -0.022   0.490  0.00  0.00    +0.057 A 
ATOM      3  C   LIG    1       -3.603  -0.759   0.310  0.00  0.00    +0.045 A 
ATOM      4  C   LIG    1       -3.533  -2.175   0.345  0.00  0.00    +0.094 A 
ATOM      5  N   LIG    1       -4.662  -2.876   0.171  0.00  0.00    -0.234 NA
ATOM      6  C   LIG    1       -5.806  -2.271  -0.027  0.00  0.00    +0.224 A 
ATOM      7  N   LIG    1       -5.947  -0.955  -0.072  0.00  0.00    -0.220 NA
ATOM      8  C   LIG    1       -2.288  -2.780   0.559  0.00  0.00    +0.141 A 
ATOM      9  C   LIG    1       -4.908  -0.143   0.086  0.00  0.00    +0.134 A 
ATOM     10  N   LIG    1       -1.215  -2.039   0.717  0.00  0.00    -0.238 NA
ENDROOT
BRANCH   1  12
ATOM     11  C   LIG    1       -0.085   1.468   0.855  0.00  0.00    +0.127 C 
ATOM     12  N   LIG    1       -0.066   0.004   0.877  0.00  0.00    -0.332 N 
ATOM     13  H   LIG    1        0.770  -0.469   1.017  0.00  0.00    +0.147 HD
ENDBRANCH   1  12
BRANCH   9  14
ATOM     14  N   LIG    1       -5.055   1.228   0.039  0.00  0.00    -0.299 N 
ATOM     15  H   LIG    1       -4.274   1.801   0.073  0.00  0.00    +0.154 HD
BRANCH  14  16
ATOM     16  C   LIG    1       -6.331   1.791  -0.057  0.00  0.00    +0.033 A 
ATOM     17  C   LIG    1       -7.415   1.165   0.545  0.00  0.00    +0.023 A 
ATOM     18  C   LIG    1       -8.675   1.723   0.449  0.00  0.00    +0.003 A 
ATOM     19  C   LIG    1       -8.858   2.904  -0.246  0.00  0.00    +0.015 A 
ATOM     20  C   LIG    1       -7.781   3.531  -0.848  0.00  0.00    +0.020 A 
ATOM     21 BR   LIG    1       -8.037   5.146  -1.798  0.00  0.00    -0.050 Br
ATOM     22  C   LIG    1       -6.517   2.980  -0.750  0.00  0.00    +0.038 A 
ENDBRANCH  14  16
ENDBRANCH   9  14
TORSDOF 3
