REMARK  Name = ZINC13779478
REMARK                            x       y       z     vdW  Elec       q    Type
REMARK                         _______ _______ _______ _____ _____    ______ ____
ROOT
ATOM      1  N   LIG    1       -0.011   0.966   0.007  0.00  0.00    -0.315 N 
ATOM      2  H   LIG    1        0.002  -0.004   0.002  0.00  0.00    +0.149 HD
ATOM      3  C   LIG    1        1.147   1.655   0.000  0.00  0.00    +0.325 C 
ATOM      4  O   LIG    1        1.130   2.868   0.007  0.00  0.00    -0.280 OA
ENDROOT
BRANCH   1   7
ATOM      5  C   LIG    1       -2.380   1.165   0.958  0.00  0.00    +0.024 C 
ATOM      6  C   LIG    1       -2.510   0.955  -0.553  0.00  0.00    +0.024 C 
ATOM      7  C   LIG    1       -1.290   1.681   0.017  0.00  0.00    +0.073 C 
ENDBRANCH   1   7
TORSDOF 1
