REMARK  Name = ZINC28459574
REMARK                            x       y       z     vdW  Elec       q    Type
REMARK                         _______ _______ _______ _____ _____    ______ ____
ROOT
ATOM      1  N   LIG    1        1.265   1.787  -0.000  0.00  0.00    -0.322 N 
ATOM      2  C   LIG    1        2.112   0.694  -0.014  0.00  0.00    +0.069 A 
ATOM      3  C   LIG    1        3.492   0.548  -0.028  0.00  0.00    +0.031 A 
ATOM      4  C   LIG    1        4.049  -0.712  -0.040  0.00  0.00    +0.048 A 
ATOM      5  C   LIG    1        3.236  -1.843  -0.038  0.00  0.00    +0.122 A 
ATOM      6  C   LIG    1        1.862  -1.716  -0.026  0.00  0.00    +0.075 A 
ATOM      7  C   LIG    1        1.283  -0.442  -0.013  0.00  0.00    +0.093 A 
ATOM      8  N   LIG    1        0.002  -0.004   0.002  0.00  0.00    -0.226 NA
ATOM      9  C   LIG    1       -0.016   1.306   0.009  0.00  0.00    +0.167 A 
ENDROOT
BRANCH   9  10
ATOM     10  C   LIG    1       -1.238   2.140   0.020  0.00  0.00    +0.190 A 
ATOM     11  C   LIG    1       -2.655   1.709   0.019  0.00  0.00    +0.191 A 
ATOM     12  N   LIG    1       -3.301   2.852   0.034  0.00  0.00    -0.033 NA
ATOM     13  O   LIG    1       -2.507   3.763   0.034  0.00  0.00    -0.240 OA
ATOM     14  N   LIG    1       -1.339   3.452   0.026  0.00  0.00    -0.044 NA
BRANCH  11  15
ATOM     15  N   LIG    1       -3.171   0.420   0.007  0.00  0.00    -0.339 N 
ATOM     16  H   LIG    1       -2.491  -0.445  -0.003  0.00  0.00    +0.144 HD
ATOM     17  H   LIG    1       -4.260   0.263   0.009  0.00  0.00    +0.144 HD
ENDBRANCH  11  15
ENDBRANCH   9  10
BRANCH   1  19
ATOM     18  C   LIG    1        1.818   3.680   1.446  0.00  0.00    +0.027 C 
ATOM     19  C   LIG    1        1.665   3.196   0.003  0.00  0.00    +0.120 C 
ENDBRANCH   1  19
BRANCH   5  20
ATOM     20  O   LIG    1        3.800  -3.080  -0.049  0.00  0.00    -0.495 OA
ATOM     21  C   LIG    1        5.228  -3.143  -0.063  0.00  0.00    +0.277 C 
ENDBRANCH   5  20
TORSDOF 4
