REMARK  Name = ZINC13968254
REMARK                            x       y       z     vdW  Elec       q    Type
REMARK                         _______ _______ _______ _____ _____    ______ ____
ROOT
ATOM      1  C   LIG    1        4.910   8.378  -0.001  0.00  0.00    +0.020 C 
ENDROOT
BRANCH   1   2
ATOM      2  C   LIG    1        3.472   7.856   0.010  0.00  0.00    +0.104 C 
BRANCH   2   4
ATOM      3  C   LIG    1        2.323   5.707   0.010  0.00  0.00    +0.237 C 
ATOM      4  N   LIG    1        3.485   6.391   0.002  0.00  0.00    -0.312 N 
ATOM      5  H   LIG    1        4.329   5.913  -0.008  0.00  0.00    +0.149 HD
ATOM      6  O   LIG    1        1.264   6.306   0.022  0.00  0.00    -0.271 OA
BRANCH   3   8
ATOM      7  C   LIG    1        1.174   3.559   0.009  0.00  0.00    +0.013 C 
ATOM      8  C   LIG    1        2.336   4.243   0.002  0.00  0.00    +0.068 C 
BRANCH   7  10
ATOM      9  C   LIG    1       -0.017   1.374   0.010  0.00  0.00    +0.009 A 
ATOM     10  C   LIG    1        1.187   2.087   0.002  0.00  0.00    -0.023 A 
ATOM     11  C   LIG    1        2.402   1.395  -0.013  0.00  0.00    +0.029 A 
ATOM     12  C   LIG    1        2.406   0.016  -0.021  0.00  0.00    +0.060 A 
ATOM     13 CL   LIG    1        3.913  -0.846  -0.040  0.00  0.00    -0.082 Cl
ATOM     14  C   LIG    1        1.209  -0.684  -0.014  0.00  0.00    +0.059 A 
ATOM     15 CL   LIG    1        1.223  -2.420  -0.024  0.00  0.00    -0.082 Cl
ATOM     16  C   LIG    1        0.002  -0.004   0.002  0.00  0.00    +0.022 A 
ENDBRANCH   7  10
ENDBRANCH   3   8
ENDBRANCH   2   4
ENDBRANCH   1   2
BRANCH   1  17
ATOM     17  C   LIG    1        4.897   9.908   0.007  0.00  0.00    +0.020 C 
BRANCH  17  18
ATOM     18  C   LIG    1        6.335  10.430  -0.004  0.00  0.00    +0.104 C 
BRANCH  18  19
ATOM     19  N   LIG    1        6.322  11.895   0.003  0.00  0.00    -0.312 N 
ATOM     20  H   LIG    1        5.478  12.373   0.014  0.00  0.00    +0.149 HD
ATOM     21  C   LIG    1        7.484  12.579  -0.004  0.00  0.00    +0.237 C 
ATOM     22  O   LIG    1        8.543  11.980  -0.017  0.00  0.00    -0.271 OA
BRANCH  21  23
ATOM     23  C   LIG    1        7.471  14.043   0.003  0.00  0.00    +0.068 C 
ATOM     24  C   LIG    1        8.633  14.727  -0.004  0.00  0.00    +0.013 C 
BRANCH  24  25
ATOM     25  C   LIG    1        8.621  16.199   0.004  0.00  0.00    -0.023 A 
ATOM     26  C   LIG    1        7.405  16.891   0.024  0.00  0.00    +0.029 A 
ATOM     27  C   LIG    1        7.401  18.270   0.032  0.00  0.00    +0.060 A 
ATOM     28 CL   LIG    1        5.894  19.132   0.057  0.00  0.00    -0.082 Cl
ATOM     29  C   LIG    1        8.598  18.970   0.019  0.00  0.00    +0.059 A 
ATOM     30 CL   LIG    1        8.585  20.706   0.028  0.00  0.00    -0.082 Cl
ATOM     31  C   LIG    1        9.805  18.290  -0.002  0.00  0.00    +0.022 A 
ATOM     32  C   LIG    1        9.824  16.912  -0.004  0.00  0.00    +0.009 A 
ENDBRANCH  24  25
ENDBRANCH  21  23
ENDBRANCH  18  19
ENDBRANCH  17  18
ENDBRANCH   1  17
TORSDOF 9
