REMARK  Name = ZINC34023590
REMARK                            x       y       z     vdW  Elec       q    Type
REMARK                         _______ _______ _______ _____ _____    ______ ____
ROOT
ATOM      1  C   LIG    1        0.026   0.023   2.494  0.00  0.00    +0.049 A 
ATOM      2  C   LIG    1       -1.101   0.413   3.232  0.00  0.00    +0.070 A 
ATOM      3  C   LIG    1       -2.534   0.158   2.843  0.00  0.00    +0.068 C 
ATOM      4  N   LIG    1       -0.703   1.036   4.314  0.00  0.00    -0.167 NA
ATOM      5  N   LIG    1        0.693   1.081   4.332  0.00  0.00    -0.182 N 
ATOM      6  C   LIG    1        1.604   1.601   5.210  0.00  0.00    +0.223 A 
ATOM      7  N   LIG    1        2.894   1.474   4.956  0.00  0.00    -0.200 NA
ATOM      8  C   LIG    1        3.317   0.859   3.855  0.00  0.00    +0.132 A 
ATOM      9  C   LIG    1        4.797   0.741   3.597  0.00  0.00    +0.088 C 
ATOM     10  N   LIG    1        2.470   0.350   2.989  0.00  0.00    -0.213 NA
ATOM     11  C   LIG    1        1.150   0.446   3.203  0.00  0.00    +0.169 A 
ENDROOT
BRANCH   1  18
ATOM     12  C   LIG    1       -0.018   1.503   0.010  0.00  0.00    +0.044 C 
ATOM     13  C   LIG    1        0.002  -0.004   0.002  0.00  0.00    -0.039 A 
ATOM     14  C   LIG    1        0.006  -0.688  -1.196  0.00  0.00    +0.049 A 
ATOM     15  C   LIG    1        0.025  -2.076  -1.205  0.00  0.00    +0.120 A 
ATOM     16  C   LIG    1        0.039  -2.780  -0.009  0.00  0.00    +0.046 A 
ATOM     17  C   LIG    1        0.036  -2.103   1.193  0.00  0.00    +0.012 A 
ATOM     18  C   LIG    1        0.023  -0.709   1.205  0.00  0.00    -0.009 A 
BRANCH  15  19
ATOM     19  O   LIG    1        0.028  -2.747  -2.387  0.00  0.00    -0.495 OA
ATOM     20  C   LIG    1        0.048  -4.174  -2.323  0.00  0.00    +0.277 C 
ENDBRANCH  15  19
ENDBRANCH   1  18
BRANCH   6  21
ATOM     21  N   LIG    1        1.182   2.237   6.349  0.00  0.00    -0.295 N 
BRANCH  21  22
ATOM     22  C   LIG    1       -0.250   2.361   6.630  0.00  0.00    +0.136 C 
BRANCH  22  23
ATOM     23  C   LIG    1       -0.718   1.150   7.440  0.00  0.00    +0.178 C 
BRANCH  23  24
ATOM     24  O   LIG    1       -0.079   1.156   8.718  0.00  0.00    -0.381 OA
ATOM     25  C   LIG    1       -0.449   0.061   9.558  0.00  0.00    +0.194 C 
ENDBRANCH  23  24
ENDBRANCH  22  23
ENDBRANCH  21  22
BRANCH  21  26
ATOM     26  C   LIG    1        2.163   2.792   7.284  0.00  0.00    +0.136 C 
BRANCH  26  27
ATOM     27  C   LIG    1        2.474   4.239   6.898  0.00  0.00    +0.178 C 
BRANCH  27  28
ATOM     28  O   LIG    1        1.301   5.038   7.063  0.00  0.00    -0.381 OA
ATOM     29  C   LIG    1        1.484   6.415   6.728  0.00  0.00    +0.194 C 
ENDBRANCH  27  28
ENDBRANCH  26  27
ENDBRANCH  21  26
ENDBRANCH   6  21
TORSDOF 9
