REMARK  Name = ZINC13745251
REMARK                            x       y       z     vdW  Elec       q    Type
REMARK                         _______ _______ _______ _____ _____    ______ ____
ROOT
ATOM      1  C   LIG    1        0.106   2.816   4.792  0.00  0.00    +0.244 C 
ATOM      2  N   LIG    1       -0.530   3.251   5.898  0.00  0.00    -0.311 N 
ATOM      3  H   LIG    1       -1.488   3.399   5.880  0.00  0.00    +0.149 HD
ATOM      4  O   LIG    1        1.307   2.631   4.814  0.00  0.00    -0.270 OA
ENDROOT
BRANCH   1   7
ATOM      5  C   LIG    1       -2.745   2.539   2.361  0.00  0.00    +0.001 A 
ATOM      6  C   LIG    1       -2.038   2.776   3.522  0.00  0.00    +0.013 A 
ATOM      7  C   LIG    1       -0.658   2.564   3.551  0.00  0.00    +0.037 A 
ATOM      8  C   LIG    1       -0.004   2.114   2.404  0.00  0.00    +0.025 A 
ATOM      9  C   LIG    1       -0.722   1.881   1.250  0.00  0.00    +0.056 A 
ATOM     10  C   LIG    1       -2.089   2.098   1.226  0.00  0.00    +0.012 A 
BRANCH   9  11
ATOM     11  C   LIG    1       -0.017   1.395   0.010  0.00  0.00    +0.417 C 
ATOM     12  F   LIG    1       -0.694   1.858  -1.124  0.00  0.00    -0.166 F 
ATOM     13  F   LIG    1        1.296   1.879  -0.000  0.00  0.00    -0.166 F 
ATOM     14  F   LIG    1        0.002  -0.004   0.002  0.00  0.00    -0.166 F 
ENDBRANCH   9  11
ENDBRANCH   1   7
BRANCH   2  15
ATOM     15  C   LIG    1        0.228   3.501   7.127  0.00  0.00    +0.106 C 
BRANCH  15  16
ATOM     16  C   LIG    1       -0.724   3.984   8.223  0.00  0.00    +0.040 C 
BRANCH  16  17
ATOM     17  C   LIG    1        0.066   4.245   9.507  0.00  0.00    +0.124 C 
BRANCH  17  18
ATOM     18  N   LIG    1       -0.845   4.707  10.556  0.00  0.00    -0.338 N 
ATOM     19  C   LIG    1       -1.180   6.006  10.827  0.00  0.00    +0.104 A 
ATOM     20  C   LIG    1       -2.042   5.979  11.862  0.00  0.00    +0.101 A 
ATOM     21  N   LIG    1       -2.220   4.699  12.217  0.00  0.00    -0.352 N 
ATOM     22  H   LIG    1       -2.824   4.374  12.982  0.00  0.00    +0.166 HD
ATOM     23  C   LIG    1       -1.508   3.931  11.441  0.00  0.00    +0.173 A 
ENDBRANCH  17  18
ENDBRANCH  16  17
ENDBRANCH  15  16
ENDBRANCH   2  15
TORSDOF 6
