REMARK  Name = ZINC21659242
REMARK                            x       y       z     vdW  Elec       q    Type
REMARK                         _______ _______ _______ _____ _____    ______ ____
ROOT
ATOM      1  C   LIG    1        6.403   6.245   1.016  0.00  0.00    +0.154 C 
ATOM      2  N   LIG    1        5.145   5.628   1.442  0.00  0.00    -0.294 N 
ATOM      3  C   LIG    1        4.212   5.152   0.508  0.00  0.00    +0.082 A 
ATOM      4  C   LIG    1        2.950   4.544   1.003  0.00  0.00    +0.089 A 
ATOM      5  C   LIG    1        2.717   4.456   2.448  0.00  0.00    +0.266 A 
ATOM      6  N   LIG    1        3.706   4.960   3.230  0.00  0.00    -0.263 N 
ATOM      7  C   LIG    1        3.534   4.902   4.683  0.00  0.00    +0.157 C 
ATOM      8  O   LIG    1        1.706   3.966   2.914  0.00  0.00    -0.267 OA
ATOM      9  C   LIG    1        2.235   4.170  -0.107  0.00  0.00    +0.071 A 
ATOM     10  N   LIG    1        2.961   4.522  -1.202  0.00  0.00    -0.306 N 
ATOM     11  C   LIG    1        2.642   4.354  -2.557  0.00  0.00    +0.068 A 
ATOM     12  C   LIG    1        1.586   3.558  -2.959  0.00  0.00    +0.028 A 
ATOM     13  C   LIG    1        1.318   3.402  -4.308  0.00  0.00    +0.002 A 
ATOM     14  C   LIG    1        2.105   4.039  -5.250  0.00  0.00    +0.002 A 
ATOM     15  C   LIG    1        3.158   4.843  -4.855  0.00  0.00    +0.025 A 
ATOM     16  C   LIG    1        3.430   5.013  -3.507  0.00  0.00    +0.052 A 
ATOM     17  N   LIG    1        4.480   5.839  -3.092  0.00  0.00    -0.330 N 
ATOM     18  H   LIG    1        4.778   6.699  -3.709  0.00  0.00    +0.147 HD
ATOM     19  C   LIG    1        5.186   5.559  -1.832  0.00  0.00    +0.150 C 
ATOM     20  C   LIG    1        4.162   5.105  -0.815  0.00  0.00    +0.073 A 
ATOM     21  C   LIG    1        4.828   5.505   2.750  0.00  0.00    +0.332 A 
ATOM     22  O   LIG    1        5.636   5.920   3.559  0.00  0.00    -0.246 OA
ENDROOT
BRANCH   9  23
ATOM     23  C   LIG    1        0.915   3.511  -0.113  0.00  0.00    +0.035 A 
ATOM     24  C   LIG    1        0.826   2.116  -0.105  0.00  0.00    +0.013 A 
ATOM     25  C   LIG    1       -0.410   1.507  -0.111  0.00  0.00    +0.001 A 
ATOM     26  C   LIG    1       -1.564   2.272  -0.129  0.00  0.00    +0.003 A 
ATOM     27  C   LIG    1       -1.486   3.653  -0.131  0.00  0.00    +0.039 A 
ATOM     28  C   LIG    1       -0.254   4.279  -0.126  0.00  0.00    +0.133 A 
ATOM     29  F   LIG    1       -0.179   5.628  -0.134  0.00  0.00    -0.205 F 
ENDBRANCH   9  23
BRANCH  19  30
ATOM     30  C   LIG    1        6.205   4.470  -2.049  0.00  0.00    -0.018 A 
ATOM     31  C   LIG    1        7.527   4.681  -1.698  0.00  0.00    +0.006 A 
ATOM     32  C   LIG    1        8.464   3.684  -1.896  0.00  0.00    +0.004 A 
ATOM     33  C   LIG    1        8.083   2.475  -2.445  0.00  0.00    +0.045 A 
ATOM     34  C   LIG    1        6.758   2.261  -2.798  0.00  0.00    +0.120 A 
ATOM     35  C   LIG    1        5.819   3.262  -2.594  0.00  0.00    +0.051 A 
BRANCH  34  36
ATOM     36  O   LIG    1        6.381   1.073  -3.338  0.00  0.00    -0.495 OA
ATOM     37  C   LIG    1        7.401   0.087  -3.514  0.00  0.00    +0.277 C 
ENDBRANCH  34  36
ENDBRANCH  19  30
TORSDOF 3
