REMARK  Name = ZINC35974253
REMARK                            x       y       z     vdW  Elec       q    Type
REMARK                         _______ _______ _______ _____ _____    ______ ____
ROOT
ATOM      1  C   LIG    1        0.110   1.805  -0.239  0.00  0.00    -0.000 C 
ATOM      2  C   LIG    1        0.199   0.292  -0.029  0.00  0.00    +0.007 C 
ATOM      3  C   LIG    1        1.079  -0.003   1.187  0.00  0.00    -0.000 C 
ENDROOT
BRANCH   2   4
ATOM      4  N   LIG    1        0.785  -0.334  -1.222  0.00  0.00    +0.391 N 
ATOM      5  H   LIG    1        0.206  -0.136  -2.024  0.00  0.00    -0.080 HD
ATOM      6  C   LIG    1        0.860  -1.787  -1.023  0.00  0.00    -0.058 C 
ATOM      7  C   LIG    1        1.365  -2.452  -2.308  0.00  0.00    +0.088 C 
ATOM      8  N   LIG    1        2.640  -1.824  -2.688  0.00  0.00    -0.319 N 
ATOM      9  C   LIG    1        2.698  -0.356  -2.753  0.00  0.00    +0.088 C 
ATOM     10  C   LIG    1        2.131   0.210  -1.447  0.00  0.00    -0.058 C 
BRANCH   8  11
ATOM     11  C   LIG    1        3.758  -2.597  -2.979  0.00  0.00    +0.121 A 
ATOM     12  C   LIG    1        3.625  -3.974  -3.125  0.00  0.00    +0.044 A 
ATOM     13  C   LIG    1        4.745  -4.731  -3.415  0.00  0.00    +0.017 A 
ATOM     14  C   LIG    1        5.966  -4.083  -3.549  0.00  0.00    +0.073 A 
ATOM     15  C   LIG    1        6.026  -2.713  -3.391  0.00  0.00    +0.125 A 
ATOM     16  N   LIG    1        4.939  -2.016  -3.120  0.00  0.00    -0.240 NA
BRANCH  14  17
ATOM     17  C   LIG    1        7.214  -4.868  -3.864  0.00  0.00    +0.419 C 
ATOM     18  F   LIG    1        7.103  -6.155  -3.328  0.00  0.00    -0.166 F 
ATOM     19  F   LIG    1        8.323  -4.224  -3.304  0.00  0.00    -0.166 F 
ATOM     20  F   LIG    1        7.374  -4.952  -5.251  0.00  0.00    -0.166 F 
ENDBRANCH  14  17
ENDBRANCH   8  11
ENDBRANCH   2   4
BRANCH   2  21
ATOM     21  C   LIG    1       -1.182  -0.265   0.203  0.00  0.00    +0.202 C 
ATOM     22  N   LIG    1       -1.964  -0.587  -0.847  0.00  0.00    -0.313 N 
ATOM     23  H   LIG    1       -1.638  -0.460  -1.751  0.00  0.00    +0.149 HD
ATOM     24  O   LIG    1       -1.589  -0.424   1.334  0.00  0.00    -0.277 OA
BRANCH  22  25
ATOM     25  C   LIG    1       -3.306  -1.129  -0.621  0.00  0.00    +0.079 C 
ATOM     26  C   LIG    1       -3.217  -2.641  -0.411  0.00  0.00    +0.012 C 
ATOM     27  C   LIG    1       -2.606  -3.293  -1.653  0.00  0.00    +0.009 C 
ATOM     28  C   LIG    1       -3.486  -2.998  -2.869  0.00  0.00    -0.008 C 
ATOM     29  C   LIG    1       -3.576  -1.485  -3.079  0.00  0.00    +0.009 C 
ATOM     30  C   LIG    1       -4.888  -3.564  -2.633  0.00  0.00    +0.038 C 
ATOM     31  C   LIG    1       -5.499  -2.912  -1.391  0.00  0.00    +0.067 C 
ATOM     32  C   LIG    1       -5.588  -1.399  -1.601  0.00  0.00    +0.040 C 
ATOM     33  C   LIG    1       -4.619  -3.207  -0.175  0.00  0.00    +0.040 C 
ATOM     34  C   LIG    1       -4.187  -0.833  -1.837  0.00  0.00    +0.012 C 
BRANCH  31  35
ATOM     35  O   LIG    1       -6.809  -3.441  -1.171  0.00  0.00    -0.389 OA
ATOM     36  H   LIG    1       -6.828  -4.397  -1.030  0.00  0.00    +0.210 HD
ENDBRANCH  31  35
ENDBRANCH  22  25
ENDBRANCH   2  21
TORSDOF 6
