REMARK  Name = ZINC16052857
REMARK                            x       y       z     vdW  Elec       q    Type
REMARK                         _______ _______ _______ _____ _____    ______ ____
ROOT
ATOM      1  C   LIG    1        5.500  -1.686  -1.229  0.00  0.00    +0.084 A 
ATOM      2  C   LIG    1        6.228  -2.097  -0.157  0.00  0.00    +0.129 A 
ATOM      3  N   LIG    1        7.338  -2.711  -0.642  0.00  0.00    -0.282 N 
ATOM      4  H   LIG    1        8.038  -3.103  -0.096  0.00  0.00    +0.188 HD
ATOM      5  N   LIG    1        7.328  -2.698  -1.926  0.00  0.00    -0.167 NA
ATOM      6  C   LIG    1        6.240  -2.097  -2.368  0.00  0.00    +0.168 A 
ENDROOT
BRANCH   1   8
ATOM      7  C   LIG    1        3.697  -0.683  -0.038  0.00  0.00    +0.251 C 
ATOM      8  N   LIG    1        4.274  -1.004  -1.213  0.00  0.00    -0.278 N 
ATOM      9  H   LIG    1        3.841  -0.764  -2.047  0.00  0.00    +0.155 HD
ATOM     10  O   LIG    1        4.239  -0.984   1.008  0.00  0.00    -0.270 OA
BRANCH   7  15
ATOM     11  C   LIG    1       -0.017   1.379   0.010  0.00  0.00    +0.003 A 
ATOM     12  C   LIG    1        1.167   2.094   0.002  0.00  0.00    +0.021 A 
ATOM     13  C   LIG    1        2.379   1.431  -0.013  0.00  0.00    +0.054 A 
ATOM     14 CL   LIG    1        3.863   2.330  -0.024  0.00  0.00    -0.083 Cl
ATOM     15  C   LIG    1        2.406   0.034  -0.021  0.00  0.00    +0.074 A 
ATOM     16  C   LIG    1        1.205  -0.682  -0.013  0.00  0.00    +0.054 A 
ATOM     17 CL   LIG    1        1.226  -2.418  -0.023  0.00  0.00    -0.083 Cl
ATOM     18  C   LIG    1        0.002  -0.004   0.002  0.00  0.00    +0.021 A 
ENDBRANCH   7  15
ENDBRANCH   1   8
BRANCH   6  19
ATOM     19  C   LIG    1        5.865  -1.889  -3.780  0.00  0.00    +0.266 C 
ATOM     20  N   LIG    1        6.670  -2.337  -4.763  0.00  0.00    -0.307 N 
ATOM     21  H   LIG    1        7.496  -2.796  -4.543  0.00  0.00    +0.149 HD
ATOM     22  O   LIG    1        4.830  -1.314  -4.055  0.00  0.00    -0.268 OA
BRANCH  20  23
ATOM     23  C   LIG    1        6.298  -2.130  -6.165  0.00  0.00    +0.070 C 
ATOM     24  C   LIG    1        5.372  -3.261  -6.621  0.00  0.00    +0.003 C 
ATOM     25  C   LIG    1        5.051  -3.083  -8.107  0.00  0.00    -0.081 C 
ATOM     26  N   LIG    1        6.294  -3.121  -8.887  0.00  0.00    +0.379 N 
ATOM     27  H   LIG    1        6.074  -3.056  -9.870  0.00  0.00    -0.086 HD
ATOM     28  H   LIG    1        6.776  -3.989  -8.709  0.00  0.00    -0.086 HD
ATOM     29  C   LIG    1        7.156  -1.996  -8.506  0.00  0.00    -0.081 C 
ATOM     30  C   LIG    1        7.558  -2.132  -7.035  0.00  0.00    +0.003 C 
ENDBRANCH  20  23
ENDBRANCH   6  19
TORSDOF 4
