REMARK  Name = ZINC28872770
REMARK                            x       y       z     vdW  Elec       q    Type
REMARK                         _______ _______ _______ _____ _____    ______ ____
ROOT
ATOM      1  C   LIG    1       -1.412  -0.999   1.415  0.00  0.00    +0.111 C 
ATOM      2  N   LIG    1       -1.299  -0.525   0.029  0.00  0.00    -0.375 NA
ATOM      3  C   LIG    1       -2.375   0.449  -0.256  0.00  0.00    +0.093 C 
ATOM      4  C   LIG    1       -1.702   1.800   0.080  0.00  0.00    +0.054 C 
ATOM      5  C   LIG    1       -0.229   1.501  -0.117  0.00  0.00    -0.026 A 
ATOM      6  C   LIG    1        0.860   2.336  -0.260  0.00  0.00    +0.005 A 
ATOM      7  C   LIG    1        2.122   1.802  -0.444  0.00  0.00    +0.000 A 
ATOM      8  C   LIG    1        2.287   0.430  -0.485  0.00  0.00    +0.002 A 
ATOM      9  C   LIG    1        1.196  -0.404  -0.340  0.00  0.00    +0.022 A 
ATOM     10  C   LIG    1       -0.071   0.127  -0.151  0.00  0.00    +0.019 A 
ENDROOT
BRANCH   2  11
ATOM     11  C   LIG    1       -1.399  -1.662  -0.896  0.00  0.00    +0.178 C 
BRANCH  11  12
ATOM     12  C   LIG    1       -2.731  -2.278  -0.774  0.00  0.00    -0.081 C 
ATOM     13  C   LIG    1       -3.793  -2.769  -0.677  0.00  0.00    -0.060 C 
BRANCH  13  14
ATOM     14  C   LIG    1       -5.124  -3.385  -0.555  0.00  0.00    +0.319 C 
BRANCH  14  15
ATOM     15  O   LIG    1       -6.127  -2.419  -0.877  0.00  0.00    -0.464 OA
BRANCH  15  16
ATOM     16  C   LIG    1       -7.415  -2.827  -0.814  0.00  0.00    +0.231 C 
ATOM     17  N   LIG    1       -7.812  -3.997  -0.491  0.00  0.00    -0.051 NA
ATOM     18  O   LIG    1       -9.220  -4.130  -0.505  0.00  0.00    -0.391 OA
ATOM     19  C   LIG    1       -9.752  -3.028  -1.270  0.00  0.00    +0.272 C 
ATOM     20  C   LIG    1       -8.632  -1.970  -1.107  0.00  0.00    +0.142 C 
ENDBRANCH  15  16
ENDBRANCH  14  15
ENDBRANCH  13  14
ENDBRANCH  11  12
ENDBRANCH   2  11
TORSDOF 5
