REMARK  Name = ZINC27099199
REMARK                            x       y       z     vdW  Elec       q    Type
REMARK                         _______ _______ _______ _____ _____    ______ ____
ROOT
ATOM      1  C   LIG    1        1.246  -2.165  -0.021  0.00  0.00    +0.025 A 
ATOM      2  C   LIG    1        0.498  -2.881   0.909  0.00  0.00    +0.027 A 
ATOM      3  C   LIG    1        0.515  -4.264   0.902  0.00  0.00    +0.019 A 
ATOM      4 BR   LIG    1       -0.512  -5.223   2.167  0.00  0.00    -0.050 Br
ATOM      5  C   LIG    1        1.282  -4.949  -0.019  0.00  0.00    +0.034 A 
ATOM      6  C   LIG    1        2.045  -4.247  -0.957  0.00  0.00    +0.102 A 
ATOM      7  C   LIG    1        2.027  -2.846  -0.959  0.00  0.00    +0.139 A 
ENDROOT
BRANCH   1  11
ATOM      8  C   LIG    1        1.170   2.086   0.002  0.00  0.00    +0.000 A 
ATOM      9  C   LIG    1       -0.017   1.376   0.010  0.00  0.00    +0.001 A 
ATOM     10  C   LIG    1        0.002  -0.004   0.002  0.00  0.00    +0.008 A 
ATOM     11  C   LIG    1        1.220  -0.682  -0.013  0.00  0.00    -0.014 A 
ATOM     12  C   LIG    1        2.412   0.039  -0.021  0.00  0.00    +0.008 A 
ATOM     13  C   LIG    1        2.382   1.419  -0.013  0.00  0.00    +0.001 A 
ENDBRANCH   1  11
BRANCH   6  14
ATOM     14  C   LIG    1        2.863  -4.978  -1.941  0.00  0.00    +0.340 C 
ATOM     15  O   LIG    1        3.525  -4.366  -2.755  0.00  0.00    -0.245 OA
BRANCH  14  16
ATOM     16  O   LIG    1        2.878  -6.326  -1.936  0.00  0.00    -0.477 OA
ATOM     17  H   LIG    1        2.368  -6.798  -1.308  0.00  0.00    +0.295 HD
ENDBRANCH  14  16
ENDBRANCH   6  14
BRANCH   7  18
ATOM     18  O   LIG    1        2.763  -2.156  -1.865  0.00  0.00    -0.505 OA
ATOM     19  H   LIG    1        3.376  -2.696  -2.601  0.00  0.00    +0.292 HD
ENDBRANCH   7  18
TORSDOF 4
