REMARK  Name = ZINC26143524
REMARK                            x       y       z     vdW  Elec       q    Type
REMARK                         _______ _______ _______ _____ _____    ______ ____
ROOT
ATOM      1  C   LIG    1        4.158  -4.239   5.452  0.00  0.00    +0.188 A 
ATOM      2  C   LIG    1        4.751  -5.461   5.122  0.00  0.00    +0.231 A 
ATOM      3  C   LIG    1        5.442  -6.151   6.116  0.00  0.00    +0.264 A 
ATOM      4  N   LIG    1        5.513  -5.629   7.335  0.00  0.00    -0.190 NA
ATOM      5  C   LIG    1        4.938  -4.468   7.612  0.00  0.00    +0.166 A 
ATOM      6  N   LIG    1        4.277  -3.778   6.692  0.00  0.00    -0.207 NA
ENDROOT
BRANCH   5   7
ATOM      7  C   LIG    1        5.042  -3.921   8.987  0.00  0.00    +0.023 A 
ATOM      8  C   LIG    1        5.739  -4.612   9.983  0.00  0.00    +0.031 A 
ATOM      9  C   LIG    1        5.814  -4.072  11.252  0.00  0.00    +0.112 A 
ATOM     10  N   LIG    1        5.240  -2.921  11.536  0.00  0.00    -0.252 NA
ATOM     11  C   LIG    1        4.567  -2.229  10.624  0.00  0.00    +0.110 A 
ATOM     12  C   LIG    1        4.450  -2.701   9.319  0.00  0.00    +0.043 A 
BRANCH  11  13
ATOM     13  C   LIG    1        3.941  -0.940  10.997  0.00  0.00    +0.198 A 
ATOM     14  N   LIG    1        3.233  -0.138  10.201  0.00  0.00    -0.238 N 
ATOM     15  H   LIG    1        3.028  -0.293   9.250  0.00  0.00    +0.192 HD
ATOM     16  N   LIG    1        2.865   0.879  10.903  0.00  0.00    -0.046 NA
ATOM     17  N   LIG    1        3.311   0.749  12.104  0.00  0.00    -0.023 NA
ATOM     18  N   LIG    1        3.968  -0.357  12.195  0.00  0.00    -0.107 NA
ENDBRANCH  11  13
ENDBRANCH   5   7
BRANCH   1  19
ATOM     19  N   LIG    1        3.460  -3.514   4.495  0.00  0.00    -0.199 N 
ATOM     20  H   LIG    1        3.376  -3.862   3.578  0.00  0.00    +0.175 HD
BRANCH  19  21
ATOM     21  S   LIG    1        2.768  -2.064   4.897  0.00  0.00    +0.060 S 
ATOM     22  O   LIG    1        1.736  -2.352   5.831  0.00  0.00    -0.154 OA
ATOM     23  O   LIG    1        3.834  -1.173   5.192  0.00  0.00    -0.154 OA
BRANCH  21  27
ATOM     24  C   LIG    1        0.731  -0.503   1.223  0.00  0.00    +0.006 C 
ATOM     25  C   LIG    1        2.054  -0.152   1.443  0.00  0.00    +0.008 C 
ATOM     26  C   LIG    1        2.685  -0.635   2.580  0.00  0.00    +0.044 C 
ATOM     27  C   LIG    1        1.978  -1.444   3.449  0.00  0.00    +0.218 C 
ATOM     28  N   LIG    1        0.721  -1.758   3.208  0.00  0.00    -0.294 NA
ATOM     29  H   LIG    1        0.247  -2.328   3.833  0.00  0.00    +0.124 HD
ATOM     30  C   LIG    1        0.087  -1.312   2.140  0.00  0.00    +0.086 C 
BRANCH  24  32
ATOM     31  C   LIG    1       -0.019   1.526   0.010  0.00  0.00    +0.007 C 
ATOM     32  C   LIG    1        0.002  -0.004   0.002  0.00  0.00    -0.013 C 
ATOM     33  C   LIG    1        0.718  -0.497  -1.257  0.00  0.00    +0.007 C 
ENDBRANCH  24  32
ENDBRANCH  21  27
ENDBRANCH  19  21
ENDBRANCH   1  19
BRANCH   2  34
ATOM     34  O   LIG    1        4.657  -5.964   3.861  0.00  0.00    -0.443 OA
BRANCH  34  35
ATOM     35  C   LIG    1        5.622  -5.627   2.965  0.00  0.00    +0.170 A 
ATOM     36  C   LIG    1        6.667  -4.800   3.348  0.00  0.00    +0.050 A 
ATOM     37  C   LIG    1        7.647  -4.458   2.436  0.00  0.00    +0.004 A 
ATOM     38  C   LIG    1        7.590  -4.940   1.141  0.00  0.00    +0.004 A 
ATOM     39  C   LIG    1        6.551  -5.766   0.753  0.00  0.00    +0.049 A 
ATOM     40  C   LIG    1        5.568  -6.117   1.664  0.00  0.00    +0.162 A 
BRANCH  40  41
ATOM     41  O   LIG    1        4.549  -6.934   1.285  0.00  0.00    -0.491 OA
ATOM     42  C   LIG    1        4.558  -7.399  -0.066  0.00  0.00    +0.277 C 
ENDBRANCH  40  41
ENDBRANCH  34  35
ENDBRANCH   2  34
BRANCH   3  43
ATOM     43  O   LIG    1        6.033  -7.341   5.843  0.00  0.00    -0.471 OA
BRANCH  43  44
ATOM     44  C   LIG    1        6.722  -7.986   6.916  0.00  0.00    +0.258 C 
BRANCH  44  45
ATOM     45  C   LIG    1        7.319  -9.304   6.421  0.00  0.00    +0.196 C 
BRANCH  45  46
ATOM     46  O   LIG    1        8.320  -9.034   5.438  0.00  0.00    -0.392 OA
ATOM     47  H   LIG    1        8.743  -9.826   5.079  0.00  0.00    +0.210 HD
ENDBRANCH  45  46
ENDBRANCH  44  45
ENDBRANCH  43  44
ENDBRANCH   3  43
TORSDOF 13
