REMARK  Name = ZINC64527030
REMARK                            x       y       z     vdW  Elec       q    Type
REMARK                         _______ _______ _______ _____ _____    ______ ____
ROOT
ATOM      1  C   LIG    1        0.894  -0.193   1.209  0.00  0.00    -0.017 A 
ATOM      2  C   LIG    1        0.315  -0.736   2.347  0.00  0.00    +0.008 A 
ATOM      3  C   LIG    1        1.062  -0.920   3.491  0.00  0.00    +0.028 A 
ATOM      4  C   LIG    1        2.403  -0.558   3.502  0.00  0.00    +0.066 A 
ATOM      5  C   LIG    1        2.989  -0.009   2.349  0.00  0.00    +0.065 A 
ATOM      6  N   LIG    1        4.289   0.244   2.648  0.00  0.00    -0.342 N 
ATOM      7  H   LIG    1        4.938   0.627   2.038  0.00  0.00    +0.167 HD
ATOM      8  C   LIG    1        4.531  -0.106   3.878  0.00  0.00    +0.105 A 
ATOM      9  N   LIG    1        3.404  -0.607   4.452  0.00  0.00    -0.331 N 
ATOM     10  C   LIG    1        3.276  -1.106   5.823  0.00  0.00    +0.150 C 
ATOM     11  C   LIG    1        2.213   0.164   1.200  0.00  0.00    +0.033 A 
ENDROOT
BRANCH   1  13
ATOM     12  C   LIG    1       -0.919   1.154   0.186  0.00  0.00    +0.043 C 
ATOM     13  C   LIG    1        0.061   0.000  -0.032  0.00  0.00    +0.119 C 
BRANCH  13  14
ATOM     14  C   LIG    1       -0.707  -1.263  -0.323  0.00  0.00    +0.240 C 
ATOM     15  N   LIG    1       -1.265  -1.448  -1.536  0.00  0.00    -0.300 N 
ATOM     16  C   LIG    1       -1.149  -0.534  -2.681  0.00  0.00    +0.108 C 
ATOM     17  C   LIG    1       -1.969  -1.143  -3.838  0.00  0.00    +0.020 C 
ATOM     18  C   LIG    1       -2.963  -2.081  -3.104  0.00  0.00    +0.020 C 
ATOM     19  C   LIG    1       -2.088  -2.605  -1.935  0.00  0.00    +0.108 C 
ATOM     20  O   LIG    1       -0.823  -2.113   0.534  0.00  0.00    -0.273 OA
ENDBRANCH  13  14
BRANCH  13  21
ATOM     21  N   LIG    1        0.939   0.312  -1.168  0.00  0.00    -0.290 NA
ATOM     22  H   LIG    1        0.405   0.642  -1.958  0.00  0.00    +0.124 HD
BRANCH  21  23
ATOM     23  C   LIG    1        1.758  -0.851  -1.535  0.00  0.00    +0.203 C 
BRANCH  23  24
ATOM     24  C   LIG    1        2.643  -0.494  -2.701  0.00  0.00    +0.319 C 
ATOM     25  O   LIG    1        2.597   0.625  -3.182  0.00  0.00    -0.250 OA
BRANCH  24  26
ATOM     26  O   LIG    1        3.406  -1.325  -3.164  0.00  0.00    -0.480 OA
ATOM     27  H   LIG    1        3.442  -2.185  -2.795  0.00  0.00    +0.295 HD
ENDBRANCH  24  26
ENDBRANCH  23  24
ENDBRANCH  21  23
ENDBRANCH  13  21
ENDBRANCH   1  13
BRANCH   8  28
ATOM     28  C   LIG    1        5.865   0.024   4.566  0.00  0.00    +0.174 C 
BRANCH  28  29
ATOM     29  N   LIG    1        5.907   1.281   5.316  0.00  0.00    -0.337 N 
ATOM     30  H   LIG    1        5.141   1.875   5.311  0.00  0.00    +0.147 HD
BRANCH  29  31
ATOM     31  C   LIG    1        7.046   1.623   6.038  0.00  0.00    +0.027 A 
ATOM     32  C   LIG    1        8.148   0.772   6.041  0.00  0.00    +0.024 A 
ATOM     33  C   LIG    1        9.277   1.108   6.753  0.00  0.00    +0.017 A 
ATOM     34  C   LIG    1        9.316   2.304   7.474  0.00  0.00    +0.061 A 
ATOM     35  C   LIG    1        8.209   3.156   7.469  0.00  0.00    +0.017 A 
ATOM     36  C   LIG    1        7.085   2.818   6.751  0.00  0.00    +0.024 A 
BRANCH  34  37
ATOM     37  C   LIG    1       10.526   2.667   8.240  0.00  0.00    +0.266 C 
ATOM     38  N   LIG    1       10.562   3.809   8.927  0.00  0.00    -0.288 N 
ATOM     39  H   LIG    1       11.356   4.047   9.430  0.00  0.00    +0.301 HD
ATOM     40  H   LIG    1        9.794   4.401   8.924  0.00  0.00    +0.301 HD
BRANCH  37  41
ATOM     41  N   LIG    1       11.581   1.853   8.244  0.00  0.00    -0.250 N 
ATOM     42  H   LIG    1       12.375   2.092   8.747  0.00  0.00    +0.288 HD
ATOM     43  H   LIG    1       11.555   1.022   7.744  0.00  0.00    +0.288 HD
ENDBRANCH  37  41
ENDBRANCH  34  37
ENDBRANCH  29  31
ENDBRANCH  28  29
ENDBRANCH   8  28
TORSDOF 11
