REMARK  Name = ZINC29413191
REMARK                            x       y       z     vdW  Elec       q    Type
REMARK                         _______ _______ _______ _____ _____    ______ ____
ROOT
ATOM      1  C   LIG    1       -0.023   1.733   0.048  0.00  0.00    +0.035 C 
ATOM      2  C   LIG    1        1.157   2.448   0.051  0.00  0.00    +0.082 C 
ATOM      3  N   LIG    1        1.148   3.768   0.025  0.00  0.00    -0.314 NA
ATOM      4  H   LIG    1        2.097   4.324   0.029  0.00  0.00    +0.122 HD
ATOM      5  C   LIG    1        0.024   4.458  -0.006  0.00  0.00    +0.101 C 
ATOM      6  C   LIG    1       -1.199   3.818  -0.012  0.00  0.00    +0.111 C 
ATOM      7 CL   LIG    1       -2.672   4.735  -0.052  0.00  0.00    -0.119 Cl
ATOM      8  C   LIG    1       -1.234   2.423   0.021  0.00  0.00    +0.077 C 
ENDROOT
BRANCH   8   9
ATOM      9  N   LIG    1       -2.447   1.739   0.022  0.00  0.00    -0.301 NA
ATOM     10  C   LIG    1       -2.240   0.301  -0.197  0.00  0.00    +0.065 C 
ATOM     11  C   LIG    1       -3.598  -0.402  -0.268  0.00  0.00    -0.067 C 
ATOM     12  N   LIG    1       -4.336  -0.163   0.981  0.00  0.00    +0.381 N 
ATOM     13  H   LIG    1       -3.765  -0.572   1.828  0.00  0.00    -0.086 HD
ATOM     14  H   LIG    1       -5.317  -0.658   0.927  0.00  0.00    -0.086 HD
ATOM     15  C   LIG    1       -4.542   1.275   1.200  0.00  0.00    -0.067 C 
ATOM     16  C   LIG    1       -3.185   1.978   1.271  0.00  0.00    +0.065 C 
ENDBRANCH   8   9
TORSDOF 1
