REMARK  Name = ZINC19928408
REMARK                            x       y       z     vdW  Elec       q    Type
REMARK                         _______ _______ _______ _____ _____    ______ ____
ROOT
ATOM      1  C   LIG    1       -4.986   1.067   0.217  0.00  0.00    +0.024 C 
ATOM      2  C   LIG    1       -3.673   1.816   0.455  0.00  0.00    +0.055 C 
ATOM      3  C   LIG    1       -2.497   0.940   0.022  0.00  0.00    +0.053 C 
ATOM      4  C   LIG    1       -1.225   1.749   0.017  0.00  0.00    -0.042 A 
ATOM      5  C   LIG    1       -0.013   1.076   0.008  0.00  0.00    +0.004 A 
ATOM      6  C   LIG    1        1.175   1.779   0.000  0.00  0.00    +0.000 A 
ATOM      7  C   LIG    1        1.157   3.161   0.009  0.00  0.00    +0.000 A 
ATOM      8  C   LIG    1       -0.049   3.832   0.026  0.00  0.00    +0.005 A 
ATOM      9  C   LIG    1       -1.244   3.127   0.035  0.00  0.00    -0.030 A 
ATOM     10  C   LIG    1       -2.534   3.904   0.061  0.00  0.00    +0.116 C 
ATOM     11  N   LIG    1       -3.655   3.051  -0.345  0.00  0.00    -0.309 NA
ATOM     12  H   LIG    1       -3.546   2.796  -1.410  0.00  0.00    +0.123 HD
ENDROOT
TORSDOF 0
