REMARK  Name = ZINC19228212
REMARK                            x       y       z     vdW  Elec       q    Type
REMARK                         _______ _______ _______ _____ _____    ______ ____
ROOT
ATOM      1  C   LIG    1       -0.016   1.362   0.009  0.00  0.00    +0.001 A 
ATOM      2  C   LIG    1        1.169   2.083   0.002  0.00  0.00    +0.002 A 
ATOM      3  C   LIG    1        2.385   1.435  -0.013  0.00  0.00    +0.026 A 
ATOM      4  C   LIG    1        2.428   0.045  -0.021  0.00  0.00    +0.047 A 
ATOM      5  C   LIG    1        1.223  -0.683  -0.014  0.00  0.00    +0.004 A 
ATOM      6  C   LIG    1        1.608  -2.089  -0.025  0.00  0.00    -0.005 A 
ATOM      7  C   LIG    1        2.956  -2.136  -0.039  0.00  0.00    +0.023 A 
ATOM      8  C   LIG    1        3.728  -3.436  -0.050  0.00  0.00    +0.068 C 
ATOM      9  C   LIG    1        2.767  -4.560   0.360  0.00  0.00    +0.087 C 
ATOM     10  N   LIG    1        1.533  -4.469  -0.432  0.00  0.00    -0.312 NA
ATOM     11  H   LIG    1        1.738  -4.440  -1.419  0.00  0.00    +0.122 HD
ATOM     12  C   LIG    1        0.722  -3.308  -0.026  0.00  0.00    +0.118 C 
ATOM     13  N   LIG    1        3.460  -0.869  -0.037  0.00  0.00    -0.358 N 
ATOM     14  H   LIG    1        4.404  -0.645  -0.046  0.00  0.00    +0.166 HD
ATOM     15  C   LIG    1        0.002  -0.004   0.002  0.00  0.00    +0.010 A 
ENDROOT
TORSDOF 0
