REMARK  Name = ZINC28378781
REMARK                            x       y       z     vdW  Elec       q    Type
REMARK                         _______ _______ _______ _____ _____    ______ ____
ROOT
ATOM      1  C   LIG    1        0.002  -0.004   0.002  0.00  0.00    +0.044 C 
ATOM      2  C   LIG    1       -0.019   1.544   0.011  0.00  0.00    +0.131 C 
ATOM      3  C   LIG    1        1.444   1.926  -0.001  0.00  0.00    +0.237 C 
ATOM      4  N   LIG    1        2.180   0.927  -0.346  0.00  0.00    -0.277 N 
ATOM      5  H   LIG    1        3.272   1.042  -0.401  0.00  0.00    +0.304 HD
ATOM      6  C   LIG    1        1.389  -0.277  -0.625  0.00  0.00    +0.173 C 
ATOM      7  C   LIG    1        2.035  -1.502   0.026  0.00  0.00    +0.057 C 
ENDROOT
BRANCH   3   8
ATOM      8  N   LIG    1        1.924   3.171   0.313  0.00  0.00    -0.254 N 
ATOM      9  H   LIG    1        1.227   3.972   0.598  0.00  0.00    +0.288 HD
ATOM     10  H   LIG    1        3.006   3.368   0.280  0.00  0.00    +0.288 HD
ENDBRANCH   3   8
BRANCH   1  12
ATOM     11  C   LIG    1       -2.474  -0.234  -0.245  0.00  0.00    +0.004 C 
ATOM     12  C   LIG    1       -1.119  -0.566  -0.874  0.00  0.00    +0.005 C 
ENDBRANCH   1  12
TORSDOF 2
