REMARK  Name = ZINC26718411
REMARK                            x       y       z     vdW  Elec       q    Type
REMARK                         _______ _______ _______ _____ _____    ______ ____
ROOT
ATOM      1  C   LIG    1       -1.264  -5.255   1.410  0.00  0.00    -0.028 A 
ATOM      2  C   LIG    1       -0.217  -5.033   2.288  0.00  0.00    +0.006 A 
ATOM      3  C   LIG    1       -0.275  -5.528   3.575  0.00  0.00    +0.009 A 
ATOM      4  C   LIG    1       -1.391  -6.253   3.990  0.00  0.00    -0.016 A 
ATOM      5  C   LIG    1       -2.442  -6.473   3.102  0.00  0.00    +0.009 A 
ATOM      6  C   LIG    1       -2.376  -5.969   1.819  0.00  0.00    +0.006 A 
ENDROOT
BRANCH   4   7
ATOM      7  C   LIG    1       -1.458  -6.788   5.372  0.00  0.00    +0.009 A 
ATOM      8  C   LIG    1       -1.379  -5.923   6.462  0.00  0.00    +0.010 A 
ATOM      9  C   LIG    1       -1.443  -6.426   7.745  0.00  0.00    +0.001 A 
ATOM     10  C   LIG    1       -1.586  -7.786   7.951  0.00  0.00    +0.002 A 
ATOM     11  C   LIG    1       -1.665  -8.649   6.873  0.00  0.00    +0.030 A 
ATOM     12  C   LIG    1       -1.608  -8.156   5.585  0.00  0.00    +0.120 A 
BRANCH  12  13
ATOM     13  S   LIG    1       -1.717  -9.257   4.213  0.00  0.00    +0.103 S 
ATOM     14  O   LIG    1       -1.794 -10.570   4.751  0.00  0.00    -0.146 OA
ATOM     15  O   LIG    1       -0.703  -8.866   3.298  0.00  0.00    -0.146 OA
BRANCH  13  16
ATOM     16  N   LIG    1       -3.166  -8.966   3.466  0.00  0.00    -0.090 NA
ATOM     17  C   LIG    1       -3.547  -9.714   2.468  0.00  0.00    +0.246 C 
BRANCH  17  18
ATOM     18  C   LIG    1       -4.782  -9.394   1.739  0.00  0.00    +0.078 A 
ATOM     19  C   LIG    1       -5.406 -10.102   0.726  0.00  0.00    -0.031 A 
ATOM     20  C   LIG    1       -4.851 -11.399   0.197  0.00  0.00    +0.045 C 
ATOM     21  C   LIG    1       -6.564  -9.545   0.233  0.00  0.00    +0.012 A 
ATOM     22  C   LIG    1       -7.006  -8.376   0.754  0.00  0.00    +0.046 A 
ATOM     23  S   LIG    1       -5.872  -7.997   1.934  0.00  0.00    -0.092 S 
ENDBRANCH  17  18
BRANCH  17  24
ATOM     24  O   LIG    1       -2.805 -10.786   2.104  0.00  0.00    -0.491 OA
ATOM     25  H   LIG    1       -2.017 -10.990   2.569  0.00  0.00    +0.294 HD
ENDBRANCH  17  24
ENDBRANCH  13  16
ENDBRANCH  12  13
ENDBRANCH   4   7
BRANCH   1  26
ATOM     26  C   LIG    1       -1.194  -4.712   0.006  0.00  0.00    +0.163 C 
BRANCH  26  32
ATOM     27  C   LIG    1       -0.875  -2.205   0.072  0.00  0.00    +0.135 A 
ATOM     28  N   LIG    1       -1.631  -1.155   0.029  0.00  0.00    -0.149 NA
ATOM     29  N   LIG    1       -2.962  -1.581  -0.073  0.00  0.00    -0.180 N 
ATOM     30  C   LIG    1       -2.953  -2.930  -0.088  0.00  0.00    +0.352 A 
ATOM     31  O   LIG    1       -3.927  -3.657  -0.167  0.00  0.00    -0.244 OA
ATOM     32  N   LIG    1       -1.667  -3.325  -0.004  0.00  0.00    -0.275 N 
BRANCH  29  33
ATOM     33  C   LIG    1       -4.093  -0.758  -0.145  0.00  0.00    +0.082 A 
ATOM     34  C   LIG    1       -4.973  -0.876  -1.214  0.00  0.00    +0.028 A 
ATOM     35  C   LIG    1       -6.087  -0.064  -1.282  0.00  0.00    +0.002 A 
ATOM     36  C   LIG    1       -6.328   0.868  -0.289  0.00  0.00    +0.001 A 
ATOM     37  C   LIG    1       -5.454   0.989   0.776  0.00  0.00    +0.014 A 
ATOM     38  C   LIG    1       -4.340   0.175   0.853  0.00  0.00    +0.080 A 
BRANCH  38  39
ATOM     39  C   LIG    1       -3.392   0.303   2.017  0.00  0.00    +0.419 C 
ATOM     40  F   LIG    1       -2.151   0.761   1.559  0.00  0.00    -0.166 F 
ATOM     41  F   LIG    1       -3.232  -0.945   2.628  0.00  0.00    -0.166 F 
ATOM     42  F   LIG    1       -3.912   1.213   2.944  0.00  0.00    -0.166 F 
ENDBRANCH  38  39
ENDBRANCH  29  33
BRANCH  27  43
ATOM     43  C   LIG    1        0.628  -2.200   0.182  0.00  0.00    +0.076 C 
BRANCH  43  44
ATOM     44  C   LIG    1        1.130  -0.756   0.243  0.00  0.00    +0.007 C 
BRANCH  44  46
ATOM     45  C   LIG    1        3.158   0.694   0.415  0.00  0.00    +0.004 C 
ATOM     46  C   LIG    1        2.656  -0.750   0.354  0.00  0.00    -0.003 C 
ENDBRANCH  44  46
ENDBRANCH  43  44
ENDBRANCH  27  43
ENDBRANCH  26  32
ENDBRANCH   1  26
TORSDOF 12
