REMARK  Name = ZINC34801833
REMARK                            x       y       z     vdW  Elec       q    Type
REMARK                         _______ _______ _______ _____ _____    ______ ____
ROOT
ATOM      1  C   LIG    1        5.104  -2.587   3.406  0.00  0.00    +0.159 C 
ATOM      2  C   LIG    1        5.607  -2.763   4.841  0.00  0.00    +0.032 C 
ATOM      3  C   LIG    1        6.789  -1.850   5.111  0.00  0.00    +0.004 C 
ATOM      4  C   LIG    1        8.033  -2.206   4.318  0.00  0.00    +0.019 C 
ATOM      5  C   LIG    1        7.814  -1.964   2.823  0.00  0.00    +0.108 C 
ATOM      6  N   LIG    1        7.202  -3.166   2.235  0.00  0.00    -0.296 N 
ATOM      7  C   LIG    1        5.929  -3.469   2.492  0.00  0.00    +0.236 C 
ATOM      8  O   LIG    1        5.432  -4.458   1.996  0.00  0.00    -0.274 OA
ENDROOT
BRANCH   1  10
ATOM      9  C   LIG    1        2.908  -2.474   2.357  0.00  0.00    +0.217 C 
ATOM     10  N   LIG    1        3.695  -2.980   3.327  0.00  0.00    -0.304 N 
ATOM     11  H   LIG    1        3.328  -3.603   3.973  0.00  0.00    +0.149 HD
ATOM     12  O   LIG    1        3.384  -1.758   1.502  0.00  0.00    -0.275 OA
BRANCH   9  13
ATOM     13  C   LIG    1        1.436  -2.798   2.335  0.00  0.00    +0.087 C 
BRANCH  13  14
ATOM     14  C   LIG    1        0.709  -1.805   1.425  0.00  0.00    +0.089 C 
BRANCH  14  15
ATOM     15  C   LIG    1        1.014  -0.399   1.871  0.00  0.00    +0.239 C 
ATOM     16  N   LIG    1        0.721  -0.012   3.129  0.00  0.00    -0.197 N 
ATOM     17  H   LIG    1        0.381  -0.657   3.768  0.00  0.00    +0.182 HD
ATOM     18  O   LIG    1        1.523   0.386   1.099  0.00  0.00    -0.273 OA
BRANCH  16  19
ATOM     19  O   LIG    1        0.909   1.337   3.517  0.00  0.00    -0.295 OA
ATOM     20  H   LIG    1        0.671   1.519   4.436  0.00  0.00    +0.241 HD
ENDBRANCH  16  19
ENDBRANCH  14  15
BRANCH  14  21
ATOM     21  C   LIG    1        1.180  -1.996  -0.018  0.00  0.00    +0.013 C 
BRANCH  21  23
ATOM     22  C   LIG    1        0.836  -1.283  -2.387  0.00  0.00    +0.004 C 
ATOM     23  C   LIG    1        0.365  -1.092  -0.944  0.00  0.00    -0.003 C 
ENDBRANCH  21  23
ENDBRANCH  14  21
ENDBRANCH  13  14
BRANCH  13  24
ATOM     24  C   LIG    1        1.234  -4.218   1.804  0.00  0.00    +0.016 C 
BRANCH  24  25
ATOM     25  C   LIG    1        1.851  -5.221   2.782  0.00  0.00    -0.016 C 
ATOM     26  C   LIG    1        1.744  -6.632   2.201  0.00  0.00    +0.007 C 
ATOM     27  C   LIG    1        1.101  -5.160   4.114  0.00  0.00    +0.007 C 
ENDBRANCH  24  25
ENDBRANCH  13  24
ENDBRANCH   9  13
ENDBRANCH   1  10
BRANCH   6  28
ATOM     28  C   LIG    1        7.994  -4.032   1.359  0.00  0.00    +0.143 C 
BRANCH  28  29
ATOM     29  C   LIG    1        8.679  -5.090   2.184  0.00  0.00    -0.027 A 
ATOM     30  C   LIG    1        9.937  -4.851   2.708  0.00  0.00    +0.005 A 
ATOM     31  C   LIG    1       10.568  -5.820   3.466  0.00  0.00    +0.004 A 
ATOM     32  C   LIG    1        9.944  -7.030   3.701  0.00  0.00    +0.046 A 
ATOM     33  C   LIG    1        8.683  -7.272   3.177  0.00  0.00    +0.129 A 
ATOM     34  C   LIG    1        8.049  -6.296   2.421  0.00  0.00    +0.051 A 
BRANCH  33  35
ATOM     35  O   LIG    1        8.068  -8.462   3.407  0.00  0.00    -0.456 OA
BRANCH  35  36
ATOM     36  C   LIG    1        8.029  -9.367   2.394  0.00  0.00    +0.128 A 
ATOM     37  C   LIG    1        8.707  -9.114   1.210  0.00  0.00    +0.046 A 
ATOM     38  C   LIG    1        8.666 -10.035   0.182  0.00  0.00    +0.004 A 
ATOM     39  C   LIG    1        7.949 -11.209   0.332  0.00  0.00    +0.000 A 
ATOM     40  C   LIG    1        7.272 -11.463   1.510  0.00  0.00    +0.004 A 
ATOM     41  C   LIG    1        7.316 -10.547   2.544  0.00  0.00    +0.046 A 
ENDBRANCH  35  36
ENDBRANCH  33  35
ENDBRANCH  28  29
ENDBRANCH   6  28
TORSDOF 13
