REMARK  Name = ZINC13819807
REMARK                            x       y       z     vdW  Elec       q    Type
REMARK                         _______ _______ _______ _____ _____    ______ ____
ROOT
ATOM      1  C   LIG    1        0.168   0.067   0.266  0.00  0.00    +0.046 A 
ATOM      2  C   LIG    1        0.802  -0.732  -0.691  0.00  0.00    +0.145 A 
ATOM      3  N   LIG    1        0.521  -1.989  -0.448  0.00  0.00    -0.173 NA
ATOM      4  N   LIG    1       -0.307  -2.066   0.677  0.00  0.00    -0.221 N 
ATOM      5  C   LIG    1       -0.871  -3.124   1.331  0.00  0.00    +0.124 A 
ATOM      6  C   LIG    1       -1.652  -2.886   2.427  0.00  0.00    +0.018 A 
ATOM      7  C   LIG    1       -1.854  -1.555   2.852  0.00  0.00    +0.123 A 
ATOM      8  N   LIG    1       -1.296  -0.564   2.198  0.00  0.00    -0.235 NA
ATOM      9  C   LIG    1       -0.526  -0.791   1.128  0.00  0.00    +0.163 A 
ENDROOT
BRANCH   1  13
ATOM     10  C   LIG    1        0.331   4.307   0.520  0.00  0.00    +0.000 A 
ATOM     11  C   LIG    1        1.501   3.579   0.398  0.00  0.00    +0.001 A 
ATOM     12  C   LIG    1        1.454   2.202   0.316  0.00  0.00    +0.008 A 
ATOM     13  C   LIG    1        0.225   1.545   0.354  0.00  0.00    -0.013 A 
ATOM     14  C   LIG    1       -0.952   2.285   0.471  0.00  0.00    +0.008 A 
ATOM     15  C   LIG    1       -0.892   3.661   0.559  0.00  0.00    +0.001 A 
ENDBRANCH   1  13
BRANCH   6  16
ATOM     16  C   LIG    1       -2.279  -4.013   3.161  0.00  0.00    -0.015 A 
ATOM     17  C   LIG    1       -2.079  -5.323   2.732  0.00  0.00    +0.012 A 
ATOM     18  C   LIG    1       -2.659  -6.369   3.419  0.00  0.00    +0.046 A 
ATOM     19  C   LIG    1       -3.450  -6.116   4.531  0.00  0.00    +0.121 A 
ATOM     20  C   LIG    1       -3.656  -4.811   4.958  0.00  0.00    +0.046 A 
ATOM     21  C   LIG    1       -3.074  -3.762   4.278  0.00  0.00    +0.012 A 
BRANCH  19  22
ATOM     22  O   LIG    1       -4.025  -7.147   5.204  0.00  0.00    -0.491 OA
BRANCH  22  23
ATOM     23  C   LIG    1       -3.772  -8.465   4.710  0.00  0.00    +0.244 C 
BRANCH  23  24
ATOM     24  C   LIG    1       -4.496  -9.486   5.589  0.00  0.00    +0.125 C 
BRANCH  24  25
ATOM     25  N   LIG    1       -5.947  -9.299   5.463  0.00  0.00    -0.295 NA
ATOM     26  C   LIG    1       -6.658  -9.913   6.595  0.00  0.00    +0.112 C 
ATOM     27  C   LIG    1       -8.158  -9.643   6.455  0.00  0.00    +0.175 C 
ATOM     28  O   LIG    1       -8.613 -10.143   5.194  0.00  0.00    -0.377 OA
ATOM     29  C   LIG    1       -7.942  -9.565   4.071  0.00  0.00    +0.175 C 
ATOM     30  C   LIG    1       -6.439  -9.835   4.186  0.00  0.00    +0.112 C 
ENDBRANCH  24  25
ENDBRANCH  23  24
ENDBRANCH  22  23
ENDBRANCH  19  22
ENDBRANCH   6  16
TORSDOF 6
