REMARK  Name = ZINC26752503
REMARK                            x       y       z     vdW  Elec       q    Type
REMARK                         _______ _______ _______ _____ _____    ______ ____
ROOT
ATOM      1  C   LIG    1       -0.013   1.086   0.008  0.00  0.00    +0.193 C 
ATOM      2  C   LIG    1       -0.729   1.579   1.267  0.00  0.00    +0.193 C 
ATOM      3  C   LIG    1       -0.750   3.109   1.275  0.00  0.00    +0.178 C 
ATOM      4  C   LIG    1        0.686   3.639   1.264  0.00  0.00    +0.193 C 
ATOM      5  C   LIG    1        1.402   3.145   0.006  0.00  0.00    +0.193 C 
ATOM      6  C   LIG    1        1.423   1.615  -0.003  0.00  0.00    +0.178 C 
ENDROOT
BRANCH   6   7
ATOM      7  O   LIG    1        2.091   1.155  -1.179  0.00  0.00    -0.386 OA
ATOM      8  H   LIG    1        3.009   1.453  -1.252  0.00  0.00    +0.210 HD
ENDBRANCH   6   7
BRANCH   3   9
ATOM      9  O   LIG    1       -1.419   3.570   2.451  0.00  0.00    -0.386 OA
ATOM     10  H   LIG    1       -1.469   4.533   2.523  0.00  0.00    +0.210 HD
ENDBRANCH   3   9
BRANCH   4  11
ATOM     11  O   LIG    1        1.377   3.165   2.422  0.00  0.00    -0.278 OA
BRANCH  11  12
ATOM     12  P   LIG    1        2.013   4.149   3.527  0.00  0.00    +0.473 P 
ATOM     13  O   LIG    1        2.989   5.156   2.830  0.00  0.00    -0.228 OA
BRANCH  12  14
ATOM     14  O   LIG    1        0.866   4.942   4.241  0.00  0.00    -0.303 OA
ATOM     15  H   LIG    1        0.378   5.465   3.586  0.00  0.00    +0.222 HD
ENDBRANCH  12  14
BRANCH  12  16
ATOM     16  O   LIG    1        2.801   3.305   4.586  0.00  0.00    -0.303 OA
ATOM     17  H   LIG    1        3.511   2.813   4.144  0.00  0.00    +0.222 HD
ENDBRANCH  12  16
ENDBRANCH  11  12
ENDBRANCH   4  11
BRANCH   2  18
ATOM     18  O   LIG    1       -2.070   1.085   1.277  0.00  0.00    -0.278 OA
BRANCH  18  19
ATOM     19  P   LIG    1       -2.647   0.141   2.447  0.00  0.00    +0.473 P 
ATOM     20  O   LIG    1       -1.728  -1.117   2.605  0.00  0.00    -0.228 OA
BRANCH  19  21
ATOM     21  O   LIG    1       -2.677   0.940   3.795  0.00  0.00    -0.303 OA
ATOM     22  H   LIG    1       -1.777   1.223   4.022  0.00  0.00    +0.222 HD
ENDBRANCH  19  21
BRANCH  19  23
ATOM     23  O   LIG    1       -4.100  -0.316   2.079  0.00  0.00    -0.303 OA
ATOM     24  H   LIG    1       -4.082  -0.810   1.245  0.00  0.00    +0.222 HD
ENDBRANCH  19  23
ENDBRANCH  18  19
ENDBRANCH   2  18
BRANCH   5  25
ATOM     25  O   LIG    1        2.743   3.640  -0.005  0.00  0.00    -0.278 OA
BRANCH  25  26
ATOM     26  P   LIG    1        3.320   4.583  -1.175  0.00  0.00    +0.473 P 
ATOM     27  O   LIG    1        3.114   3.882  -2.560  0.00  0.00    -0.228 OA
BRANCH  26  28
ATOM     28  O   LIG    1        2.560   5.953  -1.164  0.00  0.00    -0.303 OA
ATOM     29  H   LIG    1        1.614   5.799  -1.311  0.00  0.00    +0.222 HD
ENDBRANCH  26  28
BRANCH  26  30
ATOM     30  O   LIG    1        4.849   4.832  -0.937  0.00  0.00    -0.303 OA
ATOM     31  H   LIG    1        5.319   3.984  -0.944  0.00  0.00    +0.222 HD
ENDBRANCH  26  30
ENDBRANCH  25  26
ENDBRANCH   5  25
BRANCH   1  32
ATOM     32  O   LIG    1       -0.704   1.559  -1.150  0.00  0.00    -0.278 OA
BRANCH  32  33
ATOM     33  P   LIG    1       -1.339   0.576  -2.255  0.00  0.00    +0.473 P 
ATOM     34  O   LIG    1       -0.232  -0.396  -2.787  0.00  0.00    -0.228 OA
BRANCH  33  35
ATOM     35  O   LIG    1       -2.498  -0.257  -1.608  0.00  0.00    -0.303 OA
ATOM     36  H   LIG    1       -2.148  -0.782  -0.872  0.00  0.00    +0.222 HD
ENDBRANCH  33  35
BRANCH  33  37
ATOM     37  O   LIG    1       -1.906   1.424  -3.444  0.00  0.00    -0.303 OA
ATOM     38  H   LIG    1       -1.189   1.939  -3.844  0.00  0.00    +0.222 HD
ENDBRANCH  33  37
ENDBRANCH  32  33
ENDBRANCH   1  32
TORSDOF 18
