REMARK  Name = ZINC19624649
REMARK                            x       y       z     vdW  Elec       q    Type
REMARK                         _______ _______ _______ _____ _____    ______ ____
ROOT
ATOM      1  C   LIG    1        1.203  -0.685  -0.009  0.00  0.00    +0.000 A 
ATOM      2  C   LIG    1        2.393   0.019  -0.013  0.00  0.00    +0.000 A 
ATOM      3  C   LIG    1        2.375   1.399  -0.007  0.00  0.00    +0.006 A 
ATOM      4  C   LIG    1        1.169   2.085   0.002  0.00  0.00    -0.023 A 
ATOM      5  C   LIG    1       -0.017   1.383   0.010  0.00  0.00    -0.041 A 
ATOM      6  C   LIG    1       -1.351   2.083   0.032  0.00  0.00    +0.050 C 
ATOM      7  C   LIG    1       -1.179   3.546  -0.380  0.00  0.00    +0.086 C 
ATOM      8  N   LIG    1       -0.094   4.133   0.422  0.00  0.00    -0.305 NA
ATOM      9  H   LIG    1       -0.088   5.224   0.287  0.00  0.00    +0.123 HD
ATOM     10  C   LIG    1        1.201   3.591  -0.002  0.00  0.00    +0.115 C 
ATOM     11  C   LIG    1        0.002  -0.004   0.002  0.00  0.00    +0.004 A 
ENDROOT
BRANCH  10  12
ATOM     12  C   LIG    1        2.273   4.068   0.944  0.00  0.00    -0.026 A 
ATOM     13  C   LIG    1        2.025   4.114   2.303  0.00  0.00    +0.008 A 
ATOM     14  C   LIG    1        3.010   4.546   3.171  0.00  0.00    +0.038 A 
ATOM     15  C   LIG    1        4.241   4.944   2.678  0.00  0.00    +0.123 A 
ATOM     16  F   LIG    1        5.202   5.373   3.526  0.00  0.00    -0.205 F 
ATOM     17  C   LIG    1        4.486   4.903   1.316  0.00  0.00    +0.038 A 
ATOM     18  C   LIG    1        3.502   4.465   0.450  0.00  0.00    +0.008 A 
ENDBRANCH  10  12
TORSDOF 1
