REMARK  Name = ZINC14879987
REMARK                            x       y       z     vdW  Elec       q    Type
REMARK                         _______ _______ _______ _____ _____    ______ ____
ROOT
ATOM      1  C   LIG    1        1.996  -3.767   0.751  0.00  0.00    +0.040 C 
ENDROOT
BRANCH   1   5
ATOM      2  C   LIG    1       -1.166  -1.813   0.043  0.00  0.00    +0.120 C 
ATOM      3  C   LIG    1       -0.283  -2.392  -1.068  0.00  0.00    +0.123 C 
ATOM      4  C   LIG    1        1.153  -1.996  -0.793  0.00  0.00    +0.151 C 
ATOM      5  C   LIG    1        1.696  -2.275   0.597  0.00  0.00    +0.171 C 
ATOM      6  C   LIG    1        0.624  -1.858   1.585  0.00  0.00    +0.319 C 
ATOM      7  O   LIG    1        0.902  -1.230   2.579  0.00  0.00    -0.250 OA
ATOM      8  O   LIG    1        1.838  -1.480  -1.643  0.00  0.00    -0.296 OA
ATOM      9  O   LIG    1       -0.650  -2.211   1.317  0.00  0.00    -0.457 OA
BRANCH   2  10
ATOM     10  C   LIG    1       -1.169  -0.286  -0.051  0.00  0.00    +0.048 C 
BRANCH  10  12
ATOM     11  C   LIG    1       -1.953   1.819   1.044  0.00  0.00    +0.004 C 
ATOM     12  C   LIG    1       -2.054   0.292   1.055  0.00  0.00    +0.000 C 
ENDBRANCH  10  12
ENDBRANCH   2  10
BRANCH   2  13
ATOM     13  C   LIG    1       -2.595  -2.337  -0.115  0.00  0.00    +0.053 C 
BRANCH  13  14
ATOM     14  C   LIG    1       -2.592  -3.864  -0.020  0.00  0.00    +0.039 C 
BRANCH  14  15
ATOM     15  C   LIG    1       -3.999  -4.380  -0.176  0.00  0.00    -0.047 A 
ATOM     16  C   LIG    1       -4.804  -4.538   0.937  0.00  0.00    +0.003 A 
ATOM     17  C   LIG    1       -6.095  -5.011   0.794  0.00  0.00    +0.000 A 
ATOM     18  C   LIG    1       -6.581  -5.326  -0.461  0.00  0.00    +0.000 A 
ATOM     19  C   LIG    1       -5.776  -5.167  -1.574  0.00  0.00    +0.000 A 
ATOM     20  C   LIG    1       -4.487  -4.689  -1.431  0.00  0.00    +0.003 A 
ENDBRANCH  14  15
ENDBRANCH  13  14
ENDBRANCH   2  13
ENDBRANCH   1   5
BRANCH   1  21
ATOM     21  C   LIG    1        3.090  -4.162  -0.207  0.00  0.00    -0.041 A 
ATOM     22  C   LIG    1        4.334  -3.565  -0.118  0.00  0.00    +0.004 A 
ATOM     23  C   LIG    1        5.341  -3.923  -0.996  0.00  0.00    +0.002 A 
ATOM     24  C   LIG    1        5.106  -4.880  -1.964  0.00  0.00    +0.024 A 
ATOM     25  C   LIG    1        3.858  -5.481  -2.057  0.00  0.00    +0.048 A 
ATOM     26  C   LIG    1        2.850  -5.122  -1.170  0.00  0.00    +0.028 A 
BRANCH  25  27
ATOM     27  N   LIG    1        3.618  -6.449  -3.035  0.00  0.00    -0.219 N 
ATOM     28  H   LIG    1        2.732  -6.875  -3.099  0.00  0.00    +0.173 HD
BRANCH  27  29
ATOM     29  S   LIG    1        4.822  -6.880  -4.087  0.00  0.00    +0.059 S 
ATOM     30  O   LIG    1        5.829  -7.517  -3.312  0.00  0.00    -0.154 OA
ATOM     31  O   LIG    1        5.087  -5.738  -4.890  0.00  0.00    -0.154 OA
BRANCH  29  32
ATOM     32  C   LIG    1        4.160  -8.109  -5.162  0.00  0.00    +0.218 C 
ATOM     33  C   LIG    1        4.255  -9.443  -4.815  0.00  0.00    +0.044 C 
ATOM     34  C   LIG    1        3.731 -10.402  -5.668  0.00  0.00    +0.017 C 
ATOM     35  C   LIG    1        3.127  -9.981  -6.843  0.00  0.00    +0.107 C 
ATOM     36  C   LIG    1        3.069  -8.629  -7.123  0.00  0.00    +0.095 C 
ATOM     37  N   LIG    1        3.574  -7.744  -6.285  0.00  0.00    -0.294 NA
ATOM     38  H   LIG    1        3.516  -6.801  -6.503  0.00  0.00    +0.124 HD
BRANCH  35  39
ATOM     39  C   LIG    1        2.543 -10.985  -7.803  0.00  0.00    +0.394 C 
ATOM     40  F   LIG    1        3.258 -12.184  -7.716  0.00  0.00    -0.170 F 
ATOM     41  F   LIG    1        2.625 -10.486  -9.107  0.00  0.00    -0.170 F 
ATOM     42  F   LIG    1        1.202 -11.217  -7.476  0.00  0.00    -0.170 F 
ENDBRANCH  35  39
ENDBRANCH  29  32
ENDBRANCH  27  29
ENDBRANCH  25  27
ENDBRANCH   1  21
BRANCH   1  43
ATOM     43  C   LIG    1        2.446  -4.052   2.185  0.00  0.00    +0.006 C 
ATOM     44  C   LIG    1        2.625  -5.560   2.373  0.00  0.00    +0.004 C 
ENDBRANCH   1  43
TORSDOF 12
