REMARK  Name = ZINC27626558
REMARK                            x       y       z     vdW  Elec       q    Type
REMARK                         _______ _______ _______ _____ _____    ______ ____
ROOT
ATOM      1  C   LIG    1        6.715  -3.793  -3.915  0.00  0.00    +0.077 C 
ATOM      2  C   LIG    1        6.989  -2.540  -3.072  0.00  0.00    +0.122 C 
ATOM      3  N   LIG    1        5.721  -1.831  -2.854  0.00  0.00    -0.266 N 
ATOM      4  C   LIG    1        5.284  -1.587  -1.603  0.00  0.00    +0.403 C 
ATOM      5  O   LIG    1        5.939  -1.953  -0.648  0.00  0.00    -0.226 OA
ATOM      6  C   LIG    1        4.933  -1.398  -4.015  0.00  0.00    +0.118 C 
ATOM      7  C   LIG    1        4.610  -2.615  -4.882  0.00  0.00    +0.093 C 
ATOM      8  C   LIG    1        5.888  -3.390  -5.116  0.00  0.00    +0.140 C 
ATOM      9  O   LIG    1        6.239  -3.680  -6.234  0.00  0.00    -0.297 OA
ENDROOT
BRANCH   1  10
ATOM     10  C   LIG    1        8.040  -4.399  -4.381  0.00  0.00    +0.047 C 
BRANCH  10  14
ATOM     11  C   LIG    1        7.284  -8.072  -6.428  0.00  0.00    +0.000 A 
ATOM     12  C   LIG    1        7.315  -6.882  -7.131  0.00  0.00    +0.000 A 
ATOM     13  C   LIG    1        7.559  -5.693  -6.469  0.00  0.00    +0.003 A 
ATOM     14  C   LIG    1        7.773  -5.695  -5.103  0.00  0.00    -0.047 A 
ATOM     15  C   LIG    1        7.747  -6.885  -4.401  0.00  0.00    +0.003 A 
ATOM     16  C   LIG    1        7.497  -8.073  -5.062  0.00  0.00    +0.000 A 
ENDBRANCH  10  14
ENDBRANCH   1  10
BRANCH   4  17
ATOM     17  O   LIG    1        4.120  -0.936  -1.412  0.00  0.00    -0.445 OA
BRANCH  17  18
ATOM     18  C   LIG    1        3.711  -0.707  -0.038  0.00  0.00    +0.269 C 
BRANCH  18  19
ATOM     19  C   LIG    1        2.396   0.029  -0.021  0.00  0.00    -0.010 A 
ATOM     20  C   LIG    1        1.208  -0.679  -0.014  0.00  0.00    +0.007 A 
ATOM     21  C   LIG    1        0.002  -0.004   0.002  0.00  0.00    +0.000 A 
ATOM     22  C   LIG    1       -0.017   1.378   0.010  0.00  0.00    +0.000 A 
ATOM     23  C   LIG    1        1.171   2.086   0.002  0.00  0.00    +0.000 A 
ATOM     24  C   LIG    1        2.377   1.411  -0.014  0.00  0.00    +0.007 A 
ENDBRANCH  18  19
ENDBRANCH  17  18
ENDBRANCH   4  17
TORSDOF 5
