REMARK  Name = ZINC19702119
REMARK                            x       y       z     vdW  Elec       q    Type
REMARK                         _______ _______ _______ _____ _____    ______ ____
ROOT
ATOM      1  C   LIG    1       -0.018   1.465   0.010  0.00  0.00    -0.096 C 
ATOM      2  N   LIG    1        0.002  -0.004   0.002  0.00  0.00    +0.380 N 
ATOM      3  H   LIG    1        0.459  -0.336  -0.834  0.00  0.00    -0.082 HD
ATOM      4  C   LIG    1       -1.378  -0.525   0.061  0.00  0.00    -0.060 C 
ATOM      5  C   LIG    1       -1.315  -2.002  -0.326  0.00  0.00    +0.088 C 
ATOM      6  N   LIG    1       -0.254  -2.682   0.430  0.00  0.00    -0.311 N 
ATOM      7  C   LIG    1       -0.164  -4.062   0.246  0.00  0.00    +0.125 A 
ATOM      8  C   LIG    1       -0.380  -4.931   1.296  0.00  0.00    -0.003 A 
ATOM      9  C   LIG    1       -0.908  -4.399   2.590  0.00  0.00    +0.074 C 
ATOM     10  C   LIG    1        0.022  -3.457   3.288  0.00  0.00    -0.038 A 
ATOM     11  C   LIG    1        0.199  -3.722   4.652  0.00  0.00    +0.004 A 
ATOM     12  C   LIG    1        0.995  -2.928   5.442  0.00  0.00    +0.000 A 
ATOM     13  C   LIG    1        1.635  -1.839   4.880  0.00  0.00    +0.000 A 
ATOM     14  C   LIG    1        1.475  -1.583   3.539  0.00  0.00    +0.005 A 
ATOM     15  C   LIG    1        0.680  -2.402   2.727  0.00  0.00    -0.025 A 
ATOM     16  C   LIG    1       -0.185  -6.288   1.117  0.00  0.00    +0.009 A 
ATOM     17  C   LIG    1        0.171  -6.737  -0.149  0.00  0.00    +0.020 A 
ATOM     18  C   LIG    1        0.314  -5.821  -1.172  0.00  0.00    +0.113 A 
ATOM     19  N   LIG    1        0.149  -4.530  -0.958  0.00  0.00    -0.240 NA
ATOM     20  C   LIG    1        0.694  -2.017   1.273  0.00  0.00    +0.089 C 
ATOM     21  C   LIG    1        0.708  -0.498   1.184  0.00  0.00    -0.052 C 
ENDROOT
TORSDOF 0
