REMARK  Name = ZINC53239527
REMARK                            x       y       z     vdW  Elec       q    Type
REMARK                         _______ _______ _______ _____ _____    ______ ____
ROOT
ATOM      1  C   LIG    1       -0.174  -2.376   2.876  0.00  0.00    +0.118 A 
ATOM      2  N   LIG    1       -0.057  -1.651   3.959  0.00  0.00    -0.231 NA
ATOM      3  C   LIG    1       -0.815  -2.170   4.938  0.00  0.00    +0.100 A 
ATOM      4  C   LIG    1       -1.442  -3.295   4.415  0.00  0.00    +0.113 A 
ATOM      5  C   LIG    1       -2.342  -4.253   4.925  0.00  0.00    +0.142 A 
ATOM      6  N   LIG    1       -2.773  -5.221   4.137  0.00  0.00    -0.237 NA
ATOM      7  C   LIG    1       -2.360  -5.320   2.868  0.00  0.00    +0.131 A 
ATOM      8  C   LIG    1       -1.498  -4.434   2.336  0.00  0.00    +0.113 A 
ATOM      9  N   LIG    1       -1.021  -3.397   3.104  0.00  0.00    -0.298 N 
ENDROOT
BRANCH   3  10
ATOM     10  C   LIG    1       -0.956  -1.644   6.313  0.00  0.00    +0.005 A 
ATOM     11  C   LIG    1       -0.894  -2.525   7.406  0.00  0.00    +0.011 A 
ATOM     12  C   LIG    1       -1.022  -2.065   8.677  0.00  0.00    +0.010 A 
ATOM     13  C   LIG    1       -1.218  -0.693   8.912  0.00  0.00    +0.000 A 
ATOM     14  C   LIG    1       -1.352  -0.192  10.221  0.00  0.00    +0.012 A 
ATOM     15  C   LIG    1       -1.540   1.149  10.386  0.00  0.00    +0.029 A 
ATOM     16  C   LIG    1       -1.595   1.990   9.264  0.00  0.00    +0.072 A 
ATOM     17  N   LIG    1       -1.469   1.514   8.040  0.00  0.00    -0.247 NA
ATOM     18  C   LIG    1       -1.282   0.209   7.819  0.00  0.00    +0.072 A 
ATOM     19  C   LIG    1       -1.142  -0.286   6.513  0.00  0.00    +0.038 A 
BRANCH  16  20
ATOM     20  C   LIG    1       -1.800   3.445   9.459  0.00  0.00    +0.000 A 
ATOM     21  C   LIG    1       -1.930   3.968  10.744  0.00  0.00    +0.010 A 
ATOM     22  C   LIG    1       -2.120   5.323  10.919  0.00  0.00    +0.001 A 
ATOM     23  C   LIG    1       -2.181   6.163   9.822  0.00  0.00    +0.000 A 
ATOM     24  C   LIG    1       -2.053   5.651   8.544  0.00  0.00    +0.001 A 
ATOM     25  C   LIG    1       -1.857   4.297   8.357  0.00  0.00    +0.010 A 
ENDBRANCH  16  20
ENDBRANCH   3  10
BRANCH   1  29
ATOM     26  C   LIG    1        2.259   0.771   0.770  0.00  0.00    +0.041 C 
ATOM     27  C   LIG    1        1.673  -0.628   0.574  0.00  0.00    +0.065 C 
ATOM     28  C   LIG    1        0.189  -0.734   0.962  0.00  0.00    +0.045 C 
ATOM     29  C   LIG    1        0.527  -2.105   1.570  0.00  0.00    +0.061 C 
ATOM     30  C   LIG    1        1.965  -1.588   1.739  0.00  0.00    +0.045 C 
BRANCH  27  31
ATOM     31  O   LIG    1        1.971  -1.179  -0.711  0.00  0.00    -0.389 OA
ATOM     32  H   LIG    1        2.918  -1.080  -0.893  0.00  0.00    +0.210 HD
ENDBRANCH  27  31
ENDBRANCH   1  29
BRANCH   5  33
ATOM     33  N   LIG    1       -2.784  -4.170   6.235  0.00  0.00    -0.341 N 
ATOM     34  H   LIG    1       -3.150  -4.954   6.674  0.00  0.00    +0.144 HD
ATOM     35  H   LIG    1       -2.727  -3.328   6.713  0.00  0.00    +0.144 HD
ENDBRANCH   5  33
TORSDOF 5
