REMARK  Name = ZINC22010649
REMARK                            x       y       z     vdW  Elec       q    Type
REMARK                         _______ _______ _______ _____ _____    ______ ____
ROOT
ATOM      1  N   LIG    1       -8.988  -1.652  -1.351  0.00  0.00    +0.382 N 
ATOM      2  H   LIG    1       -9.123  -0.683  -1.853  0.00  0.00    -0.085 HD
ATOM      3  H   LIG    1       -8.204  -2.226  -1.867  0.00  0.00    -0.085 HD
ENDROOT
BRANCH   1   4
ATOM      4  C   LIG    1      -10.250  -2.403  -1.389  0.00  0.00    -0.077 C 
BRANCH   4   5
ATOM      5  C   LIG    1      -10.662  -2.636  -2.844  0.00  0.00    +0.018 C 
BRANCH   5   8
ATOM      6  C   LIG    1      -10.948  -5.726  -2.923  0.00  0.00    +0.063 C 
ATOM      7  C   LIG    1      -12.090  -4.742  -2.917  0.00  0.00    +0.017 A 
ATOM      8  C   LIG    1      -11.956  -3.406  -2.883  0.00  0.00    -0.021 A 
ATOM      9  C   LIG    1      -13.307  -2.841  -2.897  0.00  0.00    +0.003 A 
ATOM     10  C   LIG    1      -13.815  -1.540  -2.881  0.00  0.00    +0.010 A 
ATOM     11  C   LIG    1      -15.166  -1.338  -2.902  0.00  0.00    +0.001 A 
ATOM     12  C   LIG    1      -16.039  -2.417  -2.940  0.00  0.00    +0.002 A 
ATOM     13  C   LIG    1      -15.560  -3.708  -2.956  0.00  0.00    +0.026 A 
ATOM     14  C   LIG    1      -14.188  -3.937  -2.934  0.00  0.00    +0.047 A 
ATOM     15  N   LIG    1      -13.416  -5.077  -2.943  0.00  0.00    -0.358 N 
ATOM     16  H   LIG    1      -13.715  -6.136  -2.966  0.00  0.00    +0.166 HD
ENDBRANCH   5   8
ENDBRANCH   4   5
ENDBRANCH   1   4
BRANCH   1  17
ATOM     17  C   LIG    1       -8.561  -1.409   0.034  0.00  0.00    -0.047 C 
BRANCH  17  18
ATOM     18  C   LIG    1       -7.266  -0.638   0.032  0.00  0.00    -0.064 A 
ATOM     19  C   LIG    1       -7.289   0.746   0.040  0.00  0.00    +0.002 A 
ATOM     20  C   LIG    1       -6.109   1.458   0.039  0.00  0.00    +0.008 A 
ATOM     21  C   LIG    1       -4.887   0.779   0.029  0.00  0.00    -0.025 A 
ATOM     22  C   LIG    1       -4.872  -0.619   0.016  0.00  0.00    +0.008 A 
ATOM     23  C   LIG    1       -6.061  -1.317   0.023  0.00  0.00    +0.002 A 
BRANCH  21  24
ATOM     24  C   LIG    1       -3.622   1.533   0.028  0.00  0.00    +0.013 C 
ATOM     25  C   LIG    1       -2.445   0.875   0.018  0.00  0.00    +0.070 C 
BRANCH  25  26
ATOM     26  C   LIG    1       -1.187   1.624   0.017  0.00  0.00    +0.259 C 
ATOM     27  N   LIG    1       -0.011   0.966   0.007  0.00  0.00    -0.194 N 
ATOM     28  H   LIG    1        0.004  -0.134   0.006  0.00  0.00    +0.183 HD
ATOM     29  O   LIG    1       -1.204   2.841   0.023  0.00  0.00    -0.269 OA
BRANCH  27  30
ATOM     30  O   LIG    1        1.205   1.690  -0.000  0.00  0.00    -0.295 OA
ATOM     31  H   LIG    1        2.165   1.153  -0.008  0.00  0.00    +0.241 HD
ENDBRANCH  27  30
ENDBRANCH  25  26
ENDBRANCH  21  24
ENDBRANCH  17  18
ENDBRANCH   1  17
TORSDOF 8
