REMARK  Name = ZINC26479654
REMARK                            x       y       z     vdW  Elec       q    Type
REMARK                         _______ _______ _______ _____ _____    ______ ____
ROOT
ATOM      1  C   LIG    1        3.750  -0.005   2.962  0.00  0.00    +0.023 A 
ATOM      2  C   LIG    1        2.546  -0.544   2.554  0.00  0.00    +0.047 A 
ATOM      3  C   LIG    1        1.778   0.107   1.594  0.00  0.00    +0.125 A 
ATOM      4  C   LIG    1        2.227   1.296   1.047  0.00  0.00    +0.009 A 
ATOM      5  C   LIG    1        1.428   2.030  -0.001  0.00  0.00    +0.134 C 
ATOM      6  C   LIG    1       -0.019   1.530   0.011  0.00  0.00    +0.060 C 
ATOM      7  C   LIG    1        0.002  -0.004   0.002  0.00  0.00    +0.230 C 
ATOM      8  C   LIG    1        3.433   1.834   1.462  0.00  0.00    +0.028 A 
ATOM      9  O   LIG    1        0.598  -0.453   1.220  0.00  0.00    -0.492 OA
ATOM     10  C   LIG    1        4.194   1.186   2.417  0.00  0.00    +0.041 A 
ATOM     11 CL   LIG    1        5.706   1.866   2.932  0.00  0.00    -0.084 Cl
ENDROOT
BRANCH   5  12
ATOM     12  C   LIG    1        1.450   3.507   0.295  0.00  0.00    +0.312 C 
ATOM     13  O   LIG    1        0.416   4.099   0.494  0.00  0.00    -0.250 OA
BRANCH  12  14
ATOM     14  O   LIG    1        2.619   4.166   0.337  0.00  0.00    -0.480 OA
ATOM     15  H   LIG    1        3.421   3.707   0.183  0.00  0.00    +0.295 HD
ENDBRANCH  12  14
ENDBRANCH   5  12
TORSDOF 2
