REMARK  Name = ZINC13833082
REMARK                            x       y       z     vdW  Elec       q    Type
REMARK                         _______ _______ _______ _____ _____    ______ ____
ROOT
ATOM      1  C   LIG    1       -1.220   1.743   0.017  0.00  0.00    +0.000 A 
ATOM      2  C   LIG    1       -1.239   3.126   0.027  0.00  0.00    +0.000 A 
ATOM      3  C   LIG    1       -0.052   3.828   0.020  0.00  0.00    +0.004 A 
ATOM      4  C   LIG    1        1.165   3.157   0.009  0.00  0.00    -0.042 A 
ATOM      5  C   LIG    1        1.184   1.781   0.000  0.00  0.00    -0.044 A 
ATOM      6  C   LIG    1        2.465   0.989  -0.022  0.00  0.00    +0.037 C 
ATOM      7  C   LIG    1        3.644   1.862   0.401  0.00  0.00    +0.027 C 
ATOM      8  C   LIG    1        3.619   3.147  -0.434  0.00  0.00    +0.078 C 
ATOM      9  C   LIG    1        2.422   3.986   0.010  0.00  0.00    +0.057 C 
ATOM     10  C   LIG    1       -0.013   1.076   0.008  0.00  0.00    +0.004 A 
ENDROOT
BRANCH   8  11
ATOM     11  N   LIG    1        4.857   3.900  -0.218  0.00  0.00    -0.311 N 
ATOM     12  H   LIG    1        5.358   3.784   0.604  0.00  0.00    +0.149 HD
ATOM     13  C   LIG    1        5.299   4.755  -1.162  0.00  0.00    +0.228 C 
ATOM     14  O   LIG    1        4.672   4.899  -2.190  0.00  0.00    -0.275 OA
BRANCH  13  15
ATOM     15  C   LIG    1        6.573   5.529  -0.940  0.00  0.00    +0.204 C 
ATOM     16 CL   LIG    1        6.895   6.577  -2.371  0.00  0.00    -0.116 Cl
ENDBRANCH  13  15
ENDBRANCH   8  11
TORSDOF 2
