REMARK  Name = ZINC42878005
REMARK                            x       y       z     vdW  Elec       q    Type
REMARK                         _______ _______ _______ _____ _____    ______ ____
ROOT
ATOM      1  C   LIG    1       -1.270  -0.791   0.274  0.00  0.00    +0.136 A 
ATOM      2  C   LIG    1       -1.376  -2.115  -0.041  0.00  0.00    +0.050 A 
ATOM      3  C   LIG    1       -2.739  -2.399  -0.175  0.00  0.00    +0.055 A 
ATOM      4  C   LIG    1       -3.415  -1.223   0.067  0.00  0.00    +0.190 A 
ATOM      5  O   LIG    1       -2.505  -0.265   0.342  0.00  0.00    -0.450 OA
ENDROOT
BRANCH   4   6
ATOM      6  C   LIG    1       -4.869  -1.045   0.036  0.00  0.00    +0.282 C 
ATOM      7  N   LIG    1       -5.399   0.189   0.143  0.00  0.00    -0.299 N 
ATOM      8  C   LIG    1       -4.541   1.384   0.135  0.00  0.00    +0.089 C 
ATOM      9  C   LIG    1       -5.097   2.374  -0.894  0.00  0.00    -0.063 C 
ATOM     10  N   LIG    1       -6.510   2.644  -0.598  0.00  0.00    +0.381 N 
ATOM     11  H   LIG    1       -6.854   3.353  -1.229  0.00  0.00    -0.086 HD
ATOM     12  H   LIG    1       -6.596   2.973   0.352  0.00  0.00    -0.086 HD
ATOM     13  C   LIG    1       -7.299   1.417  -0.764  0.00  0.00    -0.063 C 
ATOM     14  C   LIG    1       -6.853   0.380   0.265  0.00  0.00    +0.089 C 
ATOM     15  O   LIG    1       -5.598  -2.012  -0.086  0.00  0.00    -0.267 OA
ENDBRANCH   4   6
BRANCH   1  22
ATOM     16  C   LIG    1       -0.036   1.299   0.829  0.00  0.00    +0.013 A 
ATOM     17  C   LIG    1        1.145   1.977   1.046  0.00  0.00    +0.021 A 
ATOM     18  C   LIG    1        2.357   1.313   0.945  0.00  0.00    +0.041 A 
ATOM     19 CL   LIG    1        3.840   2.173   1.220  0.00  0.00    -0.084 Cl
ATOM     20  C   LIG    1        2.390  -0.034   0.625  0.00  0.00    +0.021 A 
ATOM     21  C   LIG    1        1.216  -0.723   0.406  0.00  0.00    +0.013 A 
ATOM     22  C   LIG    1       -0.009  -0.059   0.507  0.00  0.00    +0.017 A 
ENDBRANCH   1  22
TORSDOF 2
