REMARK  Name = ZINC43206250
REMARK                            x       y       z     vdW  Elec       q    Type
REMARK                         _______ _______ _______ _____ _____    ______ ____
ROOT
ATOM      1  N   LIG    1        4.636  -3.373  -5.207  0.00  0.00    -0.275 N 
ATOM      2  C   LIG    1        4.752  -4.825  -5.407  0.00  0.00    +0.127 C 
ATOM      3  C   LIG    1        5.513  -4.954  -6.741  0.00  0.00    +0.157 C 
ATOM      4  N   LIG    1        5.745  -3.561  -7.150  0.00  0.00    -0.200 N 
ATOM      5  C   LIG    1        5.216  -2.739  -6.234  0.00  0.00    +0.320 C 
ATOM      6  O   LIG    1        5.261  -1.527  -6.326  0.00  0.00    -0.251 OA
ENDROOT
BRANCH   2   7
ATOM      7  C   LIG    1        5.536  -5.454  -4.285  0.00  0.00    -0.025 A 
ATOM      8  C   LIG    1        6.646  -4.808  -3.772  0.00  0.00    +0.009 A 
ATOM      9  C   LIG    1        7.367  -5.383  -2.743  0.00  0.00    +0.046 A 
ATOM     10  C   LIG    1        6.976  -6.608  -2.224  0.00  0.00    +0.120 A 
ATOM     11  C   LIG    1        5.862  -7.254  -2.740  0.00  0.00    +0.046 A 
ATOM     12  C   LIG    1        5.141  -6.673  -3.765  0.00  0.00    +0.009 A 
BRANCH  10  13
ATOM     13  O   LIG    1        7.684  -7.176  -1.212  0.00  0.00    -0.495 OA
ATOM     14  C   LIG    1        7.223  -8.438  -0.727  0.00  0.00    +0.277 C 
ENDBRANCH  10  13
ENDBRANCH   2   7
BRANCH   4  15
ATOM     15  N   LIG    1        6.410  -3.157  -8.316  0.00  0.00    -0.109 NA
ATOM     16  H   LIG    1        7.370  -3.017  -8.303  0.00  0.00    +0.171 HD
BRANCH  15  17
ATOM     17  S   LIG    1        5.557  -2.919  -9.715  0.00  0.00    +0.042 S 
ATOM     18  C   LIG    1        4.359  -1.617  -9.315  0.00  0.00    +0.216 C 
ATOM     19  O   LIG    1        4.885  -4.149  -9.944  0.00  0.00    -0.157 OA
ATOM     20  O   LIG    1        6.515  -2.433 -10.645  0.00  0.00    -0.157 OA
ENDBRANCH  15  17
ENDBRANCH   4  15
BRANCH   1  21
ATOM     21  C   LIG    1        3.986  -2.723  -4.066  0.00  0.00    +0.114 C 
BRANCH  21  22
ATOM     22  C   LIG    1        2.505  -2.503  -4.381  0.00  0.00    +0.054 C 
BRANCH  22  26
ATOM     23  C   LIG    1        0.606  -0.607  -1.056  0.00  0.00    +0.120 A 
ATOM     24  C   LIG    1        1.173   0.161  -2.062  0.00  0.00    +0.046 A 
ATOM     25  C   LIG    1        1.786  -0.455  -3.136  0.00  0.00    +0.007 A 
ATOM     26  C   LIG    1        1.835  -1.835  -3.209  0.00  0.00    -0.046 A 
ATOM     27  C   LIG    1        1.270  -2.602  -2.207  0.00  0.00    +0.007 A 
ATOM     28  C   LIG    1        0.661  -1.992  -1.128  0.00  0.00    +0.046 A 
BRANCH  23  30
ATOM     29  C   LIG    1       -0.017   1.425   0.010  0.00  0.00    +0.277 C 
ATOM     30  O   LIG    1        0.002  -0.004   0.002  0.00  0.00    -0.495 OA
ENDBRANCH  23  30
ENDBRANCH  22  26
ENDBRANCH  21  22
ENDBRANCH   1  21
TORSDOF 8
