REMARK  Name = ZINC14959093
REMARK                            x       y       z     vdW  Elec       q    Type
REMARK                         _______ _______ _______ _____ _____    ______ ____
ROOT
ATOM      1  N   LIG    1        0.002  -0.004   0.002  0.00  0.00    -0.299 N 
ATOM      2  H   LIG    1       -0.404  -0.499   0.731  0.00  0.00    +0.150 HD
ATOM      3  C   LIG    1        0.585  -0.664  -1.018  0.00  0.00    +0.261 C 
ATOM      4  O   LIG    1        1.095  -0.044  -1.932  0.00  0.00    -0.269 OA
ENDROOT
BRANCH   3   5
ATOM      5  C   LIG    1        0.605  -2.131  -1.026  0.00  0.00    +0.102 A 
ATOM      6  C   LIG    1        1.158  -2.933  -2.002  0.00  0.00    +0.032 A 
ATOM      7  C   LIG    1        0.955  -4.259  -1.607  0.00  0.00    +0.020 A 
ATOM      8  C   LIG    1        0.289  -4.245  -0.427  0.00  0.00    +0.083 A 
ATOM      9  N   LIG    1        0.070  -2.957  -0.064  0.00  0.00    -0.357 N 
ATOM     10  H   LIG    1       -0.387  -2.667   0.741  0.00  0.00    +0.165 HD
ENDBRANCH   3   5
BRANCH   1  11
ATOM     11  C   LIG    1       -0.018   1.461   0.010  0.00  0.00    +0.193 C 
BRANCH  11  13
ATOM     12  C   LIG    1       -1.256   2.314   2.187  0.00  0.00    +0.005 C 
ATOM     13  C   LIG    1       -0.707   1.935   1.221  0.00  0.00    -0.087 C 
ENDBRANCH  11  13
ENDBRANCH   1  11
TORSDOF 3
