REMARK  Name = ZINC17420244
REMARK                            x       y       z     vdW  Elec       q    Type
REMARK                         _______ _______ _______ _____ _____    ______ ____
ROOT
ATOM      1  C   LIG    1       -1.575   4.808   2.710  0.00  0.00    +0.155 C 
ATOM      2  N   LIG    1       -1.452   3.361   2.517  0.00  0.00    -0.280 N 
ATOM      3  C   LIG    1       -1.976   2.490   3.460  0.00  0.00    +0.168 A 
ATOM      4  C   LIG    1       -1.845   1.120   3.252  0.00  0.00    +0.149 A 
ATOM      5  N   LIG    1       -2.448   0.499   4.332  0.00  0.00    -0.332 N 
ATOM      6  C   LIG    1       -2.917   1.491   5.144  0.00  0.00    +0.148 A 
ATOM      7  H   LIG    1       -2.472  -0.599   4.393  0.00  0.00    +0.168 HD
ATOM      8  C   LIG    1       -1.187   0.661   2.094  0.00  0.00    +0.282 A 
ATOM      9  N   LIG    1       -0.698   1.558   1.213  0.00  0.00    -0.262 N 
ATOM     10  C   LIG    1       -0.013   1.086   0.008  0.00  0.00    +0.157 C 
ATOM     11  O   LIG    1       -1.059  -0.534   1.891  0.00  0.00    -0.265 OA
ATOM     12  N   LIG    1       -2.626   2.664   4.609  0.00  0.00    -0.209 NA
ATOM     13  C   LIG    1       -0.827   2.879   1.427  0.00  0.00    +0.333 A 
ATOM     14  O   LIG    1       -0.369   3.658   0.613  0.00  0.00    -0.246 OA
ENDROOT
BRANCH   6  15
ATOM     15  C   LIG    1       -3.630   1.288   6.412  0.00  0.00    +0.054 A 
ATOM     16  C   LIG    1       -4.130   2.231   7.293  0.00  0.00    +0.019 A 
ATOM     17  C   LIG    1       -4.766   1.762   8.418  0.00  0.00    +0.008 A 
ATOM     18  C   LIG    1       -4.863   0.422   8.614  0.00  0.00    +0.046 A 
ATOM     19  S   LIG    1       -4.071  -0.240   7.221  0.00  0.00    -0.094 S 
ENDBRANCH   6  15
TORSDOF 1
