REMARK  Name = ZINC49771282
REMARK                            x       y       z     vdW  Elec       q    Type
REMARK                         _______ _______ _______ _____ _____    ______ ____
ROOT
ATOM      1  N   LIG    1        6.846  -4.954  -1.145  0.00  0.00    +0.384 N 
ATOM      2  H   LIG    1        6.777  -4.108  -1.692  0.00  0.00    -0.081 HD
ATOM      3  C   LIG    1        5.960  -5.975  -1.717  0.00  0.00    -0.059 C 
ATOM      4  C   LIG    1        6.310  -6.185  -3.194  0.00  0.00    +0.092 C 
ATOM      5  N   LIG    1        7.744  -6.500  -3.293  0.00  0.00    -0.271 N 
ATOM      6  C   LIG    1        8.171  -7.570  -3.992  0.00  0.00    +0.408 C 
ATOM      7  O   LIG    1        7.369  -8.290  -4.552  0.00  0.00    -0.226 OA
ATOM      8  C   LIG    1        8.697  -5.614  -2.607  0.00  0.00    +0.092 C 
ATOM      9  C   LIG    1        8.234  -5.431  -1.158  0.00  0.00    -0.059 C 
ENDROOT
BRANCH   1  10
ATOM     10  C   LIG    1        6.439  -4.674   0.238  0.00  0.00    -0.043 C 
BRANCH  10  15
ATOM     11  C   LIG    1        3.636  -2.140   0.171  0.00  0.00    +0.129 A 
ATOM     12  C   LIG    1        2.521  -2.962   0.254  0.00  0.00    +0.046 A 
ATOM     13  C   LIG    1        2.679  -4.332   0.330  0.00  0.00    +0.004 A 
ATOM     14  C   LIG    1        3.946  -4.885   0.325  0.00  0.00    +0.002 A 
ATOM     15  C   LIG    1        5.059  -4.068   0.243  0.00  0.00    -0.060 A 
ATOM     16  C   LIG    1        4.906  -2.697   0.160  0.00  0.00    +0.048 A 
BRANCH  11  17
ATOM     17  O   LIG    1        3.484  -0.792   0.095  0.00  0.00    -0.456 OA
BRANCH  17  21
ATOM     18  C   LIG    1        2.677   1.266   3.578  0.00  0.00    +0.000 A 
ATOM     19  C   LIG    1        2.763  -0.114   3.596  0.00  0.00    +0.004 A 
ATOM     20  C   LIG    1        3.033  -0.805   2.431  0.00  0.00    +0.046 A 
ATOM     21  C   LIG    1        3.218  -0.114   1.242  0.00  0.00    +0.128 A 
ATOM     22  C   LIG    1        3.130   1.271   1.227  0.00  0.00    +0.046 A 
ATOM     23  C   LIG    1        2.860   1.957   2.394  0.00  0.00    +0.004 A 
ENDBRANCH  17  21
ENDBRANCH  11  17
ENDBRANCH  10  15
ENDBRANCH   1  10
BRANCH   6  24
ATOM     24  O   LIG    1        9.488  -7.840  -4.070  0.00  0.00    -0.411 OA
BRANCH  24  25
ATOM     25  C   LIG    1        9.884  -8.854  -4.885  0.00  0.00    +0.133 A 
ATOM     26  C   LIG    1       10.366 -10.035  -4.340  0.00  0.00    +0.048 A 
ATOM     27  C   LIG    1       10.768 -11.064  -5.169  0.00  0.00    +0.036 A 
ATOM     28  C   LIG    1       10.689 -10.918  -6.542  0.00  0.00    +0.122 A 
ATOM     29  C   LIG    1       10.209  -9.742  -7.088  0.00  0.00    +0.036 A 
ATOM     30  C   LIG    1        9.801  -8.712  -6.262  0.00  0.00    +0.048 A 
BRANCH  28  31
ATOM     31  N   LIG    1       11.120 -12.022  -7.428  0.00  0.00    +0.006 N 
ATOM     32  O   LIG    1       11.540 -13.051  -6.952  0.00  0.00    -0.130 OA
BRANCH  31  33
ATOM     33  O   LIG    1       11.051 -11.895  -8.629  0.00  0.00    -0.396 OA
ATOM     34  H   LIG    1       10.726 -11.098  -8.998  0.00  0.00    +0.329 HD
ENDBRANCH  31  33
ENDBRANCH  28  31
ENDBRANCH  24  25
ENDBRANCH   6  24
TORSDOF 8
