REMARK  Name = ZINC36093297
REMARK                            x       y       z     vdW  Elec       q    Type
REMARK                         _______ _______ _______ _____ _____    ______ ____
ROOT
ATOM      1  C   LIG    1       -2.551  -2.944  -4.437  0.00  0.00    +0.022 C 
ATOM      2  C   LIG    1       -1.965  -2.885  -5.669  0.00  0.00    +0.021 C 
ATOM      3  C   LIG    1       -2.709  -2.476  -6.774  0.00  0.00    +0.081 C 
ATOM      4  N   LIG    1       -3.972  -2.140  -6.669  0.00  0.00    -0.313 NA
ATOM      5  H   LIG    1       -4.456  -1.859  -7.462  0.00  0.00    +0.122 HD
ATOM      6  C   LIG    1       -4.605  -2.175  -5.493  0.00  0.00    +0.057 C 
ATOM      7  C   LIG    1       -5.960  -1.812  -5.388  0.00  0.00    +0.021 C 
ATOM      8  C   LIG    1       -6.585  -1.873  -4.183  0.00  0.00    +0.033 C 
ATOM      9  C   LIG    1       -5.897  -2.275  -3.034  0.00  0.00    +0.119 C 
ATOM     10  C   LIG    1       -4.579  -2.628  -3.097  0.00  0.00    +0.037 C 
ATOM     11  C   LIG    1       -3.909  -2.588  -4.329  0.00  0.00    +0.014 C 
ENDROOT
BRANCH   1  12
ATOM     12  C   LIG    1       -1.768  -3.384  -3.227  0.00  0.00    +0.105 C 
BRANCH  12  19
ATOM     13  C   LIG    1       -0.168  -0.462  -0.526  0.00  0.00    -0.025 C 
ATOM     14  C   LIG    1        0.730  -1.565  -1.091  0.00  0.00    -0.075 C 
ATOM     15  N   LIG    1       -0.090  -2.667  -1.601  0.00  0.00    +0.383 N 
ATOM     16  H   LIG    1        0.524  -3.381  -1.963  0.00  0.00    -0.081 HD
ATOM     17  C   LIG    1       -0.887  -3.258  -0.523  0.00  0.00    -0.078 C 
ATOM     18  C   LIG    1       -1.838  -2.211   0.060  0.00  0.00    -0.015 C 
ATOM     19  C   LIG    1       -0.956  -2.205  -2.689  0.00  0.00    -0.039 C 
ATOM     20  C   LIG    1       -1.913  -1.120  -2.173  0.00  0.00    -0.009 C 
ATOM     21  C   LIG    1       -1.635  -0.884  -0.683  0.00  0.00    -0.013 C 
BRANCH  13  23
ATOM     22  C   LIG    1        1.506   1.321  -1.038  0.00  0.00    +0.004 C 
ATOM     23  C   LIG    1        0.076   0.840  -1.292  0.00  0.00    -0.002 C 
ENDBRANCH  13  23
ENDBRANCH  12  19
BRANCH  12  24
ATOM     24  O   LIG    1       -0.883  -4.445  -3.592  0.00  0.00    -0.393 OA
ATOM     25  H   LIG    1       -0.187  -4.181  -4.209  0.00  0.00    +0.210 HD
ENDBRANCH  12  24
ENDBRANCH   1  12
BRANCH   9  26
ATOM     26  O   LIG    1       -6.546  -2.314  -1.841  0.00  0.00    -0.377 OA
BRANCH  26  27
ATOM     27  C   LIG    1       -7.924  -1.932  -1.839  0.00  0.00    +0.160 C 
BRANCH  27  28
ATOM     28  C   LIG    1       -8.481  -2.039  -0.418  0.00  0.00    +0.031 C 
BRANCH  28  29
ATOM     29  C   LIG    1       -9.955  -1.631  -0.416  0.00  0.00    -0.015 C 
ATOM     30  C   LIG    1      -10.479  -1.618   1.021  0.00  0.00    +0.007 C 
ATOM     31  C   LIG    1      -10.763  -2.632  -1.244  0.00  0.00    +0.007 C 
ENDBRANCH  28  29
ENDBRANCH  27  28
ENDBRANCH  26  27
ENDBRANCH   9  26
TORSDOF 8
