REMARK  Name = ZINC20432202
REMARK                            x       y       z     vdW  Elec       q    Type
REMARK                         _______ _______ _______ _____ _____    ______ ____
ROOT
ATOM      1  C   LIG    1        2.742   6.692   0.010  0.00  0.00    +0.040 A 
ATOM      2  C   LIG    1        2.285   5.374   0.008  0.00  0.00    +0.042 A 
ATOM      3  C   LIG    1        0.913   5.129   0.020  0.00  0.00    +0.080 A 
ATOM      4  N   LIG    1        0.035   6.131   0.028  0.00  0.00    -0.231 NA
ATOM      5  C   LIG    1        0.417   7.396   0.036  0.00  0.00    +0.135 A 
ATOM      6  C   LIG    1        1.782   7.733   0.025  0.00  0.00    +0.102 A 
ENDROOT
BRANCH   1   9
ATOM      7  C   LIG    1        6.357   7.024   0.468  0.00  0.00    +0.042 A 
ATOM      8  C   LIG    1        5.120   6.459   0.832  0.00  0.00    +0.050 A 
ATOM      9  C   LIG    1        4.185   6.994  -0.002  0.00  0.00    +0.136 A 
ATOM     10  O   LIG    1        4.809   7.841  -0.843  0.00  0.00    -0.463 OA
ATOM     11  C   LIG    1        6.120   7.867  -0.558  0.00  0.00    +0.196 A 
ENDBRANCH   1   9
BRANCH   3  12
ATOM     12  C   LIG    1        0.425   3.737   0.018  0.00  0.00    +0.038 A 
ATOM     13  C   LIG    1       -0.866   3.274   0.028  0.00  0.00    +0.017 A 
ATOM     14  C   LIG    1       -1.081   1.916   0.017  0.00  0.00    +0.008 A 
ATOM     15  C   LIG    1       -0.013   1.076   0.008  0.00  0.00    +0.046 A 
ATOM     16  S   LIG    1        1.360   2.217   0.001  0.00  0.00    -0.095 S 
ENDBRANCH   3  12
BRANCH   5  17
ATOM     17  N   LIG    1       -0.537   8.399   0.050  0.00  0.00    -0.342 N 
ATOM     18  H   LIG    1       -1.606   8.141   0.055  0.00  0.00    +0.144 HD
ATOM     19  H   LIG    1       -0.225   9.454   0.057  0.00  0.00    +0.144 HD
ENDBRANCH   5  17
BRANCH   6  20
ATOM     20  C   LIG    1        2.193   9.104   0.028  0.00  0.00    +0.103 C 
ATOM     21  N   LIG    1        2.520  10.192   0.030  0.00  0.00    -0.191 NA
ENDBRANCH   6  20
TORSDOF 4
