REMARK  Name = ZINC29465697
REMARK                            x       y       z     vdW  Elec       q    Type
REMARK                         _______ _______ _______ _____ _____    ______ ____
ROOT
ATOM      1  C   LIG    1        0.977   2.667  -0.184  0.00  0.00    +0.048 A 
ATOM      2  C   LIG    1       -0.284   2.144  -0.242  0.00  0.00    +0.115 A 
ATOM      3  N   LIG    1       -0.491   0.837  -0.259  0.00  0.00    -0.238 NA
ATOM      4  C   LIG    1        0.503  -0.035  -0.221  0.00  0.00    +0.144 A 
ATOM      5  C   LIG    1        1.830   0.416  -0.161  0.00  0.00    +0.128 A 
ATOM      6  N   LIG    1        3.040  -0.194  -0.112  0.00  0.00    -0.232 NA
ATOM      7  C   LIG    1        3.979   0.706  -0.065  0.00  0.00    +0.200 A 
ATOM      8  N   LIG    1        3.432   1.953  -0.082  0.00  0.00    -0.326 N 
ATOM      9  C   LIG    1        2.068   1.801  -0.142  0.00  0.00    +0.074 A 
ENDROOT
BRANCH   4  10
ATOM     10  N   LIG    1        0.232  -1.397  -0.241  0.00  0.00    -0.341 N 
ATOM     11  H   LIG    1       -0.808  -1.751  -0.288  0.00  0.00    +0.144 HD
ATOM     12  H   LIG    1        1.059  -2.123  -0.209  0.00  0.00    +0.144 HD
ENDBRANCH   4  10
BRANCH   8  13
ATOM     13  C   LIG    1        4.163   3.222  -0.043  0.00  0.00    +0.150 C 
BRANCH  13  14
ATOM     14  C   LIG    1        4.245   3.712   1.380  0.00  0.00    -0.002 C 
ATOM     15  C   LIG    1        5.406   4.026   1.899  0.00  0.00    -0.022 C 
BRANCH  15  16
ATOM     16  C   LIG    1        6.636   4.062   1.028  0.00  0.00    +0.188 C 
BRANCH  16  17
ATOM     17  O   LIG    1        7.282   5.329   1.170  0.00  0.00    -0.391 OA
ATOM     18  H   LIG    1        8.203   5.542   0.607  0.00  0.00    +0.210 HD
ENDBRANCH  16  17
ENDBRANCH  15  16
BRANCH  15  19
ATOM     19  C   LIG    1        5.512   4.351   3.367  0.00  0.00    +0.188 C 
BRANCH  19  20
ATOM     20  O   LIG    1        4.222   4.249   3.972  0.00  0.00    -0.391 OA
ATOM     21  H   LIG    1        4.101   4.452   5.046  0.00  0.00    +0.210 HD
ENDBRANCH  19  20
ENDBRANCH  15  19
ENDBRANCH  13  14
ENDBRANCH   8  13
TORSDOF 7
