REMARK  Name = ZINC19972212
REMARK                            x       y       z     vdW  Elec       q    Type
REMARK                         _______ _______ _______ _____ _____    ______ ____
ROOT
ATOM      1  C   LIG    1        0.002  -0.004   0.002  0.00  0.00    -0.023 A 
ATOM      2  C   LIG    1       -0.017   1.377   0.010  0.00  0.00    +0.006 A 
ATOM      3  C   LIG    1        1.170   2.086   0.002  0.00  0.00    +0.000 A 
ATOM      4  C   LIG    1        2.380   1.415  -0.013  0.00  0.00    +0.002 A 
ATOM      5  C   LIG    1        2.405   0.034  -0.021  0.00  0.00    +0.024 A 
ATOM      6  C   LIG    1        1.214  -0.680  -0.013  0.00  0.00    +0.048 A 
ENDROOT
BRANCH   6   7
ATOM      7  N   LIG    1        1.236  -2.082  -0.021  0.00  0.00    -0.203 N 
ATOM      8  C   LIG    1        1.232  -2.852  -1.124  0.00  0.00    +0.250 C 
ATOM      9  C   LIG    1        1.264  -4.270  -0.704  0.00  0.00    +0.073 C 
ATOM     10  C   LIG    1        1.277  -4.277   0.640  0.00  0.00    +0.073 C 
ATOM     11  O   LIG    1        1.208  -2.451  -2.269  0.00  0.00    -0.270 OA
ATOM     12  C   LIG    1        1.260  -2.863   1.075  0.00  0.00    +0.250 C 
ATOM     13  O   LIG    1        1.264  -2.473   2.224  0.00  0.00    -0.270 OA
ENDBRANCH   6   7
BRANCH   1  15
ATOM     14  C   LIG    1       -2.088  -0.424   1.268  0.00  0.00    +0.012 C 
ATOM     15  C   LIG    1       -1.292  -0.776   0.010  0.00  0.00    +0.015 C 
ATOM     16  C   LIG    1       -2.111  -0.411  -1.230  0.00  0.00    +0.012 C 
ENDBRANCH   1  15
TORSDOF 2
