REMARK  Name = ZINC19854109
REMARK                            x       y       z     vdW  Elec       q    Type
REMARK                         _______ _______ _______ _____ _____    ______ ____
ROOT
ATOM      1  N   LIG    1        0.690  -0.478  -1.207  0.00  0.00    -0.306 NA
ATOM      2  C   LIG    1       -0.073  -0.135  -2.415  0.00  0.00    +0.066 C 
ATOM      3  C   LIG    1        0.713  -0.574  -3.653  0.00  0.00    -0.063 C 
ATOM      4  N   LIG    1        0.963  -2.021  -3.584  0.00  0.00    +0.384 N 
ATOM      5  H   LIG    1       -0.010  -2.531  -3.528  0.00  0.00    -0.081 HD
ATOM      6  C   LIG    1        1.725  -2.363  -2.375  0.00  0.00    -0.063 C 
ATOM      7  C   LIG    1        0.939  -1.924  -1.138  0.00  0.00    +0.066 C 
ENDROOT
BRANCH   1   8
ATOM      8  C   LIG    1        0.002  -0.004   0.002  0.00  0.00    +0.084 C 
BRANCH   8   9
ATOM      9  C   LIG    1       -0.019   1.526   0.010  0.00  0.00    +0.020 C 
BRANCH   9  10
ATOM     10  C   LIG    1       -0.735   2.019   1.269  0.00  0.00    +0.036 C 
BRANCH  10  14
ATOM     11  C   LIG    1       -0.793   6.290   1.293  0.00  0.00    +0.000 A 
ATOM     12  C   LIG    1       -1.826   5.588   0.701  0.00  0.00    +0.000 A 
ATOM     13  C   LIG    1       -1.807   4.206   0.693  0.00  0.00    +0.003 A 
ATOM     14  C   LIG    1       -0.755   3.526   1.278  0.00  0.00    -0.047 A 
ATOM     15  C   LIG    1        0.275   4.228   1.875  0.00  0.00    +0.003 A 
ATOM     16  C   LIG    1        0.259   5.610   1.878  0.00  0.00    +0.000 A 
ENDBRANCH  10  14
ENDBRANCH   9  10
ENDBRANCH   8   9
ENDBRANCH   1   8
BRANCH   4  17
ATOM     17  C   LIG    1        1.650  -2.494  -4.792  0.00  0.00    -0.043 C 
BRANCH  17  18
ATOM     18  C   LIG    1        0.735  -2.348  -5.981  0.00  0.00    -0.064 A 
ATOM     19  C   LIG    1       -0.105  -3.386  -6.338  0.00  0.00    +0.004 A 
ATOM     20  C   LIG    1       -0.947  -3.250  -7.426  0.00  0.00    +0.033 A 
ATOM     21  C   LIG    1       -0.943  -2.080  -8.162  0.00  0.00    +0.122 A 
ATOM     22  C   LIG    1       -0.100  -1.044  -7.807  0.00  0.00    +0.033 A 
ATOM     23  C   LIG    1        0.740  -1.178  -6.717  0.00  0.00    +0.004 A 
BRANCH  21  24
ATOM     24  N   LIG    1       -1.842  -1.936  -9.329  0.00  0.00    +0.006 N 
ATOM     25  O   LIG    1       -1.838  -0.905  -9.977  0.00  0.00    -0.130 OA
BRANCH  24  26
ATOM     26  O   LIG    1       -2.585  -2.849  -9.641  0.00  0.00    -0.396 OA
ATOM     27  H   LIG    1       -2.587  -3.643  -9.143  0.00  0.00    +0.329 HD
ENDBRANCH  24  26
ENDBRANCH  21  24
ENDBRANCH  17  18
ENDBRANCH   4  17
TORSDOF 8
