REMARK  Name = ZINC35859742
REMARK                            x       y       z     vdW  Elec       q    Type
REMARK                         _______ _______ _______ _____ _____    ______ ____
ROOT
ATOM      1  C   LIG    1        0.055  -3.277   1.612  0.00  0.00    +0.003 A 
ATOM      2  C   LIG    1       -0.618  -4.436   1.229  0.00  0.00    +0.013 A 
ATOM      3  C   LIG    1       -0.597  -5.546   2.047  0.00  0.00    +0.046 A 
ATOM      4  C   LIG    1        0.094  -5.510   3.251  0.00  0.00    +0.121 A 
ATOM      5  C   LIG    1        0.765  -4.357   3.635  0.00  0.00    +0.046 A 
ATOM      6  C   LIG    1        0.753  -3.246   2.819  0.00  0.00    +0.013 A 
ENDROOT
BRANCH   1  11
ATOM      7  C   LIG    1       -0.018   1.461   0.010  0.00  0.00    +0.172 C 
ATOM      8  N   LIG    1        0.002  -0.004   0.002  0.00  0.00    -0.273 N 
ATOM      9  C   LIG    1        0.008  -0.786  -1.096  0.00  0.00    +0.117 A 
ATOM     10  C   LIG    1        0.028  -2.085  -0.683  0.00  0.00    +0.028 A 
ATOM     11  C   LIG    1        0.034  -2.081   0.735  0.00  0.00    +0.100 A 
ATOM     12  N   LIG    1        0.025  -0.828   1.133  0.00  0.00    -0.171 NA
BRANCH  10  13
ATOM     13  C   LIG    1        0.040  -3.283  -1.557  0.00  0.00    -0.011 A 
ATOM     14  C   LIG    1        0.970  -4.308  -1.358  0.00  0.00    +0.028 A 
ATOM     15  C   LIG    1        0.946  -5.404  -2.194  0.00  0.00    +0.111 A 
ATOM     16  N   LIG    1        0.062  -5.493  -3.170  0.00  0.00    -0.263 NA
ATOM     17  C   LIG    1       -0.832  -4.549  -3.391  0.00  0.00    +0.111 A 
ATOM     18  C   LIG    1       -0.882  -3.421  -2.599  0.00  0.00    +0.028 A 
ENDBRANCH  10  13
ENDBRANCH   1  11
BRANCH   4  19
ATOM     19  O   LIG    1        0.113  -6.606   4.054  0.00  0.00    -0.486 OA
BRANCH  19  20
ATOM     20  C   LIG    1        0.843  -6.500   5.278  0.00  0.00    +0.284 C 
BRANCH  20  21
ATOM     21  C   LIG    1        0.752  -7.802   6.032  0.00  0.00    +0.079 A 
ATOM     22  C   LIG    1        0.030  -8.857   5.477  0.00  0.00    +0.027 A 
ATOM     23  C   LIG    1       -0.063 -10.044   6.146  0.00  0.00    +0.012 A 
ATOM     24  C   LIG    1        0.585 -10.158   7.390  0.00  0.00    +0.000 A 
ATOM     25  C   LIG    1        0.534 -11.348   8.135  0.00  0.00    +0.010 A 
ATOM     26  C   LIG    1        1.173 -11.419   9.335  0.00  0.00    +0.001 A 
ATOM     27  C   LIG    1        1.879 -10.326   9.834  0.00  0.00    +0.002 A 
ATOM     28  C   LIG    1        1.949  -9.158   9.139  0.00  0.00    +0.028 A 
ATOM     29  C   LIG    1        1.302  -9.046   7.896  0.00  0.00    +0.071 A 
ATOM     30  N   LIG    1        1.358  -7.913   7.189  0.00  0.00    -0.248 NA
ENDBRANCH  20  21
ENDBRANCH  19  20
ENDBRANCH   4  19
TORSDOF 5
