REMARK  Name = ZINC26937509
REMARK                            x       y       z     vdW  Elec       q    Type
REMARK                         _______ _______ _______ _____ _____    ______ ____
ROOT
ATOM      1  C   LIG    1       -3.189   4.164   7.138  0.00  0.00    +0.101 C 
ATOM      2  C   LIG    1       -3.108   2.671   7.463  0.00  0.00    +0.034 C 
ATOM      3  C   LIG    1       -3.691   1.866   6.297  0.00  0.00    +0.110 C 
ATOM      4  N   LIG    1       -2.996   2.253   5.062  0.00  0.00    -0.281 N 
ATOM      5  C   LIG    1       -2.424   1.320   4.274  0.00  0.00    +0.350 C 
ATOM      6  N   LIG    1       -2.611   0.011   4.536  0.00  0.00    -0.125 N 
ATOM      7  C   LIG    1       -2.127  -0.998   3.767  0.00  0.00    +0.071 A 
ATOM      8  C   LIG    1       -1.311  -0.854   2.507  0.00  0.00    +0.068 C 
ATOM      9  C   LIG    1       -2.518  -2.161   4.347  0.00  0.00    +0.064 A 
ATOM     10  C   LIG    1       -3.255  -1.753   5.484  0.00  0.00    +0.363 A 
ATOM     11  O   LIG    1       -3.800  -2.476   6.301  0.00  0.00    -0.243 OA
ATOM     12  O   LIG    1       -3.230  -0.411   5.486  0.00  0.00    -0.326 OA
ATOM     13  O   LIG    1       -1.741   1.660   3.328  0.00  0.00    -0.246 OA
ATOM     14  C   LIG    1       -2.930   3.677   4.704  0.00  0.00    +0.110 C 
ATOM     15  C   LIG    1       -2.361   4.461   5.885  0.00  0.00    +0.034 C 
ENDROOT
BRANCH   9  16
ATOM     16  C   LIG    1       -2.236  -3.567   3.882  0.00  0.00    +0.022 C 
ATOM     17  C   LIG    1       -1.460  -4.316   4.967  0.00  0.00    +0.012 C 
ATOM     18  C   LIG    1       -3.558  -4.288   3.611  0.00  0.00    +0.012 C 
ENDBRANCH   9  16
BRANCH   1  19
ATOM     19  C   LIG    1       -2.648   4.961   8.297  0.00  0.00    +0.310 C 
ATOM     20  O   LIG    1       -2.240   4.392   9.282  0.00  0.00    -0.251 OA
BRANCH  19  21
ATOM     21  O   LIG    1       -2.619   6.301   8.236  0.00  0.00    -0.465 OA
BRANCH  21  23
ATOM     22  C   LIG    1       -2.133   8.511   9.136  0.00  0.00    +0.048 C 
ATOM     23  C   LIG    1       -2.085   7.003   9.389  0.00  0.00    +0.229 C 
ENDBRANCH  21  23
ENDBRANCH  19  21
ENDBRANCH   1  19
TORSDOF 4
