REMARK  Name = ZINC44125480
REMARK                            x       y       z     vdW  Elec       q    Type
REMARK                         _______ _______ _______ _____ _____    ______ ____
ROOT
ATOM      1  C   LIG    1       -0.019   1.526   0.010  0.00  0.00    +0.010 C 
ATOM      2  C   LIG    1        0.002  -0.004   0.002  0.00  0.00    +0.002 C 
ENDROOT
BRANCH   2   3
ATOM      3  C   LIG    1        0.707  -0.490  -1.238  0.00  0.00    -0.046 A 
ATOM      4  C   LIG    1        0.222  -0.151  -2.487  0.00  0.00    +0.004 A 
ATOM      5  C   LIG    1        0.869  -0.597  -3.624  0.00  0.00    +0.000 A 
ATOM      6  C   LIG    1        2.002  -1.381  -3.513  0.00  0.00    +0.000 A 
ATOM      7  C   LIG    1        2.488  -1.720  -2.263  0.00  0.00    +0.000 A 
ATOM      8  C   LIG    1        1.843  -1.270  -1.126  0.00  0.00    +0.004 A 
ENDBRANCH   2   3
BRANCH   2   9
ATOM      9  C   LIG    1       -1.433  -0.534   0.013  0.00  0.00    -0.048 C 
BRANCH   9  10
ATOM     10  N   LIG    1       -2.083  -0.161   1.276  0.00  0.00    +0.385 N 
ATOM     11  H   LIG    1       -2.022   0.838   1.404  0.00  0.00    -0.057 HD
ATOM     12  C   LIG    1       -3.495  -0.564   1.238  0.00  0.00    -0.071 C 
BRANCH  10  13
ATOM     13  N   LIG    1       -1.417  -0.832   2.381  0.00  0.00    -0.379 NA
ATOM     14  H   LIG    1       -1.465  -1.835   2.276  0.00  0.00    +0.099 HD
ATOM     15  H   LIG    1       -1.804  -0.542   3.266  0.00  0.00    +0.099 HD
ENDBRANCH  10  13
ENDBRANCH   9  10
ENDBRANCH   2   9
TORSDOF 4
