REMARK  Name = ZINC18847044
REMARK                            x       y       z     vdW  Elec       q    Type
REMARK                         _______ _______ _______ _____ _____    ______ ____
ROOT
ATOM      1  C   LIG    1        0.605  -0.606  -1.054  0.00  0.00    +0.127 A 
ATOM      2  C   LIG    1        1.171   0.172  -2.059  0.00  0.00    +0.092 A 
ATOM      3  C   LIG    1        1.790  -0.431  -3.137  0.00  0.00    +0.135 A 
ATOM      4  C   LIG    1        1.845  -1.829  -3.206  0.00  0.00    +0.106 A 
ATOM      5  C   LIG    1        1.266  -2.616  -2.195  0.00  0.00    +0.145 A 
ATOM      6  O   LIG    1        1.304  -3.961  -2.274  0.00  0.00    -0.462 OA
ATOM      7  C   LIG    1        2.129  -4.592  -3.113  0.00  0.00    +0.208 A 
ATOM      8  C   LIG    1        2.749  -3.963  -4.145  0.00  0.00    +0.064 A 
ATOM      9  C   LIG    1        2.507  -2.518  -4.327  0.00  0.00    +0.204 A 
ATOM     10  O   LIG    1        2.835  -1.931  -5.343  0.00  0.00    -0.286 OA
ATOM     11  C   LIG    1        0.655  -1.990  -1.117  0.00  0.00    +0.092 A 
ENDROOT
BRANCH   8  12
ATOM     12  C   LIG    1        3.644  -4.707  -5.064  0.00  0.00    -0.011 A 
ATOM     13  C   LIG    1        5.005  -4.409  -5.106  0.00  0.00    +0.012 A 
ATOM     14  C   LIG    1        5.836  -5.103  -5.961  0.00  0.00    +0.046 A 
ATOM     15  C   LIG    1        5.317  -6.098  -6.779  0.00  0.00    +0.117 A 
ATOM     16  C   LIG    1        3.962  -6.397  -6.739  0.00  0.00    +0.046 A 
ATOM     17  C   LIG    1        3.128  -5.710  -5.882  0.00  0.00    +0.012 A 
BRANCH  15  18
ATOM     18  O   LIG    1        6.138  -6.780  -7.620  0.00  0.00    -0.507 OA
ATOM     19  H   LIG    1        6.527  -7.576  -7.231  0.00  0.00    +0.292 HD
ENDBRANCH  15  18
ENDBRANCH   8  12
BRANCH   1  21
ATOM     20  C   LIG    1       -0.017   1.425   0.010  0.00  0.00    +0.277 C 
ATOM     21  O   LIG    1        0.002  -0.004   0.002  0.00  0.00    -0.495 OA
ENDBRANCH   1  21
BRANCH   3  22
ATOM     22  O   LIG    1        2.341   0.324  -4.121  0.00  0.00    -0.506 OA
ATOM     23  H   LIG    1        3.268   0.552  -3.970  0.00  0.00    +0.292 HD
ENDBRANCH   3  22
TORSDOF 4
