REMARK  Name = ZINC19685792
REMARK                            x       y       z     vdW  Elec       q    Type
REMARK                         _______ _______ _______ _____ _____    ______ ____
ROOT
ATOM      1  C   LIG    1       -0.617  -2.553   0.204  0.00  0.00    +0.338 C 
ATOM      2  O   LIG    1        0.491  -2.619   0.703  0.00  0.00    -0.245 OA
ENDROOT
BRANCH   1   7
ATOM      3  C   LIG    1       -1.336   2.109  -2.929  0.00  0.00    +0.061 C 
ATOM      4  C   LIG    1       -1.348   0.886  -2.049  0.00  0.00    +0.016 C 
ATOM      5  C   LIG    1       -1.383   1.029  -0.713  0.00  0.00    +0.065 C 
ATOM      6  C   LIG    1       -1.405  -0.162   0.203  0.00  0.00    +0.096 C 
ATOM      7  C   LIG    1       -0.992  -1.405  -0.532  0.00  0.00    +0.065 C 
ATOM      8  C   LIG    1       -0.972  -1.451  -1.876  0.00  0.00    +0.016 C 
ATOM      9  C   LIG    1       -0.559  -2.723  -2.571  0.00  0.00    +0.061 C 
ATOM     10  N   LIG    1       -1.327  -0.357  -2.620  0.00  0.00    -0.321 N 
ATOM     11  H   LIG    1       -1.562  -0.463  -3.555  0.00  0.00    +0.152 HD
BRANCH   6  12
ATOM     12  C   LIG    1       -2.799  -0.346   0.745  0.00  0.00    -0.033 A 
ATOM     13  C   LIG    1       -3.865  -0.488  -0.124  0.00  0.00    +0.005 A 
ATOM     14  C   LIG    1       -5.143  -0.658   0.374  0.00  0.00    +0.003 A 
ATOM     15  C   LIG    1       -5.356  -0.685   1.740  0.00  0.00    +0.032 A 
ATOM     16  C   LIG    1       -4.290  -0.544   2.608  0.00  0.00    +0.122 A 
ATOM     17  C   LIG    1       -3.010  -0.379   2.110  0.00  0.00    +0.037 A 
BRANCH  16  18
ATOM     18  N   LIG    1       -4.517  -0.573   4.070  0.00  0.00    +0.006 N 
ATOM     19  O   LIG    1       -5.620  -0.811   4.506  0.00  0.00    -0.130 OA
BRANCH  18  20
ATOM     20  O   LIG    1       -3.601  -0.358   4.829  0.00  0.00    -0.396 OA
ATOM     21  H   LIG    1       -2.747  -0.173   4.491  0.00  0.00    +0.329 HD
ENDBRANCH  18  20
ENDBRANCH  16  18
ENDBRANCH   6  12
BRANCH   5  22
ATOM     22  C   LIG    1       -1.401   2.329  -0.157  0.00  0.00    +0.337 C 
ATOM     23  O   LIG    1       -1.384   3.303  -0.886  0.00  0.00    -0.245 OA
BRANCH  22  24
ATOM     24  O   LIG    1       -1.437   2.490   1.183  0.00  0.00    -0.465 OA
ATOM     25  C   LIG    1       -1.453   3.831   1.675  0.00  0.00    +0.280 C 
ENDBRANCH  22  24
ENDBRANCH   5  22
ENDBRANCH   1   7
BRANCH   1  26
ATOM     26  O   LIG    1       -1.487  -3.573   0.355  0.00  0.00    -0.460 OA
BRANCH  26  27
ATOM     27  C   LIG    1       -1.006  -4.744   1.017  0.00  0.00    +0.248 C 
BRANCH  27  28
ATOM     28  C   LIG    1       -2.085  -5.828   0.985  0.00  0.00    +0.125 C 
BRANCH  28  29
ATOM     29  N   LIG    1       -3.261  -5.370   1.736  0.00  0.00    -0.297 NA
ATOM     30  C   LIG    1       -2.999  -5.377   3.182  0.00  0.00    +0.100 C 
ATOM     31  C   LIG    1       -4.218  -4.819   3.921  0.00  0.00    +0.100 C 
ATOM     32  N   LIG    1       -5.398  -5.633   3.599  0.00  0.00    -0.289 NA
ATOM     33  C   LIG    1       -5.660  -5.626   2.153  0.00  0.00    +0.100 C 
ATOM     34  C   LIG    1       -4.442  -6.184   1.414  0.00  0.00    +0.100 C 
BRANCH  32  35
ATOM     35  C   LIG    1       -6.574  -5.175   4.350  0.00  0.00    +0.117 C 
BRANCH  35  36
ATOM     36  C   LIG    1       -6.296  -5.273   5.828  0.00  0.00    -0.026 A 
ATOM     37  C   LIG    1       -5.693  -6.404   6.344  0.00  0.00    +0.005 A 
ATOM     38  C   LIG    1       -5.438  -6.493   7.700  0.00  0.00    +0.000 A 
ATOM     39  C   LIG    1       -5.786  -5.452   8.539  0.00  0.00    +0.000 A 
ATOM     40  C   LIG    1       -6.389  -4.320   8.023  0.00  0.00    +0.000 A 
ATOM     41  C   LIG    1       -6.641  -4.229   6.666  0.00  0.00    +0.005 A 
ENDBRANCH  35  36
BRANCH  35  42
ATOM     42  C   LIG    1       -7.759  -6.039   4.003  0.00  0.00    -0.026 A 
ATOM     43  C   LIG    1       -7.599  -7.404   3.853  0.00  0.00    +0.005 A 
ATOM     44  C   LIG    1       -8.686  -8.197   3.535  0.00  0.00    +0.000 A 
ATOM     45  C   LIG    1       -9.933  -7.624   3.368  0.00  0.00    +0.000 A 
ATOM     46  C   LIG    1      -10.094  -6.260   3.519  0.00  0.00    +0.000 A 
ATOM     47  C   LIG    1       -9.008  -5.468   3.841  0.00  0.00    +0.005 A 
ENDBRANCH  35  42
ENDBRANCH  32  35
ENDBRANCH  28  29
ENDBRANCH  27  28
ENDBRANCH  26  27
ENDBRANCH   1  26
TORSDOF 13
