REMARK  Name = ZINC14968935
REMARK                            x       y       z     vdW  Elec       q    Type
REMARK                         _______ _______ _______ _____ _____    ______ ____
ROOT
ATOM      1  C   LIG    1       -3.716   3.279   0.038  0.00  0.00    -0.047 A 
ATOM      2  C   LIG    1       -3.702   1.895   0.030  0.00  0.00    +0.004 A 
ATOM      3  C   LIG    1       -2.502   1.215   0.021  0.00  0.00    +0.011 A 
ATOM      4  C   LIG    1       -1.299   1.927   0.019  0.00  0.00    +0.017 A 
ATOM      5  C   LIG    1       -1.322   3.325   0.032  0.00  0.00    +0.011 A 
ATOM      6  C   LIG    1       -2.529   3.991   0.036  0.00  0.00    +0.004 A 
ENDROOT
BRANCH   4   7
ATOM      7  C   LIG    1       -0.014   1.208   0.009  0.00  0.00    +0.164 C 
ATOM      8  O   LIG    1        0.002  -0.004   0.002  0.00  0.00    -0.292 OA
BRANCH   7   9
ATOM      9  C   LIG    1        1.280   1.980   0.001  0.00  0.00    +0.095 C 
BRANCH   9  10
ATOM     10  C   LIG    1        2.457   1.001  -0.016  0.00  0.00    +0.092 C 
BRANCH  10  11
ATOM     11  N   LIG    1        3.719   1.753  -0.024  0.00  0.00    -0.298 NA
ATOM     12  C   LIG    1        3.878   2.502  -1.279  0.00  0.00    +0.112 C 
ATOM     13  C   LIG    1        5.173   3.316  -1.221  0.00  0.00    +0.175 C 
ATOM     14  O   LIG    1        6.272   2.435  -0.973  0.00  0.00    -0.377 OA
ATOM     15  C   LIG    1        6.151   1.690   0.242  0.00  0.00    +0.175 C 
ATOM     16  C   LIG    1        4.865   0.860   0.199  0.00  0.00    +0.112 C 
ENDBRANCH  10  11
ENDBRANCH   9  10
ENDBRANCH   7   9
ENDBRANCH   4   7
BRANCH   1  17
ATOM     17  C   LIG    1       -5.031   4.015   0.048  0.00  0.00    +0.035 C 
BRANCH  17  18
ATOM     18  C   LIG    1       -5.470   4.256   1.494  0.00  0.00    +0.005 C 
BRANCH  18  19
ATOM     19  C   LIG    1       -6.806   5.003   1.503  0.00  0.00    +0.000 C 
BRANCH  19  20
ATOM     20  C   LIG    1       -7.244   5.244   2.949  0.00  0.00    -0.000 C 
BRANCH  20  22
ATOM     21  C   LIG    1       -9.018   6.232   4.405  0.00  0.00    +0.004 C 
ATOM     22  C   LIG    1       -8.579   5.991   2.959  0.00  0.00    -0.003 C 
ENDBRANCH  20  22
ENDBRANCH  19  20
ENDBRANCH  18  19
ENDBRANCH  17  18
ENDBRANCH   1  17
TORSDOF 9
