REMARK  Name = ZINC49069480
REMARK                            x       y       z     vdW  Elec       q    Type
REMARK                         _______ _______ _______ _____ _____    ______ ____
ROOT
ATOM      1  C   LIG    1       -0.753   1.421   0.189  0.00  0.00    +0.026 C 
ATOM      2  C   LIG    1       -0.383  -0.060   0.097  0.00  0.00    +0.059 C 
ATOM      3  C   LIG    1       -1.654  -0.913   0.155  0.00  0.00    -0.060 C 
ATOM      4  N   LIG    1       -1.288  -2.334   0.205  0.00  0.00    +0.381 N 
ATOM      5  H   LIG    1       -0.699  -2.556  -0.585  0.00  0.00    -0.086 HD
ATOM      6  H   LIG    1       -2.124  -2.897   0.167  0.00  0.00    -0.086 HD
ATOM      7  C   LIG    1       -0.562  -2.620   1.449  0.00  0.00    -0.060 C 
ATOM      8  C   LIG    1        0.763  -1.852   1.455  0.00  0.00    +0.059 C 
ATOM      9  C   LIG    1        1.459  -2.037   2.805  0.00  0.00    +0.026 C 
ATOM     10  N   LIG    1        0.481  -0.425   1.231  0.00  0.00    -0.265 N 
ATOM     11  C   LIG    1        0.994   0.520   2.043  0.00  0.00    +0.404 C 
ATOM     12  O   LIG    1        0.664   1.682   1.908  0.00  0.00    -0.226 OA
ENDROOT
BRANCH  11  13
ATOM     13  O   LIG    1        1.873   0.177   3.004  0.00  0.00    -0.445 OA
BRANCH  13  14
ATOM     14  C   LIG    1        2.377   1.230   3.828  0.00  0.00    +0.269 C 
BRANCH  14  15
ATOM     15  C   LIG    1        3.339   0.660   4.838  0.00  0.00    -0.010 A 
ATOM     16  C   LIG    1        2.875   0.226   6.066  0.00  0.00    +0.007 A 
ATOM     17  C   LIG    1        3.758  -0.296   6.993  0.00  0.00    +0.000 A 
ATOM     18  C   LIG    1        5.104  -0.385   6.692  0.00  0.00    +0.000 A 
ATOM     19  C   LIG    1        5.568   0.049   5.463  0.00  0.00    +0.000 A 
ATOM     20  C   LIG    1        4.684   0.567   4.535  0.00  0.00    +0.007 A 
ENDBRANCH  14  15
ENDBRANCH  13  14
ENDBRANCH  11  13
TORSDOF 3
