REMARK  Name = ZINC44404798
REMARK                            x       y       z     vdW  Elec       q    Type
REMARK                         _______ _______ _______ _____ _____    ______ ____
ROOT
ATOM      1  N   LIG    1        1.398  -2.528   2.296  0.00  0.00    -0.267 N 
ATOM      2  C   LIG    1        2.730  -2.652   2.467  0.00  0.00    +0.260 A 
ATOM      3  C   LIG    1        3.150  -3.062   3.720  0.00  0.00    +0.099 A 
ATOM      4  C   LIG    1        2.165  -3.291   4.628  0.00  0.00    +0.100 A 
ATOM      5 CL   LIG    1        2.326  -3.810   6.277  0.00  0.00    -0.074 Cl
ATOM      6  O   LIG    1        3.521  -2.415   1.566  0.00  0.00    -0.267 OA
ATOM      7  S   LIG    1        0.758  -2.946   3.784  0.00  0.00    +0.004 S 
ENDROOT
BRANCH   1   8
ATOM      8  C   LIG    1        0.679  -2.115   1.088  0.00  0.00    +0.253 C 
BRANCH   8   9
ATOM      9  C   LIG    1        0.618  -0.611   1.029  0.00  0.00    +0.328 C 
ATOM     10  O   LIG    1        1.124   0.049   1.905  0.00  0.00    -0.249 OA
BRANCH   9  12
ATOM     11  C   LIG    1       -0.017   1.425   0.010  0.00  0.00    +0.280 C 
ATOM     12  O   LIG    1        0.002  -0.004   0.002  0.00  0.00    -0.467 OA
ENDBRANCH   9  12
ENDBRANCH   8   9
ENDBRANCH   1   8
TORSDOF 3
