REMARK  Name = ZINC20217125
REMARK                            x       y       z     vdW  Elec       q    Type
REMARK                         _______ _______ _______ _____ _____    ______ ____
ROOT
ATOM      1  C   LIG    1       -2.217  -4.182   0.713  0.00  0.00    +0.020 A 
ATOM      2  C   LIG    1       -2.298  -2.816   0.747  0.00  0.00    +0.015 A 
ATOM      3  C   LIG    1       -1.164  -2.078   0.377  0.00  0.00    +0.040 A 
ATOM      4  C   LIG    1       -1.163  -0.666   0.382  0.00  0.00    +0.040 A 
ATOM      5  C   LIG    1        0.002  -0.004   0.002  0.00  0.00    -0.005 A 
ATOM      6  C   LIG    1        1.116  -0.737  -0.364  0.00  0.00    +0.049 A 
ATOM      7  C   LIG    1        2.411  -0.076  -0.769  0.00  0.00    +0.056 C 
ATOM      8  C   LIG    1        2.176   1.385  -1.141  0.00  0.00    +0.006 C 
ATOM      9  C   LIG    1        1.404   2.058  -0.000  0.00  0.00    +0.005 C 
ATOM     10  N   LIG    1        1.092  -2.059  -0.366  0.00  0.00    -0.232 NA
ATOM     11  C   LIG    1       -0.018   1.501   0.010  0.00  0.00    +0.039 C 
ATOM     12  C   LIG    1        0.013  -2.760  -0.015  0.00  0.00    +0.162 A 
ATOM     13  N   LIG    1        0.025  -4.098  -0.026  0.00  0.00    -0.236 NA
ATOM     14  C   LIG    1       -1.032  -4.794   0.319  0.00  0.00    +0.113 A 
ENDROOT
BRANCH   4  15
ATOM     15  N   LIG    1       -2.292   0.044   0.757  0.00  0.00    -0.357 N 
ATOM     16  H   LIG    1       -3.205  -0.493   1.055  0.00  0.00    +0.142 HD
ATOM     17  H   LIG    1       -2.276   1.144   0.756  0.00  0.00    +0.142 HD
ENDBRANCH   4  15
TORSDOF 1
