REMARK  Name = ZINC36349608
REMARK                            x       y       z     vdW  Elec       q    Type
REMARK                         _______ _______ _______ _____ _____    ______ ____
ROOT
ATOM      1  C   LIG    1        6.492 -13.713   9.097  0.00  0.00    +0.002 C 
ENDROOT
BRANCH   1   2
ATOM      2  C   LIG    1        6.332 -14.483  10.409  0.00  0.00    +0.019 C 
BRANCH   2   3
ATOM      3  C   LIG    1        6.895 -15.896  10.243  0.00  0.00    +0.106 C 
BRANCH   3   4
ATOM      4  N   LIG    1        6.742 -16.633  11.499  0.00  0.00    -0.299 N 
ATOM      5  H   LIG    1        6.332 -16.204  12.267  0.00  0.00    +0.150 HD
ATOM      6  C   LIG    1        7.170 -17.908  11.589  0.00  0.00    +0.304 C 
ATOM      7  N   LIG    1        7.029 -18.586  12.745  0.00  0.00    -0.269 N 
ATOM      8  H   LIG    1        6.692 -18.135  13.534  0.00  0.00    +0.156 HD
ATOM      9  O   LIG    1        7.683 -18.446  10.627  0.00  0.00    -0.253 OA
BRANCH   7  10
ATOM     10  C   LIG    1        7.370 -19.942  12.806  0.00  0.00    +0.041 A 
ATOM     11  C   LIG    1        8.259 -20.393  13.773  0.00  0.00    -0.029 A 
ATOM     12  C   LIG    1        8.860 -19.422  14.757  0.00  0.00    +0.045 C 
ATOM     13  C   LIG    1        8.593 -21.732  13.832  0.00  0.00    +0.005 A 
ATOM     14  C   LIG    1        8.043 -22.623  12.929  0.00  0.00    +0.001 A 
ATOM     15  C   LIG    1        7.158 -22.177  11.965  0.00  0.00    +0.005 A 
ATOM     16  C   LIG    1        6.815 -20.841  11.905  0.00  0.00    -0.029 A 
ATOM     17  C   LIG    1        5.845 -20.357  10.858  0.00  0.00    +0.045 C 
ENDBRANCH   7  10
ENDBRANCH   3   4
ENDBRANCH   2   3
ENDBRANCH   1   2
BRANCH   1  18
ATOM     18  C   LIG    1        5.929 -12.299   9.263  0.00  0.00    +0.000 C 
BRANCH  18  19
ATOM     19  C   LIG    1        6.089 -11.529   7.950  0.00  0.00    +0.000 C 
BRANCH  19  20
ATOM     20  C   LIG    1        5.526 -10.116   8.117  0.00  0.00    +0.000 C 
BRANCH  20  21
ATOM     21  C   LIG    1        5.686  -9.346   6.804  0.00  0.00    -0.000 C 
BRANCH  21  22
ATOM     22  C   LIG    1        5.123  -7.933   6.970  0.00  0.00    -0.000 C 
BRANCH  22  23
ATOM     23  C   LIG    1        5.283  -7.163   5.658  0.00  0.00    -0.000 C 
BRANCH  23  24
ATOM     24  C   LIG    1        4.720  -5.750   5.824  0.00  0.00    -0.000 C 
BRANCH  24  25
ATOM     25  C   LIG    1        4.880  -4.980   4.512  0.00  0.00    -0.000 C 
BRANCH  25  26
ATOM     26  C   LIG    1        4.317  -3.567   4.678  0.00  0.00    -0.000 C 
BRANCH  26  27
ATOM     27  C   LIG    1        4.477  -2.796   3.366  0.00  0.00    -0.000 C 
BRANCH  27  28
ATOM     28  C   LIG    1        3.914  -1.383   3.532  0.00  0.00    -0.000 C 
BRANCH  28  29
ATOM     29  C   LIG    1        4.074  -0.613   2.220  0.00  0.00    -0.000 C 
BRANCH  29  30
ATOM     30  C   LIG    1        3.511   0.800   2.386  0.00  0.00    -0.000 C 
BRANCH  30  32
ATOM     31  C   LIG    1        3.108   2.983   1.240  0.00  0.00    +0.004 C 
ATOM     32  C   LIG    1        3.671   1.570   1.073  0.00  0.00    -0.003 C 
ENDBRANCH  30  32
ENDBRANCH  29  30
ENDBRANCH  28  29
ENDBRANCH  27  28
ENDBRANCH  26  27
ENDBRANCH  25  26
ENDBRANCH  24  25
ENDBRANCH  23  24
ENDBRANCH  22  23
ENDBRANCH  21  22
ENDBRANCH  20  21
ENDBRANCH  19  20
ENDBRANCH  18  19
ENDBRANCH   1  18
TORSDOF 18
