REMARK  Name = ZINC39118604
REMARK                            x       y       z     vdW  Elec       q    Type
REMARK                         _______ _______ _______ _____ _____    ______ ____
ROOT
ATOM      1  C   LIG    1       -0.017   1.379   0.010  0.00  0.00    +0.006 A 
ATOM      2  C   LIG    1        1.167   2.088   0.002  0.00  0.00    +0.019 A 
ATOM      3  C   LIG    1        2.385   1.407  -0.013  0.00  0.00    +0.052 A 
ATOM      4  C   LIG    1        2.397   0.011  -0.021  0.00  0.00    +0.019 A 
ATOM      5  C   LIG    1        1.206  -0.686  -0.013  0.00  0.00    +0.006 A 
ATOM      6  C   LIG    1        0.002  -0.004   0.002  0.00  0.00    -0.028 A 
ENDROOT
BRANCH   3   7
ATOM      7  C   LIG    1        3.617   2.136  -0.021  0.00  0.00    +0.099 C 
ATOM      8  N   LIG    1        4.595   2.715  -0.028  0.00  0.00    -0.191 NA
ENDBRANCH   3   7
BRANCH   6   9
ATOM      9  C   LIG    1       -1.295  -0.772   0.011  0.00  0.00    +0.158 C 
BRANCH   9  10
ATOM     10  N   LIG    1       -1.729  -1.013  -1.367  0.00  0.00    -0.324 N 
ATOM     11  C   LIG    1       -2.585  -0.260  -2.078  0.00  0.00    +0.200 A 
ATOM     12  N   LIG    1       -2.737  -0.779  -3.271  0.00  0.00    -0.243 NA
ATOM     13  C   LIG    1       -1.993  -1.878  -3.383  0.00  0.00    +0.141 A 
ATOM     14  C   LIG    1       -1.329  -2.056  -2.185  0.00  0.00    +0.101 A 
BRANCH  14  15
ATOM     15  C   LIG    1       -0.426  -3.095  -1.858  0.00  0.00    +0.278 C 
ATOM     16  O   LIG    1       -0.164  -3.951  -2.678  0.00  0.00    -0.294 OA
ENDBRANCH  14  15
ENDBRANCH   9  10
ENDBRANCH   6   9
TORSDOF 4
