REMARK  Name = ZINC28467935
REMARK                            x       y       z     vdW  Elec       q    Type
REMARK                         _______ _______ _______ _____ _____    ______ ____
ROOT
ATOM      1  C   LIG    1       -0.017   1.362   0.009  0.00  0.00    +0.001 A 
ATOM      2  C   LIG    1        1.166   2.092   0.002  0.00  0.00    +0.001 A 
ATOM      3  C   LIG    1        2.387   1.455  -0.013  0.00  0.00    +0.014 A 
ATOM      4  C   LIG    1        2.432   0.062  -0.021  0.00  0.00    +0.047 A 
ATOM      5  C   LIG    1        1.226  -0.678  -0.013  0.00  0.00    -0.007 A 
ATOM      6  C   LIG    1        1.303  -2.136  -0.021  0.00  0.00    -0.011 A 
ATOM      7  C   LIG    1        2.511  -2.753  -0.036  0.00  0.00    +0.054 A 
ATOM      8  C   LIG    1        2.321  -4.223  -0.041  0.00  0.00    +0.002 A 
ATOM      9  C   LIG    1        3.247  -5.271  -0.054  0.00  0.00    +0.012 A 
ATOM     10  C   LIG    1        2.805  -6.577  -0.056  0.00  0.00    +0.029 A 
ATOM     11  C   LIG    1        1.450  -6.856  -0.044  0.00  0.00    +0.106 A 
ATOM     12  C   LIG    1        0.527  -5.824  -0.031  0.00  0.00    +0.033 A 
ATOM     13  C   LIG    1        0.959  -4.517  -0.029  0.00  0.00    -0.032 A 
ATOM     14  N   LIG    1        3.683  -2.021  -0.044  0.00  0.00    -0.321 N 
ATOM     15  H   LIG    1        4.528  -2.497  -0.054  0.00  0.00    +0.169 HD
ATOM     16  C   LIG    1        0.229  -3.197  -0.016  0.00  0.00    +0.073 C 
ATOM     17  C   LIG    1        3.699  -0.677  -0.037  0.00  0.00    +0.257 A 
ATOM     18  O   LIG    1        4.758  -0.076  -0.045  0.00  0.00    -0.267 OA
ATOM     19  C   LIG    1        0.002  -0.004   0.002  0.00  0.00    +0.009 A 
ENDROOT
BRANCH  11  20
ATOM     20  S   LIG    1        0.898  -8.530  -0.047  0.00  0.00    +0.058 S 
ATOM     21  O   LIG    1        1.948  -9.303  -0.612  0.00  0.00    -0.153 OA
ATOM     22  O   LIG    1       -0.417  -8.522  -0.585  0.00  0.00    -0.153 OA
BRANCH  20  23
ATOM     23  N   LIG    1        0.759  -9.002   1.534  0.00  0.00    -0.190 NA
ATOM     24  H   LIG    1        1.334  -9.701   1.883  0.00  0.00    +0.148 HD
BRANCH  23  25
ATOM     25  C   LIG    1       -0.232  -8.365   2.405  0.00  0.00    +0.107 C 
BRANCH  25  26
ATOM     26  C   LIG    1       -0.419  -9.210   3.667  0.00  0.00    +0.032 C 
BRANCH  26  27
ATOM     27  C   LIG    1       -1.454  -8.544   4.577  0.00  0.00    +0.086 C 
BRANCH  27  28
ATOM     28  N   LIG    1       -1.634  -9.355   5.788  0.00  0.00    -0.298 NA
ATOM     29  C   LIG    1       -2.243 -10.654   5.468  0.00  0.00    +0.112 C 
ATOM     30  C   LIG    1       -2.357 -11.488   6.747  0.00  0.00    +0.175 C 
ATOM     31  O   LIG    1       -3.114 -10.760   7.718  0.00  0.00    -0.377 OA
ATOM     32  C   LIG    1       -2.548  -9.490   8.055  0.00  0.00    +0.175 C 
ATOM     33  C   LIG    1       -2.436  -8.636   6.789  0.00  0.00    +0.112 C 
ENDBRANCH  27  28
ENDBRANCH  26  27
ENDBRANCH  25  26
ENDBRANCH  23  25
ENDBRANCH  20  23
ENDBRANCH  11  20
TORSDOF 6
