REMARK  Name = ZINC00004763
REMARK                            x       y       z     vdW  Elec       q    Type
REMARK                         _______ _______ _______ _____ _____    ______ ____
ROOT
ATOM      1  C   LIG    1       -0.017   1.387   0.010  0.00  0.00    +0.046 A 
ATOM      2  C   LIG    1        1.170   2.090   0.002  0.00  0.00    +0.044 A 
ATOM      3 CL   LIG    1        1.141   3.825   0.012  0.00  0.00    -0.083 Cl
ATOM      4  C   LIG    1        2.388   1.421  -0.014  0.00  0.00    +0.040 A 
ATOM      5  C   LIG    1        2.433   0.056  -0.022  0.00  0.00    +0.052 A 
ATOM      6 CL   LIG    1        3.962  -0.765  -0.043  0.00  0.00    -0.083 Cl
ATOM      7  C   LIG    1        1.239  -0.680  -0.014  0.00  0.00    +0.022 A 
ATOM      8  C   LIG    1        0.954  -2.065  -0.019  0.00  0.00    -0.006 A 
ATOM      9  CA  LIG    1       -0.400  -2.210  -0.007  0.00  0.00    +0.128 A 
ATOM     10  N   LIG    1       -0.988  -0.957   0.006  0.00  0.00    -0.349 N 
ATOM     11  H   LIG    1       -1.942  -0.781   0.015  0.00  0.00    +0.166 HD
ATOM     12  C   LIG    1        0.002  -0.004   0.002  0.00  0.00    +0.050 A 
ENDROOT
BRANCH   9  13
ATOM     13  C   LIG    1       -1.119  -3.486  -0.007  0.00  0.00    +0.354 C 
ATOM     14  O   LIG    1       -2.343  -3.500   0.004  0.00  0.00    -0.243 OA
BRANCH  13  15
ATOM     15  OXT LIG    1       -0.495  -4.540  -0.018  0.00  0.00    -0.476 OA
ATOM     16  HXT LIG    1        0.442  -4.530  -0.027  0.00  0.00    +0.295 HD
ENDBRANCH  13  15
ENDBRANCH   9  13
BRANCH   8  17
ATOM     17  C   LIG    1        1.966  -3.181  -0.036  0.00  0.00    +0.049 C 
BRANCH  17  18
ATOM     18  C   LIG    1        2.324  -3.567   1.401  0.00  0.00    +0.125 C 
BRANCH  18  19
ATOM     19  C   LIG    1        3.337  -4.683   1.384  0.00  0.00    +0.305 C 
ATOM     20  O   LIG    1        3.736  -5.128   0.321  0.00  0.00    -0.251 OA
BRANCH  19  21
ATOM     21  O   LIG    1        3.758  -5.140   2.433  0.00  0.00    -0.481 OA
ATOM     22  H   LIG    1        3.451  -4.798   3.249  0.00  0.00    +0.295 HD
ENDBRANCH  19  21
ENDBRANCH  18  19
ENDBRANCH  17  18
ENDBRANCH   8  17
TORSDOF 6
