REMARK  Name = ZINC40957260
REMARK                            x       y       z     vdW  Elec       q    Type
REMARK                         _______ _______ _______ _____ _____    ______ ____
ROOT
ATOM      1  N   LIG    1       -0.019  -2.727  -4.905  0.00  0.00    -0.325 N 
ATOM      2  C   LIG    1       -1.285  -3.103  -5.549  0.00  0.00    +0.124 C 
ATOM      3  C   LIG    1       -1.288  -2.553  -6.981  0.00  0.00    +0.127 C 
ATOM      4  N   LIG    1       -0.024  -2.926  -7.631  0.00  0.00    -0.294 N 
ATOM      5  C   LIG    1       -0.025  -3.603  -8.797  0.00  0.00    +0.249 C 
ATOM      6  O   LIG    1       -1.073  -4.000  -9.268  0.00  0.00    -0.270 OA
ATOM      7  C   LIG    1        1.242  -2.550  -6.986  0.00  0.00    +0.127 C 
ATOM      8  C   LIG    1        1.246  -3.095  -5.557  0.00  0.00    +0.124 C 
ENDROOT
BRANCH   1  12
ATOM      9  C   LIG    1       -0.016  -0.635  -1.310  0.00  0.00    +0.020 A 
ATOM     10  C   LIG    1       -0.024   0.054  -2.529  0.00  0.00    +0.013 A 
ATOM     11  C   LIG    1       -0.025  -0.637  -3.707  0.00  0.00    +0.027 A 
ATOM     12  C   LIG    1       -0.017  -2.030  -3.702  0.00  0.00    +0.065 A 
ATOM     13  C   LIG    1       -0.009  -2.727  -2.494  0.00  0.00    +0.145 A 
ATOM     14  F   LIG    1       -0.002  -4.078  -2.492  0.00  0.00    -0.204 F 
ATOM     15  C   LIG    1       -0.002  -2.036  -1.302  0.00  0.00    +0.051 A 
BRANCH   9  17
ATOM     16  C   LIG    1       -0.030   1.615  -0.056  0.00  0.00    +0.091 C 
ATOM     17  C   LIG    1       -0.016   0.108  -0.045  0.00  0.00    +0.160 C 
ATOM     18  O   LIG    1       -0.004  -0.491   1.010  0.00  0.00    -0.292 OA
ENDBRANCH   9  17
ENDBRANCH   1  12
BRANCH   5  19
ATOM     19  C   LIG    1        1.244  -3.860  -9.501  0.00  0.00    +0.060 A 
ATOM     20  C   LIG    1        2.103  -2.803  -9.813  0.00  0.00    +0.047 A 
ATOM     21  C   LIG    1        3.287  -3.050 -10.471  0.00  0.00    +0.122 A 
ATOM     22  C   LIG    1        3.634  -4.345 -10.826  0.00  0.00    +0.034 A 
ATOM     23  C   LIG    1        2.797  -5.400 -10.525  0.00  0.00    +0.026 A 
ATOM     24  C   LIG    1        1.601  -5.170  -9.856  0.00  0.00    +0.042 A 
BRANCH  24  25
ATOM     25  N   LIG    1        0.760  -6.231  -9.546  0.00  0.00    -0.335 N 
ATOM     26  C   LIG    1       -0.273  -6.649 -10.497  0.00  0.00    +0.129 C 
ATOM     27  C   LIG    1        0.907  -6.933  -8.268  0.00  0.00    +0.129 C 
ENDBRANCH  24  25
BRANCH  21  28
ATOM     28  N   LIG    1        4.194  -1.928 -10.801  0.00  0.00    +0.006 N 
ATOM     29  O   LIG    1        3.895  -0.798 -10.494  0.00  0.00    -0.130 OA
BRANCH  28  30
ATOM     30  O   LIG    1        5.235  -2.142 -11.379  0.00  0.00    -0.396 OA
ATOM     31  H   LIG    1        5.467  -3.018 -11.617  0.00  0.00    +0.329 HD
ENDBRANCH  28  30
ENDBRANCH  21  28
ENDBRANCH   5  19
TORSDOF 6
