REMARK  Name = ZINC16051972
REMARK                            x       y       z     vdW  Elec       q    Type
REMARK                         _______ _______ _______ _____ _____    ______ ____
ROOT
ATOM      1  C   LIG    1       -2.945   0.711   1.462  0.00  0.00    +0.142 C 
ENDROOT
BRANCH   1   2
ATOM      2  C   LIG    1       -4.299   0.049   1.467  0.00  0.00    +0.228 C 
ATOM      3  N   LIG    1       -5.412   0.791   1.308  0.00  0.00    -0.328 N 
ATOM      4  H   LIG    1       -5.333   1.880   1.175  0.00  0.00    +0.145 HD
ATOM      5  H   LIG    1       -6.401   0.307   1.311  0.00  0.00    +0.145 HD
ATOM      6  O   LIG    1       -4.386  -1.152   1.614  0.00  0.00    -0.274 OA
ENDBRANCH   1   2
BRANCH   1   7
ATOM      7  N   LIG    1       -1.966  -0.172   2.110  0.00  0.00    -0.320 NA
ATOM      8  H   LIG    1       -1.910  -1.124   1.560  0.00  0.00    +0.119 HD
ATOM      9  H   LIG    1       -2.276  -0.366   3.147  0.00  0.00    +0.119 HD
ENDBRANCH   1   7
BRANCH   1  10
ATOM     10  C   LIG    1       -2.514   0.980   0.019  0.00  0.00    +0.063 C 
BRANCH  10  14
ATOM     11  C   LIG    1        1.156   3.165   0.008  0.00  0.00    +0.000 A 
ATOM     12  C   LIG    1        1.175   1.783   0.000  0.00  0.00    +0.000 A 
ATOM     13  C   LIG    1       -0.013   1.076   0.008  0.00  0.00    +0.004 A 
ATOM     14  C   LIG    1       -1.219   1.751   0.017  0.00  0.00    -0.045 A 
ATOM     15  C   LIG    1       -1.238   3.133   0.030  0.00  0.00    +0.004 A 
ATOM     16  C   LIG    1       -0.050   3.840   0.022  0.00  0.00    +0.000 A 
ENDBRANCH  10  14
ENDBRANCH   1  10
TORSDOF 4
