REMARK  Name = ZINC49089610
REMARK                            x       y       z     vdW  Elec       q    Type
REMARK                         _______ _______ _______ _____ _____    ______ ____
ROOT
ATOM      1  C   LIG    1        2.497  -2.491  -4.370  0.00  0.00    +0.121 C 
ATOM      2  N   LIG    1        2.611  -3.777  -4.569  0.00  0.00    -0.177 NA
ATOM      3  N   LIG    1        3.288  -4.047  -5.758  0.00  0.00    -0.201 N 
ATOM      4  H   LIG    1        3.481  -4.935  -6.096  0.00  0.00    +0.178 HD
ATOM      5  C   LIG    1        3.637  -2.897  -6.370  0.00  0.00    +0.285 C 
ATOM      6  O   LIG    1        4.237  -2.783  -7.425  0.00  0.00    -0.267 OA
ATOM      7  C   LIG    1        3.141  -1.809  -5.512  0.00  0.00    +0.172 C 
ATOM      8  N   LIG    1        3.249  -0.510  -5.717  0.00  0.00    -0.175 NA
ENDROOT
BRANCH   1  12
ATOM      9  C   LIG    1        0.606  -0.607  -1.056  0.00  0.00    +0.162 A 
ATOM     10  C   LIG    1        1.172   0.163  -2.061  0.00  0.00    +0.050 A 
ATOM     11  C   LIG    1        1.786  -0.446  -3.137  0.00  0.00    +0.014 A 
ATOM     12  C   LIG    1        1.839  -1.837  -3.215  0.00  0.00    +0.008 A 
ATOM     13  C   LIG    1        1.270  -2.612  -2.204  0.00  0.00    +0.059 A 
ATOM     14  C   LIG    1        0.660  -1.997  -1.126  0.00  0.00    +0.162 A 
BRANCH   9  16
ATOM     15  C   LIG    1       -0.017   1.425   0.010  0.00  0.00    +0.277 C 
ATOM     16  O   LIG    1        0.002  -0.004   0.002  0.00  0.00    -0.491 OA
ENDBRANCH   9  16
BRANCH  14  17
ATOM     17  O   LIG    1        0.109  -2.750  -0.136  0.00  0.00    -0.491 OA
ATOM     18  C   LIG    1        0.201  -4.170  -0.273  0.00  0.00    +0.277 C 
ENDBRANCH  14  17
ENDBRANCH   1  12
BRANCH   8  19
ATOM     19  N   LIG    1        3.845  -0.071  -6.773  0.00  0.00    -0.236 N 
ATOM     20  H   LIG    1        4.214  -0.696  -7.417  0.00  0.00    +0.174 HD
BRANCH  19  21
ATOM     21  C   LIG    1        3.960   1.302  -6.990  0.00  0.00    +0.067 A 
ATOM     22  C   LIG    1        3.437   2.199  -6.066  0.00  0.00    +0.026 A 
ATOM     23  C   LIG    1        3.552   3.558  -6.283  0.00  0.00    +0.002 A 
ATOM     24  C   LIG    1        4.186   4.027  -7.419  0.00  0.00    +0.002 A 
ATOM     25  C   LIG    1        4.708   3.139  -8.342  0.00  0.00    +0.022 A 
ATOM     26  C   LIG    1        4.602   1.777  -8.128  0.00  0.00    +0.063 A 
ATOM     27 CL   LIG    1        5.264   0.662  -9.282  0.00  0.00    -0.082 Cl
ENDBRANCH  19  21
ENDBRANCH   8  19
TORSDOF 5
