REMARK  Name = ZINC16047498
REMARK                            x       y       z     vdW  Elec       q    Type
REMARK                         _______ _______ _______ _____ _____    ______ ____
ROOT
ATOM      1  C   LIG    1        7.772   5.082  -0.050  0.00  0.00    +0.059 A 
ATOM      2  C   LIG    1        8.452   5.760   0.906  0.00  0.00    +0.072 A 
ATOM      3  S   LIG    1        8.118   7.446   0.419  0.00  0.00    -0.060 S 
ATOM      4  C   LIG    1        7.137   7.091  -0.969  0.00  0.00    +0.166 A 
ATOM      5  N   LIG    1        7.131   5.772  -0.974  0.00  0.00    -0.229 NA
ENDROOT
BRANCH   4   6
ATOM      6  N   LIG    1        6.521   7.970  -1.851  0.00  0.00    -0.248 N 
ATOM      7  H   LIG    1        5.996   7.627  -2.591  0.00  0.00    +0.158 HD
ATOM      8  C   LIG    1        6.651   9.300  -1.678  0.00  0.00    +0.310 C 
ATOM      9  N   LIG    1        6.054  10.153  -2.534  0.00  0.00    -0.269 N 
ATOM     10  H   LIG    1        5.585   9.811  -3.311  0.00  0.00    +0.156 HD
ATOM     11  O   LIG    1        7.308   9.731  -0.750  0.00  0.00    -0.252 OA
BRANCH   9  12
ATOM     12  C   LIG    1        6.108  11.532  -2.300  0.00  0.00    +0.036 A 
ATOM     13  C   LIG    1        5.028  12.338  -2.636  0.00  0.00    +0.023 A 
ATOM     14  C   LIG    1        5.083  13.697  -2.400  0.00  0.00    +0.003 A 
ATOM     15  C   LIG    1        6.215  14.259  -1.839  0.00  0.00    +0.020 A 
ATOM     16  C   LIG    1        7.295  13.460  -1.507  0.00  0.00    +0.043 A 
ATOM     17 CL   LIG    1        8.715  14.168  -0.803  0.00  0.00    -0.083 Cl
ATOM     18  C   LIG    1        7.244  12.097  -1.736  0.00  0.00    +0.043 A 
ENDBRANCH   9  12
ENDBRANCH   4   6
BRANCH   1  19
ATOM     19  C   LIG    1        7.754   3.575  -0.062  0.00  0.00    +0.152 C 
BRANCH  19  22
ATOM     20  N   LIG    1        6.065   1.768  -0.070  0.00  0.00    -0.264 N 
ATOM     21  H   LIG    1        6.794   1.129  -0.078  0.00  0.00    +0.157 HD
ATOM     22  C   LIG    1        6.327   3.090  -0.061  0.00  0.00    +0.224 C 
ATOM     23  O   LIG    1        5.415   3.889  -0.051  0.00  0.00    -0.275 OA
BRANCH  20  31
ATOM     24  C   LIG    1       -1.259  -0.819  -0.064  0.00  0.00    +0.044 C 
ATOM     25  C   LIG    1        0.028  -0.035  -0.063  0.00  0.00    -0.049 A 
ATOM     26  C   LIG    1        0.003   1.352  -0.051  0.00  0.00    +0.005 A 
ATOM     27  C   LIG    1        1.159   2.089  -0.049  0.00  0.00    +0.029 A 
ATOM     28  C   LIG    1        2.421   1.452  -0.059  0.00  0.00    +0.080 A 
ATOM     29  C   LIG    1        2.408   0.038  -0.071  0.00  0.00    +0.041 A 
ATOM     30  S   LIG    1        4.140  -0.357  -0.081  0.00  0.00    -0.052 S 
ATOM     31  C   LIG    1        4.753   1.322  -0.069  0.00  0.00    +0.165 A 
ATOM     32  N   LIG    1        3.644   2.025  -0.059  0.00  0.00    -0.225 NA
ATOM     33  C   LIG    1        1.245  -0.691  -0.072  0.00  0.00    +0.020 A 
ENDBRANCH  20  31
ENDBRANCH  19  22
ENDBRANCH   1  19
TORSDOF 5
