REMARK  Name = ZINC38732932
REMARK                            x       y       z     vdW  Elec       q    Type
REMARK                         _______ _______ _______ _____ _____    ______ ____
ROOT
ATOM      1  C   LIG    1       -0.017   1.388   0.010  0.00  0.00    +0.043 A 
ATOM      2  C   LIG    1        1.142   2.107   0.003  0.00  0.00    +0.068 A 
ATOM      3 CL   LIG    1        1.090   3.842   0.012  0.00  0.00    -0.081 Cl
ATOM      4  C   LIG    1        2.378   1.440  -0.013  0.00  0.00    +0.094 A 
ATOM      5  C   LIG    1        2.395   0.024  -0.021  0.00  0.00    +0.064 A 
ATOM      6  C   LIG    1        1.185  -0.686  -0.013  0.00  0.00    +0.072 A 
ATOM      7 CL   LIG    1        1.192  -2.422  -0.023  0.00  0.00    -0.081 Cl
ATOM      8  C   LIG    1        3.638  -0.648  -0.036  0.00  0.00    +0.143 A 
ATOM      9  C   LIG    1        4.803   0.132  -0.043  0.00  0.00    +0.119 A 
ATOM     10  C   LIG    1        4.692   1.534  -0.035  0.00  0.00    +0.130 A 
ATOM     11  N   LIG    1        3.528   2.129  -0.021  0.00  0.00    -0.252 NA
ATOM     12  C   LIG    1        0.002  -0.004   0.002  0.00  0.00    +0.061 A 
ATOM     13 CL   LIG    1       -1.495  -0.883   0.012  0.00  0.00    -0.082 Cl
ENDROOT
BRANCH   8  14
ATOM     14  O   LIG    1        3.701  -1.998  -0.044  0.00  0.00    -0.505 OA
ATOM     15  H   LIG    1        3.711  -2.387  -0.929  0.00  0.00    +0.292 HD
ENDBRANCH   8  14
BRANCH   9  16
ATOM     16  C   LIG    1        6.125  -0.508  -0.059  0.00  0.00    +0.342 C 
ATOM     17  O   LIG    1        7.138   0.178  -0.065  0.00  0.00    -0.245 OA
BRANCH  16  18
ATOM     18  O   LIG    1        6.214  -1.729  -0.066  0.00  0.00    -0.477 OA
ATOM     19  H   LIG    1        5.438  -2.255  -0.061  0.00  0.00    +0.295 HD
ENDBRANCH  16  18
ENDBRANCH   9  16
TORSDOF 3
