REMARK  Name = ZINC34285235
REMARK                            x       y       z     vdW  Elec       q    Type
REMARK                         _______ _______ _______ _____ _____    ______ ____
ROOT
ATOM      1  C   LIG    1        3.755  -2.502   6.306  0.00  0.00    +0.238 C 
ENDROOT
BRANCH   1   2
ATOM      2  C   LIG    1        4.329  -1.546   7.319  0.00  0.00    +0.180 A 
ATOM      3  N   LIG    1        5.534  -1.032   7.301  0.00  0.00    -0.130 NA
ATOM      4  N   LIG    1        5.702  -0.254   8.313  0.00  0.00    -0.128 NA
ATOM      5  C   LIG    1        4.594  -0.234   9.037  0.00  0.00    +0.178 A 
ATOM      6  C   LIG    1        4.217   0.426  10.221  0.00  0.00    +0.052 A 
ATOM      7  C   LIG    1        2.963   0.240  10.712  0.00  0.00    +0.034 A 
ATOM      8  C   LIG    1        2.062  -0.616  10.045  0.00  0.00    +0.092 A 
ATOM      9  N   LIG    1        2.415  -1.236   8.941  0.00  0.00    -0.163 NA
ATOM     10  N   LIG    1        3.693  -1.059   8.407  0.00  0.00    -0.194 N 
BRANCH   8  11
ATOM     11  C   LIG    1        0.699  -0.818  10.595  0.00  0.00    +0.002 A 
ATOM     12  C   LIG    1        0.311  -0.162  11.761  0.00  0.00    +0.010 A 
ATOM     13  C   LIG    1       -0.958  -0.353  12.269  0.00  0.00    +0.001 A 
ATOM     14  C   LIG    1       -1.845  -1.194  11.621  0.00  0.00    +0.000 A 
ATOM     15  C   LIG    1       -1.466  -1.849  10.463  0.00  0.00    +0.001 A 
ATOM     16  C   LIG    1       -0.201  -1.661   9.944  0.00  0.00    +0.010 A 
ENDBRANCH   8  11
ENDBRANCH   1   2
BRANCH   1  17
ATOM     17  O   LIG    1        3.124  -1.764   5.258  0.00  0.00    -0.368 OA
BRANCH  17  22
ATOM     18  C   LIG    1        0.625  -0.618   1.041  0.00  0.00    +0.119 C 
ATOM     19  C   LIG    1        1.203   0.154   2.054  0.00  0.00    +0.032 C 
ATOM     20  C   LIG    1        1.833  -0.437   3.105  0.00  0.00    +0.010 C 
ATOM     21  C   LIG    1        1.906  -1.836   3.179  0.00  0.00    +0.035 C 
ATOM     22  C   LIG    1        2.553  -2.480   4.258  0.00  0.00    +0.125 C 
ATOM     23  C   LIG    1        2.585  -3.863   4.264  0.00  0.00    +0.047 C 
ATOM     24  C   LIG    1        1.991  -4.570   3.226  0.00  0.00    +0.083 C 
ATOM     25  N   LIG    1        1.394  -3.962   2.228  0.00  0.00    -0.313 NA
ATOM     26  H   LIG    1        0.992  -4.493   1.523  0.00  0.00    +0.122 HD
ATOM     27  C   LIG    1        1.325  -2.627   2.159  0.00  0.00    +0.062 C 
ATOM     28  C   LIG    1        0.676  -1.992   1.087  0.00  0.00    +0.050 C 
BRANCH  18  30
ATOM     29  C   LIG    1       -0.017   1.425   0.010  0.00  0.00    +0.194 C 
ATOM     30  O   LIG    1        0.002  -0.004   0.002  0.00  0.00    -0.380 OA
ENDBRANCH  18  30
ENDBRANCH  17  22
ENDBRANCH   1  17
TORSDOF 5
