REMARK  Name = ZINC38212689
REMARK                            x       y       z     vdW  Elec       q    Type
REMARK                         _______ _______ _______ _____ _____    ______ ____
ROOT
ATOM      1  C   LIG    1       -0.017   1.367   0.010  0.00  0.00    +0.131 A 
ATOM      2  C   LIG    1        1.148   2.051   0.002  0.00  0.00    +0.203 A 
ATOM      3  F   LIG    1        1.149   3.402   0.009  0.00  0.00    -0.198 F 
ATOM      4  C   LIG    1        2.369   1.332  -0.013  0.00  0.00    +0.289 A 
ATOM      5  N   LIG    1        2.344  -0.016  -0.020  0.00  0.00    -0.273 N 
ATOM      6  C   LIG    1        1.169  -0.673  -0.013  0.00  0.00    +0.327 A 
ATOM      7  O   LIG    1        1.163  -1.889  -0.019  0.00  0.00    -0.247 OA
ATOM      8  H   LIG    1        3.176  -0.515  -0.031  0.00  0.00    +0.174 HD
ATOM      9  O   LIG    1        3.432   1.926  -0.020  0.00  0.00    -0.265 OA
ATOM     10  N   LIG    1        0.002  -0.004   0.002  0.00  0.00    -0.312 N 
ATOM     11  H   LIG    1       -0.834  -0.496   0.008  0.00  0.00    +0.170 HD
ENDROOT
TORSDOF 0
