REMARK  Name = ZINC13759786
REMARK                            x       y       z     vdW  Elec       q    Type
REMARK                         _______ _______ _______ _____ _____    ______ ____
ROOT
ATOM      1  C   LIG    1        1.275   6.247   0.414  0.00  0.00    -0.067 C 
ATOM      2  C   LIG    1        0.129   5.648  -0.410  0.00  0.00    -0.011 C 
ATOM      3  C   LIG    1       -0.073   4.199   0.027  0.00  0.00    +0.037 C 
ATOM      4  C   LIG    1        1.234   3.451   0.003  0.00  0.00    -0.003 A 
ATOM      5  C   LIG    1        2.453   4.089  -0.006  0.00  0.00    -0.042 A 
ATOM      6  C   LIG    1        3.623   3.340  -0.018  0.00  0.00    +0.004 A 
ATOM      7  C   LIG    1        3.575   1.961  -0.022  0.00  0.00    +0.004 A 
ATOM      8  C   LIG    1        2.354   1.315  -0.013  0.00  0.00    +0.046 A 
ATOM      9  C   LIG    1        1.185   2.058   0.002  0.00  0.00    +0.124 A 
ATOM     10  C   LIG    1        2.581   5.590  -0.018  0.00  0.00    +0.020 C 
ENDROOT
BRANCH   1  11
ATOM     11  N   LIG    1        1.343   7.700   0.174  0.00  0.00    +0.381 N 
ATOM     12  H   LIG    1        0.393   8.067   0.043  0.00  0.00    -0.086 HD
ATOM     13  H   LIG    1        1.898   7.878  -0.671  0.00  0.00    -0.086 HD
BRANCH  11  15
ATOM     14  C   LIG    1        2.029   9.884   1.045  0.00  0.00    -0.017 C 
ATOM     15  C   LIG    1        1.973   8.380   1.322  0.00  0.00    -0.086 C 
ENDBRANCH  11  15
ENDBRANCH   1  11
BRANCH   9  16
ATOM     16  O   LIG    1       -0.017   1.425   0.010  0.00  0.00    -0.495 OA
ATOM     17  C   LIG    1        0.002  -0.004   0.002  0.00  0.00    +0.277 C 
ENDBRANCH   9  16
TORSDOF 3
