REMARK  Name = ZINC14976376
REMARK                            x       y       z     vdW  Elec       q    Type
REMARK                         _______ _______ _______ _____ _____    ______ ____
ROOT
ATOM      1  C   LIG    1        3.678   2.040  -0.023  0.00  0.00    +0.119 A 
ATOM      2  C   LIG    1        4.959   1.518   0.460  0.00  0.00    +0.033 A 
ATOM      3  C   LIG    1        5.889   2.520   0.256  0.00  0.00    +0.048 A 
ATOM      4  N   LIG    1        5.261   3.566  -0.302  0.00  0.00    -0.267 N 
ATOM      5  C   LIG    1        6.204   4.671  -0.553  0.00  0.00    +0.144 C 
ATOM      6  C   LIG    1        7.442   4.366   0.316  0.00  0.00    +0.029 C 
ATOM      7  C   LIG    1        7.359   2.828   0.449  0.00  0.00    +0.057 C 
ATOM      8  N   LIG    1        3.901   3.253  -0.469  0.00  0.00    -0.169 NA
ENDROOT
BRANCH   2   9
ATOM      9  C   LIG    1        5.206   0.188   1.046  0.00  0.00    -0.004 A 
ATOM     10  C   LIG    1        5.561  -0.899   0.233  0.00  0.00    +0.027 A 
ATOM     11  C   LIG    1        5.787  -2.120   0.780  0.00  0.00    +0.083 A 
ATOM     12  N   LIG    1        5.681  -2.334   2.106  0.00  0.00    -0.361 N 
ATOM     13  H   LIG    1        5.872  -3.335   2.519  0.00  0.00    +0.165 HD
ATOM     14  C   LIG    1        5.337  -1.313   2.961  0.00  0.00    +0.050 A 
ATOM     15  C   LIG    1        5.228  -1.534   4.324  0.00  0.00    +0.071 A 
ATOM     16  C   LIG    1        4.876  -0.479   5.168  0.00  0.00    +0.119 A 
ATOM     17  C   LIG    1        4.633   0.804   4.640  0.00  0.00    +0.046 A 
ATOM     18  C   LIG    1        4.738   1.030   3.305  0.00  0.00    +0.014 A 
ATOM     19  O   LIG    1        4.769  -0.687   6.481  0.00  0.00    -0.507 OA
ATOM     20  H   LIG    1        4.517   0.067   7.088  0.00  0.00    +0.292 HD
ATOM     21  C   LIG    1        5.097  -0.019   2.443  0.00  0.00    +0.006 A 
ENDBRANCH   2   9
BRANCH   1  26
ATOM     22  C   LIG    1       -0.017   1.384   0.010  0.00  0.00    +0.004 A 
ATOM     23  C   LIG    1        0.002  -0.004   0.002  0.00  0.00    +0.020 A 
ATOM     24  C   LIG    1        1.216  -0.666  -0.013  0.00  0.00    +0.111 A 
ATOM     25  N   LIG    1        2.351   0.003  -0.020  0.00  0.00    -0.253 NA
ATOM     26  C   LIG    1        2.377   1.330  -0.013  0.00  0.00    +0.091 A 
ATOM     27  C   LIG    1        1.190   2.061   0.002  0.00  0.00    +0.030 A 
ENDBRANCH   1  26
TORSDOF 2
