REMARK  Name = ZINC22112695
REMARK                            x       y       z     vdW  Elec       q    Type
REMARK                         _______ _______ _______ _____ _____    ______ ____
ROOT
ATOM      1  C   LIG    1        0.848  -0.509   1.173  0.00  0.00    +0.106 C 
ENDROOT
BRANCH   1   2
ATOM      2  O   LIG    1        0.220  -0.146   2.405  0.00  0.00    -0.393 OA
ATOM      3  H   LIG    1        0.685  -0.426   3.362  0.00  0.00    +0.210 HD
ENDBRANCH   1   2
BRANCH   1   4
ATOM      4  C   LIG    1        0.002  -0.004   0.002  0.00  0.00    +0.126 C 
BRANCH   4   6
ATOM      5  C   LIG    1       -0.904   2.423  -1.465  0.00  0.00    +0.111 C 
ATOM      6  P   LIG    1       -0.023   1.819   0.012  0.00  0.00    +0.202 P 
ATOM      7  O   LIG    1        1.366   2.331   0.002  0.00  0.00    -0.291 OA
BRANCH   6   8
ATOM      8  O   LIG    1       -0.776   2.338   1.337  0.00  0.00    -0.344 OA
ATOM      9  H   LIG    1       -0.789   3.308   1.342  0.00  0.00    +0.218 HD
ENDBRANCH   6   8
ENDBRANCH   4   6
ENDBRANCH   1   4
BRANCH   1  10
ATOM     10  C   LIG    1        0.972  -2.032   1.093  0.00  0.00    -0.054 C 
BRANCH  10  11
ATOM     11  N   LIG    1        1.783  -2.517   2.217  0.00  0.00    +0.380 N 
ATOM     12  H   LIG    1        2.785  -2.064   2.168  0.00  0.00    -0.090 HD
ATOM     13  H   LIG    1        1.301  -2.238   3.165  0.00  0.00    -0.090 HD
ATOM     14  H   LIG    1        1.873  -3.612   2.160  0.00  0.00    -0.090 HD
ENDBRANCH  10  11
ENDBRANCH   1  10
TORSDOF 6
