REMARK  Name = ZINC19702600
REMARK                            x       y       z     vdW  Elec       q    Type
REMARK                         _______ _______ _______ _____ _____    ______ ____
ROOT
ATOM      1  C   LIG    1        1.220  -0.645   0.011  0.00  0.00    +0.021 A 
ATOM      2  C   LIG    1        0.296  -0.001  -0.794  0.00  0.00    +0.024 A 
ATOM      3  C   LIG    1        0.283   1.398  -0.803  0.00  0.00    +0.092 A 
ATOM      4  C   LIG    1        1.206   2.088   0.002  0.00  0.00    +0.139 A 
ATOM      5  N   LIG    1        2.069   1.422   0.752  0.00  0.00    -0.239 NA
ATOM      6  C   LIG    1        2.096   0.103   0.775  0.00  0.00    +0.113 A 
ENDROOT
BRANCH   4   7
ATOM      7  N   LIG    1        1.212   3.473   0.009  0.00  0.00    -0.318 N 
ATOM      8  C   LIG    1        0.366   3.997   1.089  0.00  0.00    +0.087 C 
ATOM      9  C   LIG    1        0.336   5.526   1.014  0.00  0.00    -0.063 C 
ATOM     10  N   LIG    1        1.707   6.045   1.123  0.00  0.00    +0.381 N 
ATOM     11  H   LIG    1        2.137   5.743   2.089  0.00  0.00    -0.086 HD
ATOM     12  H   LIG    1        1.689   7.143   1.057  0.00  0.00    -0.086 HD
ATOM     13  C   LIG    1        2.554   5.521   0.043  0.00  0.00    -0.063 C 
ATOM     14  C   LIG    1        2.583   3.992   0.118  0.00  0.00    +0.087 C 
ENDBRANCH   4   7
BRANCH   3  15
ATOM     15  C   LIG    1       -0.648   2.113  -1.622  0.00  0.00    +0.103 C 
ATOM     16  N   LIG    1       -1.388   2.681  -2.272  0.00  0.00    -0.191 NA
ENDBRANCH   3  15
TORSDOF 2
