REMARK  Name = ZINC40424136
REMARK                            x       y       z     vdW  Elec       q    Type
REMARK                         _______ _______ _______ _____ _____    ______ ____
ROOT
ATOM      1  N   LIG    1        2.899  -2.207   1.678  0.00  0.00    -0.327 N 
ATOM      2  C   LIG    1        2.051  -3.361   1.345  0.00  0.00    +0.120 C 
ATOM      3  C   LIG    1        0.584  -2.947   1.497  0.00  0.00    +0.103 C 
ATOM      4  N   LIG    1        0.373  -2.389   2.840  0.00  0.00    -0.299 NA
ATOM      5  C   LIG    1        1.164  -1.167   3.039  0.00  0.00    +0.103 C 
ATOM      6  C   LIG    1        2.659  -1.512   2.952  0.00  0.00    +0.120 C 
ENDROOT
BRANCH   1  12
ATOM      7  C   LIG    1        5.162  -2.408   0.839  0.00  0.00    +0.003 A 
ATOM      8  C   LIG    1        6.161  -1.983  -0.034  0.00  0.00    +0.010 A 
ATOM      9  C   LIG    1        5.913  -0.950  -0.915  0.00  0.00    +0.001 A 
ATOM     10  C   LIG    1        4.674  -0.333  -0.936  0.00  0.00    +0.002 A 
ATOM     11  C   LIG    1        3.675  -0.745  -0.076  0.00  0.00    +0.024 A 
ATOM     12  C   LIG    1        3.908  -1.786   0.812  0.00  0.00    +0.038 A 
BRANCH   7  16
ATOM     13  C   LIG    1        5.913  -5.588   3.558  0.00  0.00    +0.000 A 
ATOM     14  C   LIG    1        6.096  -5.785   2.201  0.00  0.00    +0.001 A 
ATOM     15  C   LIG    1        5.853  -4.756   1.314  0.00  0.00    +0.008 A 
ATOM     16  C   LIG    1        5.423  -3.517   1.788  0.00  0.00    -0.016 A 
ATOM     17  C   LIG    1        5.241  -3.325   3.156  0.00  0.00    +0.008 A 
ATOM     18  C   LIG    1        5.486  -4.361   4.034  0.00  0.00    +0.001 A 
ENDBRANCH   7  16
ENDBRANCH   1  12
BRANCH   4  19
ATOM     19  C   LIG    1       -1.053  -2.139   3.088  0.00  0.00    +0.084 C 
BRANCH  19  20
ATOM     20  C   LIG    1       -1.262  -1.798   4.565  0.00  0.00    +0.015 C 
BRANCH  20  21
ATOM     21  C   LIG    1       -2.747  -1.538   4.823  0.00  0.00    +0.002 C 
BRANCH  21  22
ATOM     22  C   LIG    1       -2.956  -1.197   6.300  0.00  0.00    +0.009 C 
BRANCH  22  23
ATOM     23  C   LIG    1       -4.441  -0.936   6.559  0.00  0.00    +0.096 C 
BRANCH  23  24
ATOM     24  C   LIG    1       -4.646  -0.601   8.013  0.00  0.00    +0.213 C 
ATOM     25  N   LIG    1       -5.884  -0.332   8.475  0.00  0.00    -0.311 N 
ATOM     26  H   LIG    1       -6.642  -0.354   7.870  0.00  0.00    +0.149 HD
ATOM     27  O   LIG    1       -3.698  -0.573   8.769  0.00  0.00    -0.276 OA
BRANCH  25  28
ATOM     28  C   LIG    1       -6.083  -0.005   9.889  0.00  0.00    +0.139 C 
BRANCH  28  29
ATOM     29  C   LIG    1       -7.546   0.252  10.143  0.00  0.00    -0.030 A 
ATOM     30  C   LIG    1       -8.055   1.531  10.008  0.00  0.00    +0.006 A 
ATOM     31  C   LIG    1       -9.393   1.773  10.240  0.00  0.00    +0.019 A 
ATOM     32  C   LIG    1      -10.235   0.723  10.611  0.00  0.00    +0.052 A 
ATOM     33  C   LIG    1       -9.716  -0.566  10.745  0.00  0.00    +0.019 A 
ATOM     34  C   LIG    1       -8.376  -0.795  10.505  0.00  0.00    +0.006 A 
BRANCH  32  35
ATOM     35  C   LIG    1      -11.625   0.967  10.853  0.00  0.00    +0.099 C 
ATOM     36  N   LIG    1      -12.728   1.161  11.046  0.00  0.00    -0.191 NA
ENDBRANCH  32  35
ENDBRANCH  28  29
ENDBRANCH  25  28
ENDBRANCH  23  24
ENDBRANCH  22  23
ENDBRANCH  21  22
ENDBRANCH  20  21
ENDBRANCH  19  20
ENDBRANCH   4  19
TORSDOF 11
