REMARK  Name = ZINC00007335
REMARK                            x       y       z     vdW  Elec       q    Type
REMARK                         _______ _______ _______ _____ _____    ______ ____
ROOT
ATOM      1  C   LIG    1        0.020   1.079   2.492  0.00  0.00    +0.016 C 
ENDROOT
BRANCH   1   2
ATOM      2  C   LIG    1       -0.664   1.692   3.686  0.00  0.00    +0.201 C 
ATOM      3  N   LIG    1       -0.469   2.992   3.981  0.00  0.00    -0.303 N 
ATOM      4  C   LIG    1        0.468   3.895   3.296  0.00  0.00    +0.108 C 
ATOM      5  C   LIG    1        0.368   5.271   3.988  0.00  0.00    +0.020 C 
ATOM      6  C   LIG    1       -0.196   4.912   5.389  0.00  0.00    +0.020 C 
ATOM      7  C   LIG    1       -1.153   3.743   5.049  0.00  0.00    +0.108 C 
ATOM      8  O   LIG    1       -1.391   1.015   4.382  0.00  0.00    -0.277 OA
ENDBRANCH   1   2
BRANCH   1   9
ATOM      9  N   LIG    1        0.401  -0.316   2.776  0.00  0.00    +0.386 N 
ATOM     10  H   LIG    1        0.835  -0.725   1.940  0.00  0.00    -0.089 HD
ATOM     11  H   LIG    1       -0.424  -0.860   3.022  0.00  0.00    -0.089 HD
ATOM     12  H   LIG    1        1.068  -0.346   3.545  0.00  0.00    -0.089 HD
ENDBRANCH   1   9
BRANCH   1  14
ATOM     13  C   LIG    1       -0.215   0.534   0.065  0.00  0.00    +0.006 C 
ATOM     14  C   LIG    1       -0.930   1.100   1.293  0.00  0.00    -0.023 C 
ATOM     15  C   LIG    1       -1.364   2.540   1.012  0.00  0.00    +0.006 C 
ENDBRANCH   1  14
TORSDOF 3
