REMARK  Name = ZINC27518641
REMARK                            x       y       z     vdW  Elec       q    Type
REMARK                         _______ _______ _______ _____ _____    ______ ____
ROOT
ATOM      1  C   LIG    1        0.119  -0.346  -0.876  0.00  0.00    -0.021 C 
ATOM      2  C   LIG    1        0.045   0.327  -2.026  0.00  0.00    -0.021 C 
ATOM      3  C   LIG    1        0.020  -0.642  -3.195  0.00  0.00    +0.032 C 
ATOM      4  C   LIG    1       -0.513  -1.960  -2.546  0.00  0.00    +0.007 C 
ATOM      5  C   LIG    1       -2.036  -1.813  -2.479  0.00  0.00    +0.001 C 
ATOM      6  C   LIG    1       -2.605  -2.209  -3.849  0.00  0.00    +0.031 C 
ATOM      7  C   LIG    1       -4.102  -2.234  -3.795  0.00  0.00    -0.027 C 
ATOM      8  C   LIG    1       -4.777  -2.366  -2.698  0.00  0.00    -0.065 C 
ATOM      9  C   LIG    1       -4.128  -2.525  -1.293  0.00  0.00    -0.008 C 
ATOM     10  C   LIG    1       -4.742  -3.748  -0.610  0.00  0.00    +0.016 C 
ATOM     11  C   LIG    1       -4.447  -1.305  -0.433  0.00  0.00    +0.014 C 
ATOM     12  C   LIG    1       -5.781  -0.696  -0.862  0.00  0.00    +0.032 C 
ATOM     13  C   LIG    1       -6.758  -1.777  -1.319  0.00  0.00    +0.119 C 
ATOM     14  C   LIG    1       -6.296  -2.354  -2.743  0.00  0.00    +0.062 C 
ATOM     15  C   LIG    1       -2.622  -2.742  -1.394  0.00  0.00    +0.003 C 
ATOM     16  C   LIG    1       -1.999  -2.395  -0.034  0.00  0.00    +0.005 C 
ATOM     17  C   LIG    1       -0.498  -2.664  -0.098  0.00  0.00    +0.012 C 
ATOM     18  C   LIG    1        0.159  -1.823  -1.165  0.00  0.00    -0.002 C 
ATOM     19  C   LIG    1        1.621  -2.257  -1.285  0.00  0.00    +0.016 C 
ENDROOT
BRANCH   1  21
ATOM     20  C   LIG    1        0.113   1.759   0.613  0.00  0.00    +0.069 C 
ATOM     21  C   LIG    1        0.161   0.260   0.462  0.00  0.00    +0.080 C 
ATOM     22  N   LIG    1        0.239  -0.494   1.512  0.00  0.00    -0.092 NA
BRANCH  22  23
ATOM     23  O   LIG    1        0.279   0.089   2.802  0.00  0.00    -0.409 OA
ATOM     24  H   LIG    1        0.337  -0.553   3.522  0.00  0.00    +0.328 HD
ENDBRANCH  22  23
ENDBRANCH   1  21
BRANCH  13  25
ATOM     25  O   LIG    1       -6.802  -2.822  -0.345  0.00  0.00    -0.391 OA
ATOM     26  H   LIG    1       -7.471  -3.497  -0.523  0.00  0.00    +0.210 HD
ENDBRANCH  13  25
TORSDOF 3
