REMARK  Name = ZINC30691727
REMARK                            x       y       z     vdW  Elec       q    Type
REMARK                         _______ _______ _______ _____ _____    ______ ____
ROOT
ATOM      1  N   LIG    1       -1.919   2.390  -0.820  0.00  0.00    +0.383 N 
ATOM      2  C   LIG    1       -0.758   1.595  -1.228  0.00  0.00    -0.075 C 
ATOM      3  C   LIG    1       -0.013   1.086   0.008  0.00  0.00    -0.011 C 
ATOM      4  C   LIG    1       -0.736   1.583   1.266  0.00  0.00    +0.025 C 
ATOM      5  C   LIG    1       -0.777   3.117   1.227  0.00  0.00    +0.164 C 
ATOM      6  C   LIG    1       -2.179   1.063   1.232  0.00  0.00    -0.011 C 
ATOM      7  C   LIG    1       -1.497   3.562  -0.048  0.00  0.00    -0.030 C 
ATOM      8  C   LIG    1       -2.858   1.574  -0.048  0.00  0.00    -0.075 C 
ENDROOT
BRANCH   1   9
ATOM      9  C   LIG    1       -2.611   2.856  -2.030  0.00  0.00    -0.072 C 
BRANCH   9  10
ATOM     10  C   LIG    1       -1.657   3.713  -2.865  0.00  0.00    +0.023 C 
BRANCH  10  11
ATOM     11  C   LIG    1       -2.378   4.198  -4.125  0.00  0.00    +0.227 C 
BRANCH  11  12
ATOM     12  O   LIG    1       -1.487   4.998  -4.905  0.00  0.00    -0.492 OA
BRANCH  12  16
ATOM     13  C   LIG    1       -2.966   6.555  -8.427  0.00  0.00    +0.000 A 
ATOM     14  C   LIG    1       -1.661   6.817  -8.051  0.00  0.00    +0.004 A 
ATOM     15  C   LIG    1       -1.164   6.297  -6.872  0.00  0.00    +0.045 A 
ATOM     16  C   LIG    1       -1.974   5.511  -6.065  0.00  0.00    +0.120 A 
ATOM     17  C   LIG    1       -3.281   5.244  -6.448  0.00  0.00    +0.045 A 
ATOM     18  C   LIG    1       -3.775   5.772  -7.625  0.00  0.00    +0.004 A 
ENDBRANCH  12  16
ENDBRANCH  11  12
ENDBRANCH  10  11
ENDBRANCH   9  10
ENDBRANCH   1   9
BRANCH   5  19
ATOM     19  O   LIG    1        0.579   3.637   1.226  0.00  0.00    -0.460 OA
BRANCH  19  20
ATOM     20  C   LIG    1        0.769   4.843   1.784  0.00  0.00    +0.350 C 
ATOM     21  O   LIG    1       -0.166   5.444   2.258  0.00  0.00    -0.247 OA
BRANCH  20  22
ATOM     22  C   LIG    1        2.150   5.447   1.821  0.00  0.00    +0.226 C 
BRANCH  22  23
ATOM     23  C   LIG    1        2.240   6.424   2.964  0.00  0.00    +0.037 A 
ATOM     24  C   LIG    1        2.608   6.202   4.250  0.00  0.00    +0.015 A 
ATOM     25  C   LIG    1        2.622   7.263   5.136  0.00  0.00    +0.008 A 
ATOM     26  C   LIG    1        2.256   8.491   4.696  0.00  0.00    +0.045 A 
ATOM     27  S   LIG    1        1.883   8.173   2.979  0.00  0.00    -0.098 S 
ENDBRANCH  22  23
BRANCH  22  28
ATOM     28  C   LIG    1        2.418   6.165   0.523  0.00  0.00    +0.037 A 
ATOM     29  C   LIG    1        2.973   5.688  -0.617  0.00  0.00    +0.015 A 
ATOM     30  C   LIG    1        3.120   6.538  -1.698  0.00  0.00    +0.008 A 
ATOM     31  C   LIG    1        2.714   7.826  -1.581  0.00  0.00    +0.045 A 
ATOM     32  S   LIG    1        2.094   7.867   0.093  0.00  0.00    -0.098 S 
ENDBRANCH  22  28
BRANCH  22  33
ATOM     33  O   LIG    1        3.118   4.411   2.001  0.00  0.00    -0.369 OA
ATOM     34  H   LIG    1        4.188   4.662   2.052  0.00  0.00    +0.212 HD
ENDBRANCH  22  33
ENDBRANCH  20  22
ENDBRANCH  19  20
ENDBRANCH   5  19
TORSDOF 11
