REMARK  Name = ZINC26440248
REMARK                            x       y       z     vdW  Elec       q    Type
REMARK                         _______ _______ _______ _____ _____    ______ ____
ROOT
ATOM      1  N   LIG    1        4.631   0.029  -0.946  0.00  0.00    -0.310 N 
ATOM      2  H   LIG    1        4.726  -0.282  -1.860  0.00  0.00    +0.149 HD
ENDROOT
BRANCH   1   3
ATOM      3  C   LIG    1        5.335   1.129  -0.517  0.00  0.00    +0.172 A 
ATOM      4  N   LIG    1        5.283   1.634   0.714  0.00  0.00    -0.328 N 
ATOM      5  C   LIG    1        6.114   2.722   0.771  0.00  0.00    +0.065 A 
ATOM      6  C   LIG    1        6.454   3.623   1.776  0.00  0.00    +0.028 A 
ATOM      7  C   LIG    1        7.346   4.639   1.512  0.00  0.00    +0.002 A 
ATOM      8  C   LIG    1        7.908   4.772   0.251  0.00  0.00    +0.002 A 
ATOM      9  C   LIG    1        7.582   3.889  -0.756  0.00  0.00    +0.028 A 
ATOM     10  C   LIG    1        6.684   2.856  -0.506  0.00  0.00    +0.065 A 
ATOM     11  H   LIG    1        4.748   1.290   1.446  0.00  0.00    +0.169 HD
ATOM     12  N   LIG    1        6.172   1.840  -1.269  0.00  0.00    -0.328 N 
ATOM     13  H   LIG    1        6.382   1.668  -2.200  0.00  0.00    +0.169 HD
ENDBRANCH   1   3
BRANCH   1  22
ATOM     14  C   LIG    1       -0.017   1.375   0.010  0.00  0.00    +0.000 A 
ATOM     15  C   LIG    1        1.174   2.078   0.002  0.00  0.00    +0.000 A 
ATOM     16  C   LIG    1        2.372   1.395  -0.010  0.00  0.00    +0.006 A 
ATOM     17  C   LIG    1        2.393   0.006  -0.017  0.00  0.00    -0.024 A 
ATOM     18  C   LIG    1        1.208  -0.694  -0.015  0.00  0.00    -0.042 A 
ATOM     19  C   LIG    1        1.155  -2.199  -0.038  0.00  0.00    +0.035 C 
ATOM     20  C   LIG    1        2.501  -2.790   0.375  0.00  0.00    +0.007 C 
ATOM     21  C   LIG    1        3.599  -2.130  -0.467  0.00  0.00    +0.027 C 
ATOM     22  C   LIG    1        3.737  -0.675  -0.023  0.00  0.00    +0.104 C 
ATOM     23  C   LIG    1        0.002  -0.004   0.002  0.00  0.00    +0.004 A 
ENDBRANCH   1  22
TORSDOF 2
