REMARK  Name = ZINC36176209
REMARK                            x       y       z     vdW  Elec       q    Type
REMARK                         _______ _______ _______ _____ _____    ______ ____
ROOT
ATOM      1  C   LIG    1        3.644  -2.007   0.059  0.00  0.00    +0.203 C 
ATOM      2  C   LIG    1        4.866  -2.681   0.149  0.00  0.00    +0.151 C 
ENDROOT
BRANCH   1   3
ATOM      3  N   LIG    1        3.621  -0.650  -0.036  0.00  0.00    -0.285 N 
ATOM      4  H   LIG    1        4.451  -0.156  -0.124  0.00  0.00    +0.155 HD
BRANCH   3   8
ATOM      5  C   LIG    1       -0.014   1.382   0.049  0.00  0.00    +0.000 A 
ATOM      6  C   LIG    1        0.146   0.224   0.788  0.00  0.00    +0.002 A 
ATOM      7  C   LIG    1        1.350  -0.452   0.761  0.00  0.00    +0.023 A 
ATOM      8  C   LIG    1        2.401   0.032  -0.008  0.00  0.00    +0.034 A 
ATOM      9  C   LIG    1        2.236   1.195  -0.749  0.00  0.00    +0.023 A 
ATOM     10  C   LIG    1        1.029   1.867  -0.718  0.00  0.00    +0.002 A 
ENDBRANCH   3   8
ENDBRANCH   1   3
BRANCH   2  11
ATOM     11  C   LIG    1        4.890  -4.086   0.247  0.00  0.00    +0.181 C 
ATOM     12  O   LIG    1        3.849  -4.713   0.254  0.00  0.00    -0.291 OA
BRANCH  11  13
ATOM     13  C   LIG    1        6.207  -4.812   0.344  0.00  0.00    +0.061 C 
ATOM     14  C   LIG    1        6.381  -6.076  -0.501  0.00  0.00    +0.012 C 
ATOM     15  C   LIG    1        6.209  -6.187   1.015  0.00  0.00    +0.012 C 
ENDBRANCH  11  13
ENDBRANCH   2  11
BRANCH   2  16
ATOM     16  C   LIG    1        6.093  -1.942   0.140  0.00  0.00    +0.108 C 
ATOM     17  N   LIG    1        7.066  -1.357   0.133  0.00  0.00    -0.191 NA
ENDBRANCH   2  16
BRANCH   1  18
ATOM     18  O   LIG    1        2.491  -2.701   0.067  0.00  0.00    -0.494 OA
ATOM     19  H   LIG    1        1.672  -2.250   0.007  0.00  0.00    +0.294 HD
ENDBRANCH   1  18
TORSDOF 6
