REMARK  Name = ZINC13826999
REMARK                            x       y       z     vdW  Elec       q    Type
REMARK                         _______ _______ _______ _____ _____    ______ ____
ROOT
ATOM      1  N   LIG    1       -1.398  -3.998  -1.228  0.00  0.00    -0.276 N 
ATOM      2  C   LIG    1       -1.377  -4.746  -0.060  0.00  0.00    +0.169 A 
ATOM      3  C   LIG    1       -1.374  -4.079   1.162  0.00  0.00    +0.149 A 
ATOM      4  N   LIG    1       -1.351  -5.054   2.142  0.00  0.00    -0.333 N 
ATOM      5  C   LIG    1       -1.341  -6.258   1.498  0.00  0.00    +0.134 A 
ATOM      6  H   LIG    1       -1.344  -4.905   3.131  0.00  0.00    +0.168 HD
ATOM      7  C   LIG    1       -1.393  -2.669   1.175  0.00  0.00    +0.282 A 
ATOM      8  N   LIG    1       -1.413  -1.998   0.005  0.00  0.00    -0.259 N 
ATOM      9  O   LIG    1       -1.391  -2.063   2.232  0.00  0.00    -0.265 OA
ATOM     10  N   LIG    1       -1.356  -6.053   0.192  0.00  0.00    -0.210 NA
ATOM     11  C   LIG    1       -1.421  -2.654  -1.169  0.00  0.00    +0.334 A 
ATOM     12  O   LIG    1       -1.445  -2.015  -2.203  0.00  0.00    -0.246 OA
ENDROOT
BRANCH   5  13
ATOM     13  C   LIG    1       -1.317  -7.569   2.151  0.00  0.00    +0.047 C 
ATOM     14  C   LIG    1       -1.308  -8.692   1.407  0.00  0.00    +0.011 C 
BRANCH  14  15
ATOM     15  C   LIG    1       -1.284 -10.010   2.063  0.00  0.00    -0.022 A 
ATOM     16  C   LIG    1       -1.264 -10.100   3.459  0.00  0.00    +0.008 A 
ATOM     17  C   LIG    1       -1.247 -11.337   4.067  0.00  0.00    +0.003 A 
ATOM     18  C   LIG    1       -1.238 -12.489   3.301  0.00  0.00    +0.038 A 
ATOM     19  C   LIG    1       -1.252 -12.410   1.918  0.00  0.00    +0.124 A 
ATOM     20  F   LIG    1       -1.243 -13.540   1.177  0.00  0.00    -0.205 F 
ATOM     21  C   LIG    1       -1.275 -11.177   1.294  0.00  0.00    +0.046 A 
ENDBRANCH  14  15
ENDBRANCH   5  13
BRANCH   1  22
ATOM     22  C   LIG    1       -1.402  -4.673  -2.528  0.00  0.00    +0.128 C 
BRANCH  22  24
ATOM     23  C   LIG    1       -2.849  -5.632  -4.325  0.00  0.00    +0.005 C 
ATOM     24  C   LIG    1       -2.845  -4.928  -2.967  0.00  0.00    +0.018 C 
ENDBRANCH  22  24
ENDBRANCH   1  22
BRANCH   8  25
ATOM     25  C   LIG    1       -1.433  -0.534   0.013  0.00  0.00    +0.130 C 
BRANCH  25  26
ATOM     26  C   LIG    1        0.002  -0.004   0.002  0.00  0.00    +0.018 C 
ATOM     27  C   LIG    1       -0.019   1.526   0.010  0.00  0.00    +0.005 C 
ENDBRANCH  25  26
ENDBRANCH   8  25
TORSDOF 6
