REMARK  Name = ZINC28824607
REMARK                            x       y       z     vdW  Elec       q    Type
REMARK                         _______ _______ _______ _____ _____    ______ ____
ROOT
ATOM      1  C   LIG    1       -2.429   0.968  -0.796  0.00  0.00    +0.140 A 
ATOM      2  N   LIG    1       -3.651   1.559  -0.604  0.00  0.00    -0.323 N 
ATOM      3  C   LIG    1       -4.560   0.551  -0.357  0.00  0.00    +0.160 A 
ATOM      4  N   LIG    1       -5.862   0.536  -0.113  0.00  0.00    -0.234 NA
ATOM      5  C   LIG    1       -6.519  -0.590   0.083  0.00  0.00    +0.135 A 
ATOM      6  C   LIG    1       -5.874  -1.814   0.067  0.00  0.00    +0.082 A 
ATOM      7 CL   LIG    1       -6.765  -3.276   0.351  0.00  0.00    -0.080 Cl
ATOM      8  C   LIG    1       -4.505  -1.862  -0.178  0.00  0.00    +0.079 A 
ATOM      9  C   LIG    1       -3.831  -0.649  -0.402  0.00  0.00    +0.131 A 
ATOM     10  H   LIG    1       -3.748   2.653  -0.663  0.00  0.00    +0.169 HD
ATOM     11  N   LIG    1       -2.542  -0.332  -0.672  0.00  0.00    -0.224 NA
ENDROOT
BRANCH   8  12
ATOM     12  N   LIG    1       -3.824  -3.076  -0.201  0.00  0.00    -0.331 N 
ATOM     13  C   LIG    1       -4.313  -3.933  -1.290  0.00  0.00    +0.086 C 
ATOM     14  C   LIG    1       -3.487  -5.221  -1.331  0.00  0.00    -0.059 C 
ATOM     15  N   LIG    1       -3.590  -5.908  -0.036  0.00  0.00    +0.387 N 
ATOM     16  H   LIG    1       -4.653  -6.122   0.151  0.00  0.00    -0.081 HD
ATOM     17  C   LIG    1       -3.101  -5.051   1.052  0.00  0.00    -0.059 C 
ATOM     18  C   LIG    1       -3.927  -3.763   1.094  0.00  0.00    +0.086 C 
BRANCH  15  19
ATOM     19  C   LIG    1       -2.871  -7.189  -0.061  0.00  0.00    +0.019 C 
BRANCH  19  20
ATOM     20  C   LIG    1       -3.202  -7.975   1.182  0.00  0.00    +0.202 C 
ATOM     21  N   LIG    1       -2.559  -9.131   1.439  0.00  0.00    -0.266 N 
ATOM     22  H   LIG    1       -1.793  -9.501   0.742  0.00  0.00    +0.157 HD
ATOM     23  O   LIG    1       -4.047  -7.567   1.950  0.00  0.00    -0.277 OA
BRANCH  21  24
ATOM     24  C   LIG    1       -2.864  -9.856   2.585  0.00  0.00    +0.164 A 
ATOM     25  N   LIG    1       -3.737  -9.577   3.534  0.00  0.00    -0.233 NA
ATOM     26  C   LIG    1       -3.908 -10.384   4.563  0.00  0.00    +0.120 A 
ATOM     27  C   LIG    1       -3.154 -11.508   4.635  0.00  0.00    +0.068 A 
ATOM     28  S   LIG    1       -2.188 -11.356   3.139  0.00  0.00    -0.061 S 
ENDBRANCH  21  24
ENDBRANCH  19  20
ENDBRANCH  15  19
ENDBRANCH   8  12
BRANCH   1  32
ATOM     29  C   LIG    1        1.179   3.037  -1.667  0.00  0.00    +0.029 A 
ATOM     30  C   LIG    1        1.183   1.651  -1.555  0.00  0.00    +0.024 A 
ATOM     31  C   LIG    1        0.016   0.978  -1.268  0.00  0.00    +0.013 A 
ATOM     32  C   LIG    1       -1.174   1.688  -1.097  0.00  0.00    +0.017 A 
ATOM     33  C   LIG    1       -1.174   3.080  -1.205  0.00  0.00    +0.013 A 
ATOM     34  C   LIG    1       -0.004   3.748  -1.492  0.00  0.00    +0.024 A 
BRANCH  29  36
ATOM     35  C   LIG    1        3.608   2.969  -2.142  0.00  0.00    +0.129 C 
ATOM     36  N   LIG    1        2.361   3.716  -1.957  0.00  0.00    -0.336 N 
ATOM     37  C   LIG    1        2.358   5.176  -2.075  0.00  0.00    +0.129 C 
ENDBRANCH  29  36
ENDBRANCH   1  32
TORSDOF 6
