REMARK  Name = ZINC27626564
REMARK                            x       y       z     vdW  Elec       q    Type
REMARK                         _______ _______ _______ _____ _____    ______ ____
ROOT
ATOM      1  C   LIG    1       -1.390   9.521  -3.765  0.00  0.00    +0.077 C 
ATOM      2  C   LIG    1       -0.157   9.151  -2.941  0.00  0.00    +0.122 C 
ATOM      3  N   LIG    1       -0.129   7.696  -2.747  0.00  0.00    -0.266 N 
ATOM      4  C   LIG    1       -0.110   7.174  -1.504  0.00  0.00    +0.403 C 
ATOM      5  O   LIG    1       -0.111   7.909  -0.536  0.00  0.00    -0.226 OA
ATOM      6  C   LIG    1       -0.128   6.815  -3.922  0.00  0.00    +0.118 C 
ATOM      7  C   LIG    1       -1.367   7.125  -4.772  0.00  0.00    +0.093 C 
ATOM      8  C   LIG    1       -1.442   8.622  -4.981  0.00  0.00    +0.140 C 
ATOM      9  O   LIG    1       -1.539   9.087  -6.091  0.00  0.00    -0.297 OA
ENDROOT
BRANCH   1  10
ATOM     10  C   LIG    1       -1.296  10.982  -4.209  0.00  0.00    +0.047 C 
BRANCH  10  14
ATOM     11  C   LIG    1       -4.876  12.078  -6.266  0.00  0.00    +0.000 A 
ATOM     12  C   LIG    1       -4.786  12.247  -4.897  0.00  0.00    +0.000 A 
ATOM     13  C   LIG    1       -3.628  11.893  -4.232  0.00  0.00    +0.003 A 
ATOM     14  C   LIG    1       -2.559  11.369  -4.935  0.00  0.00    -0.047 A 
ATOM     15  C   LIG    1       -2.647  11.205  -6.305  0.00  0.00    +0.003 A 
ATOM     16  C   LIG    1       -3.807  11.556  -6.970  0.00  0.00    +0.000 A 
ENDBRANCH  10  14
ENDBRANCH   1  10
BRANCH   4  17
ATOM     17  O   LIG    1       -0.090   5.838  -1.335  0.00  0.00    -0.445 OA
BRANCH  17  18
ATOM     18  C   LIG    1       -0.070   5.347   0.031  0.00  0.00    +0.269 C 
BRANCH  18  19
ATOM     19  C   LIG    1       -0.050   3.840   0.023  0.00  0.00    -0.010 A 
ATOM     20  C   LIG    1        1.156   3.165   0.008  0.00  0.00    +0.007 A 
ATOM     21  C   LIG    1        1.175   1.783   0.000  0.00  0.00    +0.000 A 
ATOM     22  C   LIG    1       -0.013   1.076   0.008  0.00  0.00    +0.000 A 
ATOM     23  C   LIG    1       -1.219   1.751   0.017  0.00  0.00    +0.000 A 
ATOM     24  C   LIG    1       -1.238   3.133   0.030  0.00  0.00    +0.007 A 
ENDBRANCH  18  19
ENDBRANCH  17  18
ENDBRANCH   4  17
TORSDOF 5
