REMARK  Name = ZINC16194447
REMARK                            x       y       z     vdW  Elec       q    Type
REMARK                         _______ _______ _______ _____ _____    ______ ____
ROOT
ATOM      1  C   LIG    1       -1.264   3.075   0.187  0.00  0.00    +0.148 A 
ATOM      2  C   LIG    1       -1.214   1.732  -0.166  0.00  0.00    +0.061 A 
ATOM      3 BR   LIG    1       -2.812   0.798  -0.556  0.00  0.00    -0.046 Br
ATOM      4  C   LIG    1       -0.004   1.077  -0.229  0.00  0.00    +0.027 A 
ATOM      5  C   LIG    1        1.179   1.771   0.055  0.00  0.00    -0.022 A 
ATOM      6  C   LIG    1        1.124   3.126   0.405  0.00  0.00    +0.027 A 
ATOM      7  C   LIG    1       -0.092   3.769   0.469  0.00  0.00    +0.061 A 
ATOM      8 BR   LIG    1       -0.169   5.598   0.943  0.00  0.00    -0.046 Br
ENDROOT
BRANCH   5   9
ATOM      9  C   LIG    1        2.473   1.081  -0.016  0.00  0.00    +0.028 C 
ATOM     10  C   LIG    1        2.545  -0.177  -0.520  0.00  0.00    +0.080 C 
ATOM     11  C   LIG    1        3.686  -1.113  -0.556  0.00  0.00    +0.258 C 
ATOM     12  N   LIG    1        3.467  -2.293  -1.114  0.00  0.00    -0.243 N 
ATOM     13  H   LIG    1        4.190  -2.938  -1.155  0.00  0.00    +0.159 HD
ATOM     14  C   LIG    1        2.265  -2.615  -1.631  0.00  0.00    +0.283 C 
ATOM     15  O   LIG    1        1.929  -3.652  -2.172  0.00  0.00    -0.262 OA
ATOM     16  O   LIG    1        4.771  -0.816  -0.093  0.00  0.00    -0.269 OA
ATOM     17  S   LIG    1        1.285  -1.154  -1.329  0.00  0.00    -0.026 S 
ENDBRANCH   5   9
BRANCH   1  19
ATOM     18  C   LIG    1       -2.928   4.341  -0.944  0.00  0.00    +0.277 C 
ATOM     19  O   LIG    1       -2.461   3.714   0.252  0.00  0.00    -0.493 OA
ENDBRANCH   1  19
TORSDOF 2
