REMARK  Name = ZINC28766266
REMARK                            x       y       z     vdW  Elec       q    Type
REMARK                         _______ _______ _______ _____ _____    ______ ____
ROOT
ATOM      1  C   LIG    1       -3.131   0.316   7.498  0.00  0.00    +0.055 C 
ENDROOT
BRANCH   1   2
ATOM      2  C   LIG    1       -3.014   1.819   7.239  0.00  0.00    +0.137 C 
BRANCH   2   3
ATOM      3  O   LIG    1       -4.205   2.287   6.601  0.00  0.00    -0.390 OA
ATOM      4  H   LIG    1       -4.412   1.832   5.774  0.00  0.00    +0.210 HD
ENDBRANCH   2   3
BRANCH   2   5
ATOM      5  C   LIG    1       -1.812   2.088   6.332  0.00  0.00    +0.106 C 
BRANCH   5   7
ATOM      6  C   LIG    1       -0.919   1.043   4.320  0.00  0.00    +0.251 C 
ATOM      7  N   LIG    1       -1.993   1.385   5.059  0.00  0.00    -0.307 N 
ATOM      8  H   LIG    1       -2.885   1.166   4.749  0.00  0.00    +0.149 HD
ATOM      9  O   LIG    1        0.197   1.317   4.708  0.00  0.00    -0.272 OA
BRANCH   6  10
ATOM     10  C   LIG    1       -1.105   0.320   3.011  0.00  0.00    +0.324 C 
BRANCH  10  11
ATOM     11  O   LIG    1        0.171   0.069   2.419  0.00  0.00    -0.482 OA
BRANCH  11  19
ATOM     12  C   LIG    1        0.056   1.646   0.078  0.00  0.00    +0.047 C 
ATOM     13  C   LIG    1        0.127   0.141   0.041  0.00  0.00    -0.009 A 
ATOM     14  C   LIG    1        0.143  -0.521  -1.171  0.00  0.00    +0.007 A 
ATOM     15  C   LIG    1        0.208  -1.902  -1.205  0.00  0.00    +0.001 A 
ATOM     16  C   LIG    1        0.256  -2.623  -0.026  0.00  0.00    +0.007 A 
ATOM     17  C   LIG    1        0.240  -1.966   1.188  0.00  0.00    -0.009 A 
ATOM     18  C   LIG    1        0.292  -2.753   2.473  0.00  0.00    +0.047 C 
ATOM     19  C   LIG    1        0.181  -0.580   1.225  0.00  0.00    +0.127 A 
ENDBRANCH  11  19
ENDBRANCH  10  11
ENDBRANCH   6  10
ENDBRANCH   5   7
BRANCH   5  20
ATOM     20  C   LIG    1       -1.695   3.591   6.072  0.00  0.00    +0.060 C 
BRANCH  20  21
ATOM     21  C   LIG    1       -0.442   3.869   5.281  0.00  0.00    -0.046 A 
ATOM     22  C   LIG    1        0.749   4.119   5.938  0.00  0.00    +0.004 A 
ATOM     23  C   LIG    1        1.898   4.373   5.213  0.00  0.00    +0.000 A 
ATOM     24  C   LIG    1        1.857   4.377   3.831  0.00  0.00    +0.000 A 
ATOM     25  C   LIG    1        0.666   4.126   3.175  0.00  0.00    +0.000 A 
ATOM     26  C   LIG    1       -0.482   3.867   3.900  0.00  0.00    +0.004 A 
ENDBRANCH  20  21
ENDBRANCH   5  20
ENDBRANCH   2   5
ENDBRANCH   1   2
BRANCH   1  27
ATOM     27  C   LIG    1       -4.209   0.064   8.554  0.00  0.00    +0.080 C 
BRANCH  27  28
ATOM     28  N   LIG    1       -5.524   0.390   7.998  0.00  0.00    -0.311 N 
ATOM     29  H   LIG    1       -5.717   0.201   7.066  0.00  0.00    +0.149 HD
ATOM     30  C   LIG    1       -6.466   0.954   8.780  0.00  0.00    +0.234 C 
ATOM     31  O   LIG    1       -6.199   1.266   9.921  0.00  0.00    -0.274 OA
BRANCH  30  32
ATOM     32  C   LIG    1       -7.851   1.196   8.236  0.00  0.00    +0.166 C 
BRANCH  32  33
ATOM     33  N   LIG    1       -8.735   1.620   9.325  0.00  0.00    -0.274 N 
ATOM     34  C   LIG    1       -9.912   0.812   9.648  0.00  0.00    +0.114 C 
ATOM     35  C   LIG    1      -11.003   1.722  10.224  0.00  0.00    +0.070 C 
ATOM     36  C   LIG    1      -10.424   2.478  11.424  0.00  0.00    +0.205 C 
ATOM     37  N   LIG    1       -9.219   3.195  11.005  0.00  0.00    -0.274 N 
ATOM     38  H   LIG    1       -8.972   4.015  11.459  0.00  0.00    +0.153 HD
ATOM     39  C   LIG    1       -8.446   2.737  10.008  0.00  0.00    +0.305 C 
ATOM     40  O   LIG    1       -7.448   3.363   9.710  0.00  0.00    -0.253 OA
BRANCH  36  41
ATOM     41  O   LIG    1      -11.390   3.411  11.912  0.00  0.00    -0.374 OA
ATOM     42  H   LIG    1      -11.090   3.926  12.673  0.00  0.00    +0.212 HD
ENDBRANCH  36  41
ENDBRANCH  32  33
BRANCH  32  43
ATOM     43  C   LIG    1       -7.795   2.290   7.168  0.00  0.00    +0.012 C 
ATOM     44  C   LIG    1       -9.218   2.668   6.752  0.00  0.00    +0.009 C 
ATOM     45  C   LIG    1       -7.027   1.775   5.950  0.00  0.00    +0.009 C 
ENDBRANCH  32  43
ENDBRANCH  30  32
ENDBRANCH  27  28
BRANCH  27  46
ATOM     46  C   LIG    1       -4.182  -1.409   8.969  0.00  0.00    +0.057 C 
BRANCH  46  47
ATOM     47  C   LIG    1       -5.158  -1.632  10.095  0.00  0.00    -0.046 A 
ATOM     48  C   LIG    1       -4.745  -1.490  11.406  0.00  0.00    +0.004 A 
ATOM     49  C   LIG    1       -5.641  -1.694  12.439  0.00  0.00    +0.000 A 
ATOM     50  C   LIG    1       -6.950  -2.041  12.160  0.00  0.00    +0.000 A 
ATOM     51  C   LIG    1       -7.363  -2.183  10.849  0.00  0.00    +0.000 A 
ATOM     52  C   LIG    1       -6.468  -1.974   9.816  0.00  0.00    +0.004 A 
ENDBRANCH  46  47
ENDBRANCH  27  46
ENDBRANCH   1  27
TORSDOF 17
