REMARK  Name = ZINC19371672
REMARK                            x       y       z     vdW  Elec       q    Type
REMARK                         _______ _______ _______ _____ _____    ______ ____
ROOT
ATOM      1  C   LIG    1       -6.086   0.036  -1.582  0.00  0.00    +0.117 C 
ENDROOT
BRANCH   1   2
ATOM      2  N   LIG    1       -7.133  -0.994  -1.541  0.00  0.00    -0.292 NA
ATOM      3  C   LIG    1       -8.444  -0.425  -1.883  0.00  0.00    +0.070 C 
ATOM      4  C   LIG    1       -9.494  -1.539  -1.887  0.00  0.00    -0.057 C 
ATOM      5  C   LIG    1      -10.864  -0.947  -2.224  0.00  0.00    -0.012 C 
ATOM      6  N   LIG    1       -9.545  -2.168  -0.561  0.00  0.00    +0.385 N 
ATOM      7  H   LIG    1       -9.780  -1.474   0.132  0.00  0.00    -0.081 HD
ATOM      8  C   LIG    1       -8.235  -2.752  -0.244  0.00  0.00    -0.059 C 
ATOM      9  C   LIG    1       -7.175  -1.649  -0.226  0.00  0.00    +0.038 C 
ATOM     10  C   LIG    1       -5.807  -2.260   0.083  0.00  0.00    +0.022 C 
BRANCH   6  11
ATOM     11  C   LIG    1      -10.565  -3.225  -0.560  0.00  0.00    -0.051 C 
BRANCH  11  12
ATOM     12  C   LIG    1      -10.704  -3.788   0.831  0.00  0.00    -0.053 C 
ATOM     13  C   LIG    1      -11.877  -3.811   1.414  0.00  0.00    +0.002 C 
ENDBRANCH  11  12
ENDBRANCH   6  11
ENDBRANCH   1   2
BRANCH   1  17
ATOM     14  C   LIG    1       -2.258  -1.837  -1.935  0.00  0.00    +0.037 A 
ATOM     15  C   LIG    1       -2.429  -0.749  -1.078  0.00  0.00    +0.013 A 
ATOM     16  C   LIG    1       -3.667  -0.149  -0.969  0.00  0.00    +0.006 A 
ATOM     17  C   LIG    1       -4.737  -0.624  -1.707  0.00  0.00    -0.026 A 
ATOM     18  C   LIG    1       -4.573  -1.702  -2.559  0.00  0.00    +0.006 A 
ATOM     19  C   LIG    1       -3.340  -2.307  -2.682  0.00  0.00    +0.013 A 
BRANCH  14  21
ATOM     20  N   LIG    1       -0.221  -2.773  -0.951  0.00  0.00    -0.298 N 
ATOM     21  C   LIG    1       -0.934  -2.484  -2.058  0.00  0.00    +0.247 C 
ATOM     22  O   LIG    1       -0.490  -2.756  -3.156  0.00  0.00    -0.270 OA
BRANCH  20  24
ATOM     23  C   LIG    1        1.013  -4.884  -0.976  0.00  0.00    +0.024 C 
ATOM     24  C   LIG    1        1.116  -3.361  -1.074  0.00  0.00    +0.104 C 
ENDBRANCH  20  24
BRANCH  20  25
ATOM     25  C   LIG    1       -0.781  -2.498   0.374  0.00  0.00    +0.104 C 
ATOM     26  C   LIG    1       -0.177  -1.204   0.925  0.00  0.00    +0.024 C 
ENDBRANCH  20  25
ENDBRANCH  14  21
ENDBRANCH   1  17
BRANCH   1  27
ATOM     27  C   LIG    1       -6.315   0.938  -2.768  0.00  0.00    -0.022 A 
ATOM     28  C   LIG    1       -6.444   0.397  -4.033  0.00  0.00    +0.006 A 
ATOM     29  C   LIG    1       -6.654   1.222  -5.123  0.00  0.00    +0.004 A 
ATOM     30  C   LIG    1       -6.736   2.590  -4.949  0.00  0.00    +0.045 A 
ATOM     31  C   LIG    1       -6.606   3.136  -3.680  0.00  0.00    +0.120 A 
ATOM     32  C   LIG    1       -6.402   2.305  -2.588  0.00  0.00    +0.051 A 
BRANCH  31  33
ATOM     33  O   LIG    1       -6.686   4.481  -3.507  0.00  0.00    -0.495 OA
ATOM     34  C   LIG    1       -6.904   5.274  -4.676  0.00  0.00    +0.277 C 
ENDBRANCH  31  33
ENDBRANCH   1  27
TORSDOF 9
