REMARK  Name = ZINC72105510
REMARK                            x       y       z     vdW  Elec       q    Type
REMARK                         _______ _______ _______ _____ _____    ______ ____
ROOT
ATOM      1  N   LIG    1        5.105   0.015   1.651  0.00  0.00    -0.297 NA
ATOM      2  C   LIG    1        5.991   1.022   2.247  0.00  0.00    +0.092 C 
ATOM      3  C   LIG    1        6.283   0.645   3.704  0.00  0.00    +0.090 C 
ATOM      4  C   LIG    1        6.812  -0.774   3.730  0.00  0.00    +0.140 C 
ATOM      5  C   LIG    1        6.039  -1.829   2.966  0.00  0.00    +0.081 C 
ATOM      6  O   LIG    1        7.816  -1.055   4.339  0.00  0.00    -0.297 OA
ATOM      7  C   LIG    1        5.763  -1.295   1.556  0.00  0.00    +0.096 C 
ENDROOT
BRANCH   1   8
ATOM      8  C   LIG    1        4.617   0.455   0.337  0.00  0.00    +0.119 C 
BRANCH   8  12
ATOM      9  C   LIG    1        2.134   3.897   0.819  0.00  0.00    +0.000 A 
ATOM     10  C   LIG    1        3.494   4.048   0.623  0.00  0.00    +0.000 A 
ATOM     11  C   LIG    1        4.297   2.934   0.467  0.00  0.00    +0.005 A 
ATOM     12  C   LIG    1        3.741   1.669   0.508  0.00  0.00    -0.033 A 
ATOM     13  C   LIG    1        2.381   1.518   0.705  0.00  0.00    +0.005 A 
ATOM     14  C   LIG    1        1.577   2.632   0.859  0.00  0.00    +0.000 A 
ENDBRANCH   8  12
ENDBRANCH   1   8
BRANCH   5  15
ATOM     15  C   LIG    1        6.867  -3.113   2.879  0.00  0.00    +0.060 C 
BRANCH  15  16
ATOM     16  C   LIG    1        6.094  -4.159   2.118  0.00  0.00    -0.039 A 
ATOM     17  C   LIG    1        4.798  -4.467   2.489  0.00  0.00    +0.004 A 
ATOM     18  C   LIG    1        4.089  -5.426   1.792  0.00  0.00    +0.000 A 
ATOM     19  C   LIG    1        4.675  -6.077   0.722  0.00  0.00    +0.000 A 
ATOM     20  C   LIG    1        5.970  -5.768   0.350  0.00  0.00    +0.000 A 
ATOM     21  C   LIG    1        6.678  -4.806   1.045  0.00  0.00    +0.004 A 
ENDBRANCH  15  16
BRANCH  15  22
ATOM     22  C   LIG    1        7.160  -3.617   4.269  0.00  0.00    -0.039 A 
ATOM     23  C   LIG    1        6.129  -3.787   5.174  0.00  0.00    +0.004 A 
ATOM     24  C   LIG    1        6.397  -4.250   6.448  0.00  0.00    +0.000 A 
ATOM     25  C   LIG    1        7.697  -4.541   6.818  0.00  0.00    +0.000 A 
ATOM     26  C   LIG    1        8.728  -4.372   5.913  0.00  0.00    +0.000 A 
ATOM     27  C   LIG    1        8.459  -3.913   4.637  0.00  0.00    +0.004 A 
ENDBRANCH  15  22
ENDBRANCH   5  15
TORSDOF 5
