REMARK  Name = ZINC17654900
REMARK                            x       y       z     vdW  Elec       q    Type
REMARK                         _______ _______ _______ _____ _____    ______ ____
ROOT
ATOM      1  CA  ILE A  4        4.685   0.945   1.611  0.00  0.00    +0.162 C 
ATOM      2  C   ILE A  4        3.898   1.105   0.338  0.00  0.00    +0.237 C 
ATOM      3  N   LYS A  1        3.267   2.238   0.005  0.00  0.00    -0.288 N 
ATOM      4  CE  LYS A  1        3.697   3.543   0.501  0.00  0.00    +0.108 C 
ATOM      5  CD  LYS A  1        4.120   4.409  -0.691  0.00  0.00    +0.019 C 
ATOM      6  CG  LYS A  1        3.693   3.740  -1.997  0.00  0.00    +0.004 C 
ATOM      7  CB  LYS A  1        2.223   3.314  -1.913  0.00  0.00    +0.032 C 
ATOM      8  CA  LYS A  1        2.102   2.164  -0.897  0.00  0.00    +0.162 C 
ATOM      9  C   LYS A  1        0.834   2.331  -0.120  0.00  0.00    +0.234 C 
ATOM     10  N   UNK A  2       -0.191   1.456  -0.034  0.00  0.00    -0.302 N 
ATOM     11  H   UNK A  2       -1.121   1.817   0.012  0.00  0.00    +0.150 HD
ATOM     12  C   UNK A  2        0.002  -0.004   0.002  0.00  0.00    +0.159 C 
ATOM     13  C   UNK A  2        1.010  -0.377   1.051  0.00  0.00    +0.234 C 
ATOM     14  N   UNK A  3        1.281  -1.696   1.283  0.00  0.00    -0.302 N 
ATOM     15  H   UNK A  3        0.848  -2.432   0.821  0.00  0.00    +0.150 HD
ATOM     16  C   UNK A  3        2.324  -1.912   2.331  0.00  0.00    +0.163 C 
ATOM     17  C   UNK A  3        3.549  -1.177   1.847  0.00  0.00    +0.234 C 
ATOM     18  O   UNK A  3        4.191  -1.673   0.941  0.00  0.00    -0.274 OA
ATOM     19  O   UNK A  2        1.555   0.489   1.705  0.00  0.00    -0.274 OA
ATOM     20  O   LYS A  1        0.712   3.386   0.514  0.00  0.00    -0.274 OA
ATOM     21  O   ILE A  4        3.839   0.176  -0.445  0.00  0.00    -0.274 OA
ATOM     22  N   ILE A  4        3.921  -0.015   2.448  0.00  0.00    -0.302 N 
ATOM     23  H   ILE A  4        3.694   0.179   3.385  0.00  0.00    +0.150 HD
ENDROOT
BRANCH   1  24
ATOM     24  CB  ILE A  4        6.098   0.445   1.327  0.00  0.00    +0.015 C 
ATOM     25  CG2 ILE A  4        6.838   1.468   0.464  0.00  0.00    +0.010 C 
BRANCH  24  27
ATOM     26  CD1 ILE A  4        8.219  -0.363   2.373  0.00  0.00    +0.004 C 
ATOM     27  CG1 ILE A  4        6.847   0.256   2.648  0.00  0.00    +0.002 C 
ENDBRANCH  24  27
ENDBRANCH   1  24
BRANCH  12  28
ATOM     28  C   UNK A  2        0.387  -0.570  -1.358  0.00  0.00    +0.032 C 
BRANCH  28  29
ATOM     29  C   UNK A  2       -0.746  -0.317  -2.355  0.00  0.00    +0.002 C 
BRANCH  29  30
ATOM     30  C   UNK A  2       -0.358  -0.885  -3.722  0.00  0.00    +0.000 C 
BRANCH  30  31
ATOM     31  C   UNK A  2       -1.491  -0.632  -4.719  0.00  0.00    +0.007 C 
BRANCH  31  32
ATOM     32  C   UNK A  2       -1.104  -1.200  -6.085  0.00  0.00    +0.074 C 
BRANCH  32  33
ATOM     33  C   UNK A  2       -2.220  -0.951  -7.067  0.00  0.00    +0.133 C 
ATOM     34  O   UNK A  2       -3.221  -0.378  -6.711  0.00  0.00    -0.297 OA
BRANCH  33  35
ATOM     35  C   UNK A  2       -2.086  -1.417  -8.494  0.00  0.00    +0.071 C 
ATOM     36  C   UNK A  2       -3.348  -1.042  -9.274  0.00  0.00    +0.012 C 
ENDBRANCH  33  35
ENDBRANCH  32  33
ENDBRANCH  31  32
ENDBRANCH  30  31
ENDBRANCH  29  30
ENDBRANCH  28  29
ENDBRANCH  12  28
BRANCH  16  37
ATOM     37  C   UNK A  3        2.631  -3.404   2.479  0.00  0.00    +0.069 C 
BRANCH  37  38
ATOM     38  C   UNK A  3        1.409  -4.119   2.995  0.00  0.00    -0.017 A 
ATOM     39  C   UNK A  3        1.136  -4.411   4.276  0.00  0.00    +0.133 A 
ATOM     40  N   UNK A  3       -0.063  -5.064   4.361  0.00  0.00    -0.190 N 
ATOM     41  C   UNK A  3       -0.606  -5.212   3.104  0.00  0.00    +0.088 A 
ATOM     42  C   UNK A  3       -1.780  -5.787   2.629  0.00  0.00    +0.030 A 
ATOM     43  C   UNK A  3       -2.055  -5.765   1.279  0.00  0.00    +0.002 A 
ATOM     44  C   UNK A  3       -1.167  -5.184   0.385  0.00  0.00    +0.001 A 
ATOM     45  C   UNK A  3       -0.006  -4.616   0.829  0.00  0.00    +0.010 A 
ATOM     46  C   UNK A  3        0.290  -4.621   2.193  0.00  0.00    +0.006 A 
BRANCH  40  47
ATOM     47  O   UNK A  3       -0.658  -5.520   5.562  0.00  0.00    -0.415 OA
ATOM     48  C   UNK A  3        0.110  -5.241   6.734  0.00  0.00    +0.311 C 
ENDBRANCH  40  47
ENDBRANCH  37  38
ENDBRANCH  16  37
TORSDOF 12
