REMARK  Name = ZINC19364230
REMARK                            x       y       z     vdW  Elec       q    Type
REMARK                         _______ _______ _______ _____ _____    ______ ____
ROOT
ATOM      1  N   LIG    1        4.168  -1.964   0.567  0.00  0.00    -0.295 NA
ATOM      2  C   LIG    1        3.188  -2.935   0.060  0.00  0.00    +0.067 C 
ATOM      3  C   LIG    1        3.073  -4.100   1.045  0.00  0.00    -0.063 C 
ATOM      4  N   LIG    1        4.386  -4.740   1.203  0.00  0.00    +0.383 N 
ATOM      5  H   LIG    1        4.706  -5.075   0.306  0.00  0.00    -0.082 HD
ATOM      6  C   LIG    1        5.348  -3.765   1.733  0.00  0.00    -0.063 C 
ATOM      7  C   LIG    1        5.482  -2.597   0.753  0.00  0.00    +0.067 C 
ENDROOT
BRANCH   1   8
ATOM      8  C   LIG    1        4.266  -0.801  -0.325  0.00  0.00    +0.117 C 
BRANCH   8   9
ATOM      9  C   LIG    1        2.918  -0.135  -0.432  0.00  0.00    -0.026 A 
ATOM     10  C   LIG    1        2.164   0.085   0.706  0.00  0.00    +0.007 A 
ATOM     11  C   LIG    1        0.928   0.695   0.608  0.00  0.00    +0.020 A 
ATOM     12  C   LIG    1        0.445   1.086  -0.628  0.00  0.00    +0.041 A 
ATOM     13 CL   LIG    1       -1.108   1.852  -0.752  0.00  0.00    -0.084 Cl
ATOM     14  C   LIG    1        1.201   0.866  -1.766  0.00  0.00    +0.020 A 
ATOM     15  C   LIG    1        2.439   0.261  -1.667  0.00  0.00    +0.007 A 
ENDBRANCH   8   9
BRANCH   8  19
ATOM     16  C   LIG    1        7.101   1.975   1.260  0.00  0.00    +0.000 A 
ATOM     17  C   LIG    1        7.130   1.648  -0.083  0.00  0.00    +0.000 A 
ATOM     18  C   LIG    1        6.213   0.750  -0.596  0.00  0.00    +0.005 A 
ATOM     19  C   LIG    1        5.267   0.178   0.234  0.00  0.00    -0.026 A 
ATOM     20  C   LIG    1        5.238   0.504   1.577  0.00  0.00    +0.005 A 
ATOM     21  C   LIG    1        6.154   1.404   2.090  0.00  0.00    +0.000 A 
ENDBRANCH   8  19
ENDBRANCH   1   8
BRANCH   4  22
ATOM     22  C   LIG    1        4.271  -5.870   2.135  0.00  0.00    -0.050 C 
BRANCH  22  23
ATOM     23  C   LIG    1        3.395  -6.959   1.511  0.00  0.00    +0.142 C 
BRANCH  23  24
ATOM     24  O   LIG    1        4.034  -7.470   0.338  0.00  0.00    -0.370 OA
BRANCH  24  25
ATOM     25  C   LIG    1        3.295  -8.498  -0.325  0.00  0.00    +0.279 C 
BRANCH  25  26
ATOM     26  C   LIG    1        4.057  -8.960  -1.540  0.00  0.00    +0.331 C 
ATOM     27  O   LIG    1        5.133  -8.455  -1.813  0.00  0.00    -0.248 OA
BRANCH  26  28
ATOM     28  O   LIG    1        3.598  -9.838  -2.250  0.00  0.00    -0.479 OA
ATOM     29  H   LIG    1        2.771 -10.225  -2.040  0.00  0.00    +0.295 HD
ENDBRANCH  26  28
ENDBRANCH  25  26
ENDBRANCH  24  25
ENDBRANCH  23  24
ENDBRANCH  22  23
ENDBRANCH   4  22
TORSDOF 9
