REMARK  Name = ZINC43203373
REMARK                            x       y       z     vdW  Elec       q    Type
REMARK                         _______ _______ _______ _____ _____    ______ ____
ROOT
ATOM      1  C   LIG    1       -1.433  -0.534   0.013  0.00  0.00    +0.099 C 
ATOM      2  C   LIG    1       -2.185  -0.123  -1.255  0.00  0.00    +0.033 C 
ATOM      3  C   LIG    1       -1.469  -2.044   0.219  0.00  0.00    +0.235 C 
ATOM      4  N   LIG    1       -2.083  -2.391   1.322  0.00  0.00    -0.267 N 
ATOM      5  H   LIG    1       -2.148  -3.336   1.527  0.00  0.00    +0.157 HD
ATOM      6  C   LIG    1       -2.619  -1.535   2.173  0.00  0.00    +0.127 C 
ATOM      7  O   LIG    1       -0.978  -2.841  -0.557  0.00  0.00    -0.274 OA
ATOM      8  S   LIG    1       -2.333  -0.007   1.529  0.00  0.00    -0.079 S 
ENDROOT
BRANCH   1  10
ATOM      9  C   LIG    1       -0.019   1.526   0.010  0.00  0.00    +0.009 C 
ATOM     10  C   LIG    1        0.002  -0.004   0.002  0.00  0.00    +0.008 C 
ATOM     11  C   LIG    1        0.742  -0.511   1.242  0.00  0.00    +0.009 C 
ENDBRANCH   1  10
BRANCH   6  12
ATOM     12  N   LIG    1       -3.270  -1.830   3.335  0.00  0.00    -0.324 N 
ATOM     13  H   LIG    1       -3.626  -1.115   3.886  0.00  0.00    +0.148 HD
BRANCH  12  14
ATOM     14  C   LIG    1       -3.431  -3.225   3.750  0.00  0.00    +0.075 C 
ATOM     15  C   LIG    1       -2.212  -3.684   4.583  0.00  0.00    +0.026 C 
ATOM     16  C   LIG    1       -2.805  -4.060   5.975  0.00  0.00    -0.009 C 
ATOM     17  C   LIG    1       -3.600  -5.377   5.718  0.00  0.00    +0.004 C 
ATOM     18  C   LIG    1       -4.822  -4.937   4.879  0.00  0.00    +0.005 C 
ATOM     19  C   LIG    1       -3.967  -3.012   6.088  0.00  0.00    +0.009 C 
ATOM     20  C   LIG    1       -4.647  -3.368   4.716  0.00  0.00    +0.010 C 
ENDBRANCH  12  14
ENDBRANCH   6  12
TORSDOF 3
