REMARK  Name = ZINC45358308
REMARK                            x       y       z     vdW  Elec       q    Type
REMARK                         _______ _______ _______ _____ _____    ______ ____
ROOT
ATOM      1  C   LIG    1        6.165   2.645   2.863  0.00  0.00    +0.010 C 
ATOM      2  C   LIG    1        5.695   3.760   3.800  0.00  0.00    +0.015 C 
ATOM      3  C   LIG    1        5.968   5.119   3.147  0.00  0.00    +0.105 C 
ATOM      4  N   LIG    1        7.391   5.193   2.788  0.00  0.00    -0.315 N 
ATOM      5  C   LIG    1        7.968   4.122   1.964  0.00  0.00    +0.105 C 
ATOM      6  C   LIG    1        7.672   2.775   2.630  0.00  0.00    +0.015 C 
ENDROOT
BRANCH   4   7
ATOM      7  C   LIG    1        8.172   6.252   3.216  0.00  0.00    +0.134 A 
ATOM      8  C   LIG    1        8.292   7.416   2.442  0.00  0.00    +0.059 A 
ATOM      9  C   LIG    1        7.756   7.867   1.159  0.00  0.00    +0.032 A 
ATOM     10  C   LIG    1        8.243   9.101   0.947  0.00  0.00    +0.085 A 
ATOM     11  N   LIG    1        9.048   9.469   1.994  0.00  0.00    -0.346 N 
ATOM     12  H   LIG    1        9.512  10.317   2.067  0.00  0.00    +0.167 HD
ATOM     13  C   LIG    1        9.098   8.465   2.921  0.00  0.00    +0.143 A 
ATOM     14  N   LIG    1        9.716   8.309   4.092  0.00  0.00    -0.218 NA
ATOM     15  C   LIG    1        9.574   7.200   4.784  0.00  0.00    +0.225 A 
ATOM     16  N   LIG    1        8.823   6.194   4.374  0.00  0.00    -0.220 NA
ENDBRANCH   4   7
BRANCH   1  19
ATOM     17  N   LIG    1        4.193   2.267   1.419  0.00  0.00    -0.312 N 
ATOM     18  H   LIG    1        3.760   1.841   2.175  0.00  0.00    +0.149 HD
ATOM     19  C   LIG    1        5.441   2.758   1.546  0.00  0.00    +0.202 C 
ATOM     20  O   LIG    1        5.983   3.290   0.600  0.00  0.00    -0.277 OA
BRANCH  17  21
ATOM     21  C   LIG    1        3.490   2.376   0.138  0.00  0.00    +0.142 C 
BRANCH  21  24
ATOM     22  C   LIG    1       -0.252   1.992   0.461  0.00  0.00    +0.039 A 
ATOM     23  C   LIG    1        1.003   2.560   0.348  0.00  0.00    +0.011 A 
ATOM     24  C   LIG    1        2.122   1.755   0.262  0.00  0.00    +0.005 A 
ATOM     25  C   LIG    1        1.988   0.377   0.288  0.00  0.00    +0.131 A 
ATOM     26  F   LIG    1        3.082  -0.411   0.203  0.00  0.00    -0.205 F 
ATOM     27  C   LIG    1        0.732  -0.194   0.402  0.00  0.00    +0.077 A 
ATOM     28  C   LIG    1       -0.389   0.614   0.488  0.00  0.00    +0.126 A 
ATOM     29  F   LIG    1       -1.616   0.059   0.599  0.00  0.00    -0.205 F 
ENDBRANCH  21  24
ENDBRANCH  17  21
ENDBRANCH   1  19
BRANCH   1  30
ATOM     30  N   LIG    1        5.874   1.340   3.472  0.00  0.00    +0.388 N 
ATOM     31  H   LIG    1        4.880   1.255   3.625  0.00  0.00    -0.089 HD
ATOM     32  H   LIG    1        6.358   1.265   4.354  0.00  0.00    -0.089 HD
ATOM     33  H   LIG    1        6.183   0.605   2.854  0.00  0.00    -0.089 HD
ENDBRANCH   1  30
TORSDOF 5
