REMARK  Name = ZINC24671770
REMARK                            x       y       z     vdW  Elec       q    Type
REMARK                         _______ _______ _______ _____ _____    ______ ____
ROOT
ATOM      1  N   LIG    1        0.978  -0.335  -1.257  0.00  0.00    +0.381 N 
ATOM      2  H   LIG    1        1.988   0.090  -1.352  0.00  0.00    -0.082 HD
ATOM      3  C   LIG    1        0.212   0.041  -2.454  0.00  0.00    -0.063 C 
ATOM      4  C   LIG    1        0.923  -0.495  -3.699  0.00  0.00    +0.066 C 
ATOM      5  N   LIG    1        1.053  -1.955  -3.596  0.00  0.00    -0.302 NA
ATOM      6  C   LIG    1        1.818  -2.330  -2.399  0.00  0.00    +0.066 C 
ATOM      7  C   LIG    1        1.107  -1.795  -1.154  0.00  0.00    -0.063 C 
ENDROOT
BRANCH   1   8
ATOM      8  C   LIG    1        0.367   0.226  -0.044  0.00  0.00    -0.078 C 
BRANCH   8   9
ATOM      9  C   LIG    1        0.475   1.752  -0.078  0.00  0.00    -0.014 C 
BRANCH   9  10
ATOM     10  C   LIG    1       -0.161   2.336   1.185  0.00  0.00    +0.033 C 
BRANCH  10  14
ATOM     11  C   LIG    1        0.140   6.596   1.092  0.00  0.00    +0.000 A 
ATOM     12  C   LIG    1       -0.965   5.969   0.547  0.00  0.00    +0.000 A 
ATOM     13  C   LIG    1       -1.062   4.591   0.577  0.00  0.00    +0.003 A 
ATOM     14  C   LIG    1       -0.055   3.839   1.152  0.00  0.00    -0.047 A 
ATOM     15  C   LIG    1        1.047   4.466   1.703  0.00  0.00    +0.003 A 
ATOM     16  C   LIG    1        1.147   5.845   1.668  0.00  0.00    +0.000 A 
ENDBRANCH  10  14
ENDBRANCH   9  10
ENDBRANCH   8   9
ENDBRANCH   1   8
BRANCH   5  17
ATOM     17  C   LIG    1        1.663  -2.516  -4.809  0.00  0.00    +0.121 C 
BRANCH  17  18
ATOM     18  C   LIG    1        0.911  -2.030  -6.021  0.00  0.00    -0.003 A 
ATOM     19  C   LIG    1        1.465  -1.060  -6.835  0.00  0.00    +0.007 A 
ATOM     20  C   LIG    1        0.777  -0.618  -7.950  0.00  0.00    +0.000 A 
ATOM     21  C   LIG    1       -0.470  -1.138  -8.244  0.00  0.00    +0.002 A 
ATOM     22  C   LIG    1       -1.026  -2.104  -7.427  0.00  0.00    +0.033 A 
ATOM     23  C   LIG    1       -0.335  -2.550  -6.315  0.00  0.00    +0.126 A 
BRANCH  23  24
ATOM     24  N   LIG    1       -0.931  -3.585  -5.440  0.00  0.00    +0.006 N 
ATOM     25  O   LIG    1       -1.980  -4.118  -5.754  0.00  0.00    -0.130 OA
BRANCH  24  26
ATOM     26  O   LIG    1       -0.372  -3.903  -4.405  0.00  0.00    -0.396 OA
ATOM     27  H   LIG    1        0.435  -3.493  -4.164  0.00  0.00    +0.329 HD
ENDBRANCH  24  26
ENDBRANCH  23  24
ENDBRANCH  17  18
ENDBRANCH   5  17
TORSDOF 8
