REMARK  Name = ZINC22924834
REMARK                            x       y       z     vdW  Elec       q    Type
REMARK                         _______ _______ _______ _____ _____    ______ ____
ROOT
ATOM      1  C   LIG    1        1.648  -3.927  -2.355  0.00  0.00    +0.088 C 
ENDROOT
BRANCH   1   2
ATOM      2  N   LIG    1        1.398  -2.481  -2.424  0.00  0.00    -0.307 NA
ATOM      3  C   LIG    1        0.637  -2.136  -3.632  0.00  0.00    +0.104 C 
BRANCH   2   4
ATOM      4  C   LIG    1        0.710  -2.008  -1.215  0.00  0.00    +0.065 C 
BRANCH   4   5
ATOM      5  C   LIG    1        0.690  -0.478  -1.207  0.00  0.00    -0.067 C 
BRANCH   5   7
ATOM      6  C   LIG    1       -0.018   1.465   0.010  0.00  0.00    -0.100 C 
ATOM      7  N   LIG    1        0.002  -0.004   0.002  0.00  0.00    +0.378 N 
ATOM      8  H   LIG    1       -0.945  -0.353   0.009  0.00  0.00    -0.086 HD
ATOM      9  H   LIG    1        0.490  -0.338   0.820  0.00  0.00    -0.086 HD
ENDBRANCH   5   7
ENDBRANCH   4   5
ENDBRANCH   2   4
ENDBRANCH   1   2
BRANCH   1  10
ATOM     10  C   LIG    1        2.575  -4.340  -3.499  0.00  0.00    +0.050 C 
BRANCH  10  11
ATOM     11  C   LIG    1        2.831  -5.823  -3.429  0.00  0.00    -0.045 A 
ATOM     12  C   LIG    1        3.897  -6.306  -2.692  0.00  0.00    +0.005 A 
ATOM     13  C   LIG    1        4.133  -7.666  -2.626  0.00  0.00    +0.022 A 
ATOM     14  C   LIG    1        3.303  -8.546  -3.298  0.00  0.00    +0.059 A 
ATOM     15 CL   LIG    1        3.600 -10.254  -3.217  0.00  0.00    -0.082 Cl
ATOM     16  C   LIG    1        2.236  -8.062  -4.036  0.00  0.00    +0.060 A 
ATOM     17 CL   LIG    1        1.193  -9.164  -4.880  0.00  0.00    -0.082 Cl
ATOM     18  C   LIG    1        1.998  -6.701  -4.096  0.00  0.00    +0.025 A 
ENDBRANCH  10  11
ENDBRANCH   1  10
TORSDOF 6
