REMARK  Name = ZINC21359557
REMARK                            x       y       z     vdW  Elec       q    Type
REMARK                         _______ _______ _______ _____ _____    ______ ____
ROOT
ATOM      1  C   LIG    1       -0.013   1.086   0.008  0.00  0.00    +0.155 C 
ATOM      2  N   LIG    1       -0.721   1.571  -1.179  0.00  0.00    -0.280 N 
ATOM      3  C   LIG    1       -0.041   1.816  -2.314  0.00  0.00    +0.333 A 
ATOM      4  O   LIG    1        1.160   1.629  -2.337  0.00  0.00    -0.246 OA
ATOM      5  N   LIG    1       -0.656   2.257  -3.425  0.00  0.00    -0.262 N 
ATOM      6  C   LIG    1        0.130   2.502  -4.636  0.00  0.00    +0.157 C 
ATOM      7  C   LIG    1       -1.986   2.482  -3.440  0.00  0.00    +0.282 A 
ATOM      8  O   LIG    1       -2.531   2.886  -4.452  0.00  0.00    -0.265 OA
ATOM      9  C   LIG    1       -2.739   2.244  -2.270  0.00  0.00    +0.149 A 
ATOM     10  N   LIG    1       -4.075   2.363  -1.940  0.00  0.00    -0.332 N 
ATOM     11  C   LIG    1       -4.195   1.980  -0.639  0.00  0.00    +0.141 A 
ATOM     12  N   LIG    1       -3.009   1.639  -0.175  0.00  0.00    -0.210 NA
ATOM     13  H   LIG    1       -4.790   2.663  -2.523  0.00  0.00    +0.168 HD
ATOM     14  C   LIG    1       -2.091   1.783  -1.129  0.00  0.00    +0.168 A 
ENDROOT
BRANCH  11  15
ATOM     15  C   LIG    1       -5.456   1.950   0.131  0.00  0.00    +0.018 A 
ATOM     16  C   LIG    1       -6.656   2.331  -0.473  0.00  0.00    +0.011 A 
ATOM     17  C   LIG    1       -7.829   2.302   0.251  0.00  0.00    +0.002 A 
ATOM     18  C   LIG    1       -7.820   1.896   1.574  0.00  0.00    +0.015 A 
ATOM     19  C   LIG    1       -6.634   1.518   2.179  0.00  0.00    +0.019 A 
ATOM     20 BR   LIG    1       -6.633   0.965   3.988  0.00  0.00    -0.050 Br
ATOM     21  C   LIG    1       -5.454   1.537   1.464  0.00  0.00    +0.026 A 
ENDBRANCH  11  15
TORSDOF 1
