REMARK  Name = ZINC64485594
REMARK                            x       y       z     vdW  Elec       q    Type
REMARK                         _______ _______ _______ _____ _____    ______ ____
ROOT
ATOM      1  C   LIG    1        1.238  -2.581   2.465  0.00  0.00    -0.043 A 
ATOM      2  C   LIG    1        2.558  -2.979   2.361  0.00  0.00    +0.004 A 
ATOM      3  C   LIG    1        3.224  -3.472   3.467  0.00  0.00    +0.004 A 
ATOM      4  C   LIG    1        2.571  -3.568   4.681  0.00  0.00    +0.045 A 
ATOM      5  C   LIG    1        1.246  -3.170   4.789  0.00  0.00    +0.120 A 
ATOM      6  C   LIG    1        0.583  -2.670   3.678  0.00  0.00    +0.049 A 
ENDROOT
BRANCH   5   7
ATOM      7  O   LIG    1        0.602  -3.264   5.981  0.00  0.00    -0.495 OA
ATOM      8  C   LIG    1        1.349  -3.783   7.083  0.00  0.00    +0.277 C 
ENDBRANCH   5   7
BRANCH   1   9
ATOM      9  C   LIG    1        0.516  -2.044   1.256  0.00  0.00    +0.052 C 
BRANCH   9  10
ATOM     10  C   LIG    1        0.706  -0.527   1.180  0.00  0.00    +0.106 C 
BRANCH  10  12
ATOM     11  C   LIG    1       -0.018   1.465   0.010  0.00  0.00    +0.123 C 
ATOM     12  N   LIG    1        0.002  -0.004   0.002  0.00  0.00    -0.248 NA
BRANCH  12  13
ATOM     13  N   LIG    1        0.594  -0.510  -1.226  0.00  0.00    -0.268 NA
ATOM     14  H   LIG    1        0.110  -0.151  -2.035  0.00  0.00    +0.137 HD
ATOM     15  H   LIG    1        0.607  -1.519  -1.232  0.00  0.00    +0.137 HD
ENDBRANCH  12  13
ENDBRANCH  10  12
ENDBRANCH   9  10
ENDBRANCH   1   9
TORSDOF 5
