REMARK  Name = ZINC13762380
REMARK                            x       y       z     vdW  Elec       q    Type
REMARK                         _______ _______ _______ _____ _____    ______ ____
ROOT
ATOM      1  C   LIG    1       -1.201  -0.756   0.010  0.00  0.00    +0.048 A 
ATOM      2  C   LIG    1       -1.101  -2.139   0.020  0.00  0.00    +0.042 A 
ATOM      3  C   LIG    1        0.166  -2.740   0.004  0.00  0.00    +0.072 A 
ATOM      4  N   LIG    1        1.271  -2.023  -0.020  0.00  0.00    -0.247 NA
ATOM      5  C   LIG    1        1.243  -0.689  -0.031  0.00  0.00    +0.072 A 
ATOM      6  C   LIG    1        2.435   0.059  -0.058  0.00  0.00    +0.028 A 
ATOM      7  C   LIG    1        2.379   1.418  -0.069  0.00  0.00    +0.002 A 
ATOM      8  C   LIG    1        1.157   2.087  -0.053  0.00  0.00    +0.001 A 
ATOM      9  C   LIG    1       -0.017   1.396  -0.028  0.00  0.00    +0.011 A 
ATOM     10  C   LIG    1        0.002  -0.004  -0.017  0.00  0.00    +0.013 A 
ENDROOT
BRANCH   3  11
ATOM     11  C   LIG    1        0.265  -4.221   0.015  0.00  0.00    +0.003 A 
ATOM     12  C   LIG    1       -0.883  -5.017   0.046  0.00  0.00    +0.030 A 
ATOM     13  C   LIG    1       -0.746  -6.390   0.050  0.00  0.00    +0.111 A 
ATOM     14  N   LIG    1        0.447  -6.951   0.035  0.00  0.00    -0.263 NA
ATOM     15  C   LIG    1        1.556  -6.237   0.011  0.00  0.00    +0.111 A 
ATOM     16  C   LIG    1        1.509  -4.857  -0.000  0.00  0.00    +0.030 A 
ENDBRANCH   3  11
BRANCH   1  19
ATOM     17  N   LIG    1       -3.648  -0.817  -0.068  0.00  0.00    -0.295 N 
ATOM     18  H   LIG    1       -3.595  -1.783  -0.146  0.00  0.00    +0.150 HD
ATOM     19  C   LIG    1       -2.520  -0.086   0.026  0.00  0.00    +0.246 C 
ATOM     20  O   LIG    1       -2.586   1.123   0.125  0.00  0.00    -0.270 OA
BRANCH  17  21
ATOM     21  C   LIG    1       -4.954  -0.154  -0.051  0.00  0.00    +0.213 C 
BRANCH  21  22
ATOM     22  C   LIG    1       -5.966  -1.020  -0.756  0.00  0.00    -0.016 A 
ATOM     23  C   LIG    1       -5.945  -2.391  -0.579  0.00  0.00    +0.006 A 
ATOM     24  C   LIG    1       -6.877  -3.185  -1.222  0.00  0.00    +0.000 A 
ATOM     25  C   LIG    1       -7.823  -2.608  -2.049  0.00  0.00    +0.000 A 
ATOM     26  C   LIG    1       -7.841  -1.238  -2.229  0.00  0.00    +0.000 A 
ATOM     27  C   LIG    1       -6.912  -0.444  -1.583  0.00  0.00    +0.006 A 
ENDBRANCH  21  22
BRANCH  21  28
ATOM     28  C   LIG    1       -5.388   0.067   1.375  0.00  0.00    +0.332 C 
ATOM     29  O   LIG    1       -4.678  -0.294   2.285  0.00  0.00    -0.248 OA
BRANCH  28  31
ATOM     30  C   LIG    1       -6.915   0.843   3.032  0.00  0.00    +0.280 C 
ATOM     31  O   LIG    1       -6.562   0.663   1.635  0.00  0.00    -0.466 OA
ENDBRANCH  28  31
ENDBRANCH  21  28
ENDBRANCH  17  21
ENDBRANCH   1  19
TORSDOF 6
