REMARK  Name = ZINC29323758
REMARK                            x       y       z     vdW  Elec       q    Type
REMARK                         _______ _______ _______ _____ _____    ______ ____
ROOT
ATOM      1  C   LIG    1        2.545   4.238  -1.133  0.00  0.00    +0.046 C 
ATOM      2  C   LIG    1        3.478   3.248  -1.860  0.00  0.00    +0.124 C 
ATOM      3  C   LIG    1        2.693   1.913  -1.856  0.00  0.00    +0.063 C 
ATOM      4  C   LIG    1        2.014   1.920  -0.463  0.00  0.00    +0.121 C 
ATOM      5  C   LIG    1        1.614   3.394  -0.245  0.00  0.00    +0.031 C 
ENDROOT
BRANCH   4   6
ATOM      6  O   LIG    1        0.856   1.083  -0.467  0.00  0.00    -0.391 OA
ATOM      7  H   LIG    1        0.254   0.974   0.447  0.00  0.00    +0.210 HD
ENDBRANCH   4   6
BRANCH   2   8
ATOM      8  O   LIG    1        3.720   3.681  -3.200  0.00  0.00    -0.391 OA
ATOM      9  H   LIG    1        4.368   3.087  -3.862  0.00  0.00    +0.210 HD
ENDBRANCH   2   8
BRANCH   1  11
ATOM     10  C   LIG    1        3.260   6.475  -0.464  0.00  0.00    +0.000 C 
ATOM     11  C   LIG    1        3.356   5.181  -0.282  0.00  0.00    -0.022 C 
BRANCH  10  12
ATOM     12  C   LIG    1        4.071   7.418   0.387  0.00  0.00    +0.143 C 
BRANCH  12  13
ATOM     13  C   LIG    1        4.899   8.335  -0.515  0.00  0.00    -0.005 C 
ATOM     14  C   LIG    1        3.963   9.141  -1.419  0.00  0.00    +0.014 C 
ATOM     15  C   LIG    1        5.839   7.490  -1.377  0.00  0.00    +0.014 C 
BRANCH  13  16
ATOM     16  C   LIG    1        5.722   9.293   0.349  0.00  0.00    +0.009 C 
BRANCH  16  17
ATOM     17  C   LIG    1        6.550  10.210  -0.552  0.00  0.00    +0.000 C 
BRANCH  17  19
ATOM     18  C   LIG    1        8.200  12.085  -0.590  0.00  0.00    +0.004 C 
ATOM     19  C   LIG    1        7.373  11.168   0.312  0.00  0.00    -0.003 C 
ENDBRANCH  17  19
ENDBRANCH  16  17
ENDBRANCH  13  16
ENDBRANCH  12  13
BRANCH  12  20
ATOM     20  O   LIG    1        4.944   6.665   1.232  0.00  0.00    -0.387 OA
ATOM     21  H   LIG    1        4.528   5.947   1.953  0.00  0.00    +0.210 HD
ENDBRANCH  12  20
ENDBRANCH  10  12
ENDBRANCH   1  11
BRANCH   5  22
ATOM     22  C   LIG    1        0.157   3.608  -0.660  0.00  0.00    +0.033 C 
BRANCH  22  23
ATOM     23  C   LIG    1       -0.251   5.025  -0.346  0.00  0.00    -0.031 C 
ATOM     24  C   LIG    1       -0.770   5.779  -1.282  0.00  0.00    -0.031 C 
BRANCH  24  25
ATOM     25  C   LIG    1       -1.116   5.185  -2.623  0.00  0.00    +0.027 C 
BRANCH  25  26
ATOM     26  C   LIG    1       -2.568   5.521  -2.970  0.00  0.00    +0.015 C 
BRANCH  26  27
ATOM     27  C   LIG    1       -2.920   4.918  -4.332  0.00  0.00    +0.121 C 
BRANCH  27  28
ATOM     28  C   LIG    1       -4.350   5.248  -4.674  0.00  0.00    +0.305 C 
ATOM     29  O   LIG    1       -5.019   5.899  -3.907  0.00  0.00    -0.251 OA
BRANCH  28  30
ATOM     30  O   LIG    1       -4.880   4.819  -5.830  0.00  0.00    -0.481 OA
ATOM     31  H   LIG    1       -4.361   4.314  -6.424  0.00  0.00    +0.295 HD
ENDBRANCH  28  30
ENDBRANCH  27  28
ENDBRANCH  26  27
ENDBRANCH  25  26
ENDBRANCH  24  25
ENDBRANCH  22  23
ENDBRANCH   5  22
TORSDOF 16
