REMARK  Name = ZINC17740304
REMARK                            x       y       z     vdW  Elec       q    Type
REMARK                         _______ _______ _______ _____ _____    ______ ____
ROOT
ATOM      1  N   LIG    1        0.051  -2.796   2.390  0.00  0.00    -0.333 N 
ATOM      2  C   LIG    1       -1.202  -3.202   3.046  0.00  0.00    +0.086 C 
ATOM      3  C   LIG    1       -1.146  -2.764   4.513  0.00  0.00    -0.060 C 
ATOM      4  N   LIG    1        0.067  -3.305   5.138  0.00  0.00    +0.383 N 
ATOM      5  H   LIG    1        0.084  -4.308   5.025  0.00  0.00    -0.082 HD
ATOM      6  C   LIG    1        1.258  -2.723   4.507  0.00  0.00    -0.060 C 
ATOM      7  C   LIG    1        1.321  -3.163   3.036  0.00  0.00    +0.086 C 
ENDROOT
BRANCH   1  13
ATOM      8  C   LIG    1       -0.018   1.503   0.010  0.00  0.00    +0.044 C 
ATOM      9  C   LIG    1        0.002  -0.004   0.002  0.00  0.00    -0.046 A 
ATOM     10  C   LIG    1        0.006  -0.688  -1.200  0.00  0.00    +0.004 A 
ATOM     11  C   LIG    1        0.024  -2.071  -1.212  0.00  0.00    +0.002 A 
ATOM     12  C   LIG    1        0.039  -2.773  -0.023  0.00  0.00    +0.023 A 
ATOM     13  C   LIG    1        0.036  -2.089   1.186  0.00  0.00    +0.033 A 
ATOM     14  C   LIG    1        0.023  -0.700   1.194  0.00  0.00    -0.027 A 
ATOM     15  C   LIG    1        0.025   0.046   2.504  0.00  0.00    +0.046 C 
ENDBRANCH   1  13
BRANCH   4  16
ATOM     16  C   LIG    1        0.065  -2.979   6.571  0.00  0.00    -0.044 C 
BRANCH  16  17
ATOM     17  C   LIG    1        1.263  -3.647   7.248  0.00  0.00    +0.135 C 
BRANCH  17  18
ATOM     18  O   LIG    1        1.175  -5.063   7.082  0.00  0.00    -0.390 OA
ATOM     19  H   LIG    1        0.377  -5.455   7.463  0.00  0.00    +0.210 HD
ENDBRANCH  17  18
BRANCH  17  20
ATOM     20  C   LIG    1        1.261  -3.306   8.739  0.00  0.00    +0.258 C 
BRANCH  20  21
ATOM     21  O   LIG    1        2.441  -3.832   9.350  0.00  0.00    -0.489 OA
BRANCH  21  22
ATOM     22  C   LIG    1        2.595  -3.617  10.680  0.00  0.00    +0.121 A 
ATOM     23  C   LIG    1        1.623  -2.916  11.386  0.00  0.00    +0.046 A 
ATOM     24  C   LIG    1        1.774  -2.695  12.730  0.00  0.00    +0.015 A 
ATOM     25  C   LIG    1        2.909  -3.177  13.394  0.00  0.00    +0.017 A 
ATOM     26  C   LIG    1        3.885  -3.883  12.679  0.00  0.00    +0.015 A 
ATOM     27  C   LIG    1        3.722  -4.102  11.335  0.00  0.00    +0.046 A 
BRANCH  25  28
ATOM     28  C   LIG    1        3.075  -2.944  14.834  0.00  0.00    +0.160 C 
ATOM     29  C   LIG    1        4.298  -3.464  15.545  0.00  0.00    +0.091 C 
ATOM     30  O   LIG    1        2.229  -2.332  15.451  0.00  0.00    -0.292 OA
ENDBRANCH  25  28
ENDBRANCH  21  22
ENDBRANCH  20  21
ENDBRANCH  17  20
ENDBRANCH  16  17
ENDBRANCH   4  16
TORSDOF 8
