REMARK  Name = ZINC00039357
REMARK                            x       y       z     vdW  Elec       q    Type
REMARK                         _______ _______ _______ _____ _____    ______ ____
ROOT
ATOM      1  C   LIG    1       -5.003   3.304  -2.923  0.00  0.00    +0.061 C 
ATOM      2  C   LIG    1       -4.366   3.324  -1.558  0.00  0.00    +0.021 C 
ATOM      3  C   LIG    1       -3.136   3.861  -1.406  0.00  0.00    +0.078 C 
ATOM      4  C   LIG    1       -2.532   3.860  -0.017  0.00  0.00    +0.143 C 
ATOM      5  N   LIG    1       -3.342   3.270   1.062  0.00  0.00    -0.288 N 
ATOM      6  H   LIG    1       -3.010   3.240   1.973  0.00  0.00    +0.151 HD
ATOM      7  C   LIG    1       -4.556   2.772   0.754  0.00  0.00    +0.304 C 
ATOM      8  O   LIG    1       -5.233   2.284   1.638  0.00  0.00    -0.252 OA
ATOM      9  N   LIG    1       -5.041   2.799  -0.493  0.00  0.00    -0.273 N 
ATOM     10  H   LIG    1       -5.922   2.424  -0.650  0.00  0.00    +0.156 HD
ENDROOT
BRANCH   4  11
ATOM     11  C   LIG    1       -1.225   3.112  -0.078  0.00  0.00    -0.022 A 
ATOM     12  C   LIG    1       -1.220   1.730  -0.070  0.00  0.00    +0.009 A 
ATOM     13  C   LIG    1       -0.023   1.042  -0.121  0.00  0.00    +0.046 A 
ATOM     14  C   LIG    1        1.174   1.740  -0.192  0.00  0.00    +0.120 A 
ATOM     15  C   LIG    1        1.166   3.127  -0.205  0.00  0.00    +0.046 A 
ATOM     16  C   LIG    1       -0.033   3.810  -0.148  0.00  0.00    +0.009 A 
BRANCH  14  17
ATOM     17  O   LIG    1        2.353   1.065  -0.248  0.00  0.00    -0.495 OA
ATOM     18  C   LIG    1        3.546   1.849  -0.319  0.00  0.00    +0.277 C 
ENDBRANCH  14  17
ENDBRANCH   4  11
BRANCH   3  19
ATOM     19  C   LIG    1       -2.435   4.405  -2.508  0.00  0.00    +0.339 C 
ATOM     20  O   LIG    1       -2.891   4.300  -3.631  0.00  0.00    -0.245 OA
BRANCH  19  21
ATOM     21  O   LIG    1       -1.261   5.041  -2.313  0.00  0.00    -0.458 OA
BRANCH  21  22
ATOM     22  C   LIG    1       -0.608   5.567  -3.470  0.00  0.00    +0.177 C 
ATOM     23  C   LIG    1        0.380   4.526  -4.037  0.00  0.00    +0.044 C 
ATOM     24  C   LIG    1        1.584   5.372  -4.524  0.00  0.00    +0.004 C 
ATOM     25  C   LIG    1        1.691   6.472  -3.438  0.00  0.00    +0.004 C 
ATOM     26  C   LIG    1        0.225   6.803  -3.090  0.00  0.00    +0.044 C 
ENDBRANCH  21  22
ENDBRANCH  19  21
ENDBRANCH   3  19
TORSDOF 5
