REMARK  Name = ZINC13980679
REMARK                            x       y       z     vdW  Elec       q    Type
REMARK                         _______ _______ _______ _____ _____    ______ ____
ROOT
ATOM      1  C   LIG    1        1.171   2.086   0.002  0.00  0.00    +0.000 A 
ATOM      2  C   LIG    1       -0.017   1.377   0.010  0.00  0.00    +0.002 A 
ATOM      3  C   LIG    1        0.002  -0.004   0.002  0.00  0.00    +0.024 A 
ATOM      4  C   LIG    1        1.214  -0.682  -0.018  0.00  0.00    +0.040 A 
ATOM      5  C   LIG    1        2.404   0.033  -0.011  0.00  0.00    -0.024 A 
ATOM      6  C   LIG    1        3.724  -0.696  -0.002  0.00  0.00    +0.068 C 
ATOM      7  C   LIG    1        3.595  -2.005  -0.781  0.00  0.00    +0.164 C 
ATOM      8  C   LIG    1        2.363  -2.746  -0.330  0.00  0.00    +0.241 C 
ATOM      9  O   LIG    1        2.390  -3.955  -0.237  0.00  0.00    -0.273 OA
ATOM     10  N   LIG    1        1.236  -2.079  -0.030  0.00  0.00    -0.267 N 
ATOM     11  C   LIG    1        2.380   1.414  -0.007  0.00  0.00    +0.005 A 
ENDROOT
BRANCH   7  12
ATOM     12  N   LIG    1        3.490  -1.712  -2.213  0.00  0.00    -0.299 N 
ATOM     13  H   LIG    1        3.147  -0.855  -2.509  0.00  0.00    +0.150 HD
ATOM     14  C   LIG    1        3.870  -2.635  -3.119  0.00  0.00    +0.261 C 
ATOM     15  O   LIG    1        4.300  -3.711  -2.748  0.00  0.00    -0.269 OA
BRANCH  14  16
ATOM     16  C   LIG    1        3.765  -2.342  -4.550  0.00  0.00    +0.103 A 
ATOM     17  C   LIG    1        4.114  -3.184  -5.561  0.00  0.00    +0.041 A 
ATOM     18  C   LIG    1        3.859  -2.524  -6.798  0.00  0.00    +0.009 A 
ATOM     19  C   LIG    1        3.972  -2.770  -8.232  0.00  0.00    +0.037 A 
ATOM     20  C   LIG    1        3.593  -1.811  -9.088  0.00  0.00    +0.081 A 
ATOM     21 CL   LIG    1        3.624  -1.844 -10.824  0.00  0.00    -0.076 Cl
ATOM     22  S   LIG    1        3.052  -0.493  -8.018  0.00  0.00    -0.059 S 
ATOM     23  C   LIG    1        3.350  -1.269  -6.450  0.00  0.00    +0.087 A 
ATOM     24  N   LIG    1        3.289  -1.165  -5.101  0.00  0.00    -0.345 N 
ATOM     25  H   LIG    1        2.969  -0.395  -4.606  0.00  0.00    +0.167 HD
ENDBRANCH  14  16
ENDBRANCH   7  12
BRANCH  10  26
ATOM     26  C   LIG    1        0.015  -2.825   0.287  0.00  0.00    +0.147 C 
BRANCH  26  27
ATOM     27  C   LIG    1       -0.777  -3.078  -0.998  0.00  0.00    +0.157 C 
BRANCH  27  28
ATOM     28  O   LIG    1       -0.024  -3.933  -1.860  0.00  0.00    -0.388 OA
ATOM     29  H   LIG    1        0.181  -4.797  -1.477  0.00  0.00    +0.210 HD
ENDBRANCH  27  28
BRANCH  27  30
ATOM     30  C   LIG    1       -2.109  -3.746  -0.652  0.00  0.00    +0.188 C 
BRANCH  30  31
ATOM     31  O   LIG    1       -2.897  -3.877  -1.837  0.00  0.00    -0.392 OA
ATOM     32  H   LIG    1       -3.758  -4.293  -1.692  0.00  0.00    +0.210 HD
ENDBRANCH  30  31
ENDBRANCH  27  30
ENDBRANCH  26  27
ENDBRANCH  10  26
TORSDOF 7
