REMARK  Name = ZINC40845866
REMARK                            x       y       z     vdW  Elec       q    Type
REMARK                         _______ _______ _______ _____ _____    ______ ____
ROOT
ATOM      1  C   LIG    1       -1.293  -0.775   0.010  0.00  0.00    -0.040 C 
ENDROOT
BRANCH   1   8
ATOM      2  C   LIG    1       -0.017   1.378   0.010  0.00  0.00    +0.003 A 
ATOM      3  C   LIG    1        1.171   2.086   0.002  0.00  0.00    +0.015 A 
ATOM      4  C   LIG    1        2.378   1.411  -0.013  0.00  0.00    +0.018 A 
ATOM      5 BR   LIG    1        4.003   2.378  -0.024  0.00  0.00    -0.050 Br
ATOM      6  C   LIG    1        2.396   0.027  -0.021  0.00  0.00    +0.015 A 
ATOM      7  C   LIG    1        1.208  -0.679  -0.013  0.00  0.00    +0.003 A 
ATOM      8  C   LIG    1        0.002  -0.004   0.002  0.00  0.00    -0.061 A 
ENDBRANCH   1   8
BRANCH   1   9
ATOM      9  N   LIG    1       -1.162  -1.942   0.893  0.00  0.00    +0.383 N 
ATOM     10  H   LIG    1       -2.029  -2.458   0.899  0.00  0.00    -0.089 HD
ATOM     11  H   LIG    1       -0.949  -1.633   1.830  0.00  0.00    -0.089 HD
ATOM     12  H   LIG    1       -0.419  -2.536   0.557  0.00  0.00    -0.089 HD
ENDBRANCH   1   9
BRANCH   1  13
ATOM     13  C   LIG    1       -1.616  -1.244  -1.410  0.00  0.00    +0.026 C 
BRANCH  13  14
ATOM     14  C   LIG    1       -2.969  -1.907  -1.424  0.00  0.00    -0.011 A 
ATOM     15  C   LIG    1       -3.067  -3.280  -1.297  0.00  0.00    +0.044 A 
ATOM     16  C   LIG    1       -4.310  -3.890  -1.309  0.00  0.00    +0.124 A 
ATOM     17  F   LIG    1       -4.405  -5.232  -1.186  0.00  0.00    -0.205 F 
ATOM     18  C   LIG    1       -5.455  -3.124  -1.449  0.00  0.00    +0.041 A 
ATOM     19  C   LIG    1       -5.357  -1.752  -1.575  0.00  0.00    +0.041 A 
ATOM     20  C   LIG    1       -4.115  -1.141  -1.558  0.00  0.00    +0.127 A 
ATOM     21  F   LIG    1       -4.019   0.201  -1.677  0.00  0.00    -0.205 F 
ENDBRANCH  13  14
ENDBRANCH   1  13
TORSDOF 4
