REMARK  Name = ZINC19850886
REMARK                            x       y       z     vdW  Elec       q    Type
REMARK                         _______ _______ _______ _____ _____    ______ ____
ROOT
ATOM      1  C   LIG    1       -1.106  -0.838   0.008  0.00  0.00    +0.046 C 
ATOM      2  C   LIG    1       -0.936  -2.235  -0.001  0.00  0.00    +0.005 C 
ENDROOT
BRANCH   2   3
ATOM      3  C   LIG    1       -2.038  -3.064   0.005  0.00  0.00    +0.020 C 
ATOM      4  C   LIG    1       -1.868  -4.460  -0.004  0.00  0.00    +0.073 C 
ATOM      5  C   LIG    1       -2.898  -5.524  -0.006  0.00  0.00    +0.217 C 
ATOM      6  N   LIG    1       -2.480  -6.743  -0.015  0.00  0.00    -0.165 NA
ATOM      7  C   LIG    1       -1.153  -6.988  -0.022  0.00  0.00    +0.139 C 
ATOM      8  S   LIG    1       -0.350  -8.499  -0.035  0.00  0.00    -0.026 S 
ATOM      9  S   LIG    1       -0.441  -5.353  -0.023  0.00  0.00    -0.060 S 
BRANCH   5  10
ATOM     10  O   LIG    1       -4.217  -5.229   0.002  0.00  0.00    -0.493 OA
ATOM     11  H   LIG    1       -4.498  -4.335   0.008  0.00  0.00    +0.294 HD
ENDBRANCH   5  10
ENDBRANCH   2   3
BRANCH   1  16
ATOM     12  C   LIG    1       -0.017   1.408   0.010  0.00  0.00    +0.052 A 
ATOM     13  C   LIG    1        1.305   1.818  -0.001  0.00  0.00    +0.076 A 
ATOM     14  C   LIG    1        2.088   0.681  -0.014  0.00  0.00    +0.276 A 
ATOM     15  O   LIG    1        1.296  -0.397  -0.012  0.00  0.00    -0.435 OA
ATOM     16  C   LIG    1        0.002  -0.004   0.002  0.00  0.00    +0.131 A 
BRANCH  14  17
ATOM     17  N   LIG    1        3.568   0.657  -0.029  0.00  0.00    +0.043 N 
ATOM     18  O   LIG    1        4.244   1.788  -0.029  0.00  0.00    -0.127 OA
BRANCH  17  19
ATOM     19  O   LIG    1        4.208  -0.493  -0.041  0.00  0.00    -0.394 OA
ATOM     20  H   LIG    1        3.727  -1.297  -0.041  0.00  0.00    +0.329 HD
ENDBRANCH  17  19
ENDBRANCH  14  17
ENDBRANCH   1  16
TORSDOF 5
