REMARK  Name = ZINC34583064
REMARK                            x       y       z     vdW  Elec       q    Type
REMARK                         _______ _______ _______ _____ _____    ______ ____
ROOT
ATOM      1  C   LIG    1        3.696   2.049  -0.023  0.00  0.00    +0.036 C 
ENDROOT
BRANCH   1   4
ATOM      2  C   LIG    1       -0.017   1.378   0.010  0.00  0.00    +0.020 A 
ATOM      3  C   LIG    1        1.185   2.070   0.002  0.00  0.00    +0.006 A 
ATOM      4  C   LIG    1        2.365   1.343  -0.013  0.00  0.00    -0.029 A 
ATOM      5  C   LIG    1        2.305  -0.038  -0.020  0.00  0.00    +0.114 A 
ATOM      6  N   LIG    1        1.144  -0.663  -0.013  0.00  0.00    -0.263 NA
ATOM      7  C   LIG    1        0.002  -0.004   0.002  0.00  0.00    +0.111 A 
ENDBRANCH   1   4
BRANCH   1   8
ATOM      8  C   LIG    1        4.161   2.280   1.417  0.00  0.00    +0.005 C 
BRANCH   8   9
ATOM      9  C   LIG    1        5.513   2.998   1.407  0.00  0.00    +0.011 C 
BRANCH   9  10
ATOM     10  C   LIG    1        5.977   3.229   2.846  0.00  0.00    +0.120 C 
BRANCH  10  11
ATOM     11  C   LIG    1        7.308   3.935   2.837  0.00  0.00    +0.305 C 
ATOM     12  O   LIG    1        7.837   4.226   1.777  0.00  0.00    -0.251 OA
BRANCH  11  13
ATOM     13  O   LIG    1        7.857   4.216   3.889  0.00  0.00    -0.481 OA
ATOM     14  H   LIG    1        7.451   3.992   4.703  0.00  0.00    +0.295 HD
ENDBRANCH  11  13
ENDBRANCH  10  11
ENDBRANCH   9  10
ENDBRANCH   8   9
ENDBRANCH   1   8
TORSDOF 6
