REMARK  Name = ZINC13977788
REMARK                            x       y       z     vdW  Elec       q    Type
REMARK                         _______ _______ _______ _____ _____    ______ ____
ROOT
ATOM      1  C   LIG    1        1.691   2.665  -0.060  0.00  0.00    +0.125 A 
ATOM      2  C   LIG    1        0.395   2.189   0.064  0.00  0.00    +0.059 A 
ATOM      3  C   LIG    1        0.165   0.818   0.170  0.00  0.00    +0.044 A 
ATOM      4  C   LIG    1        1.241  -0.070   0.149  0.00  0.00    +0.059 A 
ATOM      5  C   LIG    1        2.533   0.413   0.025  0.00  0.00    +0.133 A 
ATOM      6  C   LIG    1        2.758   1.779  -0.080  0.00  0.00    +0.092 A 
ENDROOT
BRANCH   3   7
ATOM      7  C   LIG    1       -1.216   0.306   0.302  0.00  0.00    +0.250 C 
ATOM      8  N   LIG    1       -1.436  -1.020   0.403  0.00  0.00    -0.261 N 
ATOM      9  H   LIG    1       -0.689  -1.638   0.390  0.00  0.00    +0.157 HD
ATOM     10  O   LIG    1       -2.152   1.081   0.319  0.00  0.00    -0.270 OA
BRANCH   8  11
ATOM     11  C   LIG    1       -2.734  -1.500   0.527  0.00  0.00    +0.165 A 
ATOM     12  N   LIG    1       -3.866  -0.826   0.571  0.00  0.00    -0.233 NA
ATOM     13  C   LIG    1       -5.025  -1.445   0.688  0.00  0.00    +0.120 A 
ATOM     14  C   LIG    1       -5.030  -2.797   0.776  0.00  0.00    +0.068 A 
ATOM     15  S   LIG    1       -3.280  -3.143   0.673  0.00  0.00    -0.061 S 
ENDBRANCH   8  11
ENDBRANCH   3   7
BRANCH   1  16
ATOM     16  O   LIG    1        1.916   4.001  -0.163  0.00  0.00    -0.487 OA
BRANCH  16  18
ATOM     17  C   LIG    1        0.462   5.101   1.423  0.00  0.00    +0.054 C 
ATOM     18  C   LIG    1        0.780   4.861  -0.054  0.00  0.00    +0.196 C 
BRANCH  18  19
ATOM     19  C   LIG    1        1.085   6.197  -0.734  0.00  0.00    +0.200 C 
BRANCH  19  20
ATOM     20  O   LIG    1        2.133   6.864  -0.026  0.00  0.00    -0.391 OA
ATOM     21  H   LIG    1        2.379   7.720  -0.402  0.00  0.00    +0.210 HD
ENDBRANCH  19  20
ENDBRANCH  18  19
ENDBRANCH  16  18
ENDBRANCH   1  16
BRANCH   5  22
ATOM     22  O   LIG    1        3.582  -0.451   0.005  0.00  0.00    -0.456 OA
BRANCH  22  23
ATOM     23  C   LIG    1        4.823   0.058  -0.211  0.00  0.00    +0.129 A 
ATOM     24  C   LIG    1        5.429  -0.088  -1.451  0.00  0.00    +0.048 A 
ATOM     25  C   LIG    1        6.689   0.434  -1.669  0.00  0.00    +0.030 A 
ATOM     26  C   LIG    1        7.351   1.094  -0.650  0.00  0.00    +0.088 A 
ATOM     27  C   LIG    1        6.752   1.236   0.588  0.00  0.00    +0.030 A 
ATOM     28  C   LIG    1        5.490   0.720   0.810  0.00  0.00    +0.048 A 
BRANCH  26  29
ATOM     29  S   LIG    1        8.960   1.754  -0.930  0.00  0.00    -0.006 S 
ATOM     30  C   LIG    1       10.098   0.413  -0.485  0.00  0.00    +0.200 C 
ATOM     31  O   LIG    1        9.079   2.824  -0.003  0.00  0.00    -0.170 OA
ATOM     32  O   LIG    1        9.014   1.998  -2.329  0.00  0.00    -0.170 OA
ENDBRANCH  26  29
ENDBRANCH  22  23
ENDBRANCH   5  22
TORSDOF 9
