REMARK  Name = ZINC36222762
REMARK                            x       y       z     vdW  Elec       q    Type
REMARK                         _______ _______ _______ _____ _____    ______ ____
ROOT
ATOM      1  C   LIG    1        0.680  -2.085   1.091  0.00  0.00    +0.061 A 
ATOM      2  C   LIG    1        0.101  -2.852   0.076  0.00  0.00    +0.019 A 
ATOM      3  C   LIG    1        0.154  -4.228   0.131  0.00  0.00    +0.049 A 
ATOM      4  C   LIG    1        0.784  -4.862   1.194  0.00  0.00    +0.150 A 
ATOM      5  C   LIG    1        1.367  -4.099   2.208  0.00  0.00    +0.075 A 
ATOM      6  N   LIG    1        2.010  -4.752   3.274  0.00  0.00    -0.309 N 
ATOM      7  H   LIG    1        2.249  -4.275   4.083  0.00  0.00    +0.152 HD
ATOM      8  C   LIG    1        2.293  -6.120   3.126  0.00  0.00    +0.074 A 
ATOM      9  C   LIG    1        3.164  -6.755   3.995  0.00  0.00    +0.027 A 
ATOM     10  C   LIG    1        3.436  -8.102   3.835  0.00  0.00    +0.002 A 
ATOM     11  C   LIG    1        2.839  -8.811   2.810  0.00  0.00    +0.004 A 
ATOM     12  C   LIG    1        1.968  -8.181   1.939  0.00  0.00    +0.048 A 
ATOM     13  C   LIG    1        1.689  -6.832   2.092  0.00  0.00    +0.150 A 
ATOM     14  O   LIG    1        0.829  -6.216   1.242  0.00  0.00    -0.452 OA
ATOM     15  C   LIG    1        1.321  -2.721   2.160  0.00  0.00    +0.042 A 
ENDROOT
BRANCH   1  16
ATOM     16  C   LIG    1        0.621  -0.613   1.033  0.00  0.00    +0.339 C 
ATOM     17  O   LIG    1        1.129   0.051   1.914  0.00  0.00    -0.245 OA
BRANCH  16  19
ATOM     18  C   LIG    1       -0.017   1.425   0.010  0.00  0.00    +0.280 C 
ATOM     19  O   LIG    1        0.002  -0.004   0.002  0.00  0.00    -0.464 OA
ENDBRANCH  16  19
ENDBRANCH   1  16
TORSDOF 2
