REMARK  Name = ZINC26403974
REMARK                            x       y       z     vdW  Elec       q    Type
REMARK                         _______ _______ _______ _____ _____    ______ ____
ROOT
ATOM      1  N   LIG    1        2.693  -6.660  -4.640  0.00  0.00    -0.078 NA
ATOM      2  C   LIG    1        2.711  -7.966  -4.647  0.00  0.00    +0.162 C 
ENDROOT
BRANCH   2   3
ATOM      3  C   LIG    1        3.347  -8.686  -5.759  0.00  0.00    +0.021 A 
ATOM      4  C   LIG    1        3.438 -10.036  -5.908  0.00  0.00    +0.093 A 
ATOM      5  N   LIG    1        4.097 -10.327  -7.066  0.00  0.00    -0.360 N 
ATOM      6  C   LIG    1        4.459  -9.164  -7.715  0.00  0.00    +0.047 A 
ATOM      7  C   LIG    1        5.133  -8.909  -8.905  0.00  0.00    +0.030 A 
ATOM      8  C   LIG    1        5.343  -7.611  -9.314  0.00  0.00    +0.047 A 
ATOM      9  C   LIG    1        4.896  -6.544  -8.540  0.00  0.00    +0.121 A 
ATOM     10  C   LIG    1        4.228  -6.778  -7.353  0.00  0.00    +0.056 A 
ATOM     11  H   LIG    1        4.284 -11.223  -7.388  0.00  0.00    +0.165 HD
ATOM     12  C   LIG    1        4.005  -8.088  -6.935  0.00  0.00    +0.012 A 
BRANCH   9  13
ATOM     13  O   LIG    1        5.116  -5.268  -8.954  0.00  0.00    -0.495 OA
ATOM     14  C   LIG    1        5.813  -5.098 -10.191  0.00  0.00    +0.277 C 
ENDBRANCH   9  13
ENDBRANCH   2   3
BRANCH   1  16
ATOM     15  C   LIG    1        2.070  -4.659  -3.572  0.00  0.00    +0.406 C 
ATOM     16  N   LIG    1        2.087  -5.974  -3.579  0.00  0.00    +0.044 NA
BRANCH  15  17
ATOM     17  N   LIG    1        2.645  -3.958  -4.605  0.00  0.00    -0.287 N 
ATOM     18  H   LIG    1        3.065  -4.434  -5.339  0.00  0.00    +0.255 HD
ATOM     19  H   LIG    1        2.632  -2.988  -4.599  0.00  0.00    +0.255 HD
ENDBRANCH  15  17
BRANCH  15  20
ATOM     20  N   LIG    1        1.475  -3.986  -2.532  0.00  0.00    -0.274 N 
ATOM     21  H   LIG    1        1.069  -4.480  -1.803  0.00  0.00    +0.258 HD
BRANCH  20  22
ATOM     22  C   LIG    1        1.455  -2.521  -2.524  0.00  0.00    +0.196 C 
BRANCH  22  23
ATOM     23  C   LIG    1        0.739  -2.027  -1.265  0.00  0.00    +0.037 C 
BRANCH  23  24
ATOM     24  C   LIG    1        0.718  -0.497  -1.257  0.00  0.00    +0.003 C 
BRANCH  24  26
ATOM     25  C   LIG    1       -0.019   1.526   0.010  0.00  0.00    +0.004 C 
ATOM     26  C   LIG    1        0.002  -0.004   0.002  0.00  0.00    -0.003 C 
ENDBRANCH  24  26
ENDBRANCH  23  24
ENDBRANCH  22  23
ENDBRANCH  20  22
ENDBRANCH  15  20
ENDBRANCH   1  16
TORSDOF 9
