REMARK  Name = ZINC53297212
REMARK                            x       y       z     vdW  Elec       q    Type
REMARK                         _______ _______ _______ _____ _____    ______ ____
ROOT
ATOM      1  C   LIG    1        2.067  -0.590  -1.215  0.00  0.00    +0.137 A 
ATOM      2  C   LIG    1        2.724  -1.035  -2.367  0.00  0.00    +0.077 A 
ATOM      3  C   LIG    1        4.115  -1.162  -2.417  0.00  0.00    +0.087 A 
ATOM      4  N   LIG    1        4.791  -0.814  -1.243  0.00  0.00    -0.192 N 
ATOM      5  C   LIG    1        4.107  -0.384  -0.142  0.00  0.00    +0.204 A 
ATOM      6  C   LIG    1        5.066  -0.129   0.825  0.00  0.00    +0.249 A 
ATOM      7  N   LIG    1        6.260  -0.398   0.313  0.00  0.00    -0.108 NA
ATOM      8  N   LIG    1        6.148  -0.805  -0.904  0.00  0.00    -0.057 NA
ATOM      9  C   LIG    1        4.642  -1.617  -3.627  0.00  0.00    +0.036 A 
ATOM     10  C   LIG    1        3.820  -1.905  -4.661  0.00  0.00    +0.048 A 
ATOM     11  S   LIG    1        2.207  -1.547  -3.985  0.00  0.00    -0.092 S 
ATOM     12  N   LIG    1        2.767  -0.272  -0.140  0.00  0.00    -0.209 NA
ENDROOT
BRANCH   6  13
ATOM     13  S   LIG    1        4.752   0.455   2.458  0.00  0.00    +0.047 S 
ATOM     14  O   LIG    1        3.499   1.123   2.417  0.00  0.00    -0.163 OA
ATOM     15  O   LIG    1        5.943   1.095   2.896  0.00  0.00    -0.163 OA
BRANCH  13  16
ATOM     16  C   LIG    1        4.534  -0.961   3.484  0.00  0.00    +0.095 A 
ATOM     17  C   LIG    1        3.275  -1.506   3.652  0.00  0.00    +0.027 A 
ATOM     18  C   LIG    1        3.104  -2.617   4.457  0.00  0.00    +0.002 A 
ATOM     19  C   LIG    1        4.192  -3.183   5.094  0.00  0.00    +0.000 A 
ATOM     20  C   LIG    1        5.452  -2.638   4.926  0.00  0.00    +0.002 A 
ATOM     21  C   LIG    1        5.623  -1.530   4.117  0.00  0.00    +0.027 A 
ENDBRANCH  13  16
ENDBRANCH   6  13
BRANCH   1  22
ATOM     22  N   LIG    1        0.688  -0.476  -1.203  0.00  0.00    -0.325 N 
ATOM     23  H   LIG    1        0.175  -0.710  -1.993  0.00  0.00    +0.148 HD
BRANCH  22  25
ATOM     24  C   LIG    1       -0.019   1.526   0.010  0.00  0.00    +0.028 C 
ATOM     25  C   LIG    1        0.002  -0.004   0.002  0.00  0.00    +0.075 C 
BRANCH  25  26
ATOM     26  C   LIG    1       -1.433  -0.534   0.013  0.00  0.00    -0.010 C 
ATOM     27  C   LIG    1       -1.413  -2.063   0.004  0.00  0.00    +0.012 C 
ATOM     28  C   LIG    1       -2.848  -2.593   0.015  0.00  0.00    -0.010 C 
ATOM     29  C   LIG    1       -3.564  -2.100   1.274  0.00  0.00    +0.007 C 
ATOM     30  C   LIG    1       -3.585  -0.570   1.282  0.00  0.00    -0.010 C 
ATOM     31  C   LIG    1       -4.325  -0.063   0.043  0.00  0.00    +0.007 C 
ATOM     32  C   LIG    1       -3.609  -0.556  -1.216  0.00  0.00    -0.010 C 
ATOM     33  C   LIG    1       -3.588  -2.086  -1.224  0.00  0.00    +0.007 C 
ATOM     34  C   LIG    1       -2.173  -0.027  -1.227  0.00  0.00    +0.012 C 
ATOM     35  C   LIG    1       -2.149  -0.040   1.272  0.00  0.00    +0.012 C 
ENDBRANCH  25  26
ENDBRANCH  22  25
ENDBRANCH   1  22
TORSDOF 5
