REMARK  Name = ZINC17654543
REMARK                            x       y       z     vdW  Elec       q    Type
REMARK                         _______ _______ _______ _____ _____    ______ ____
ROOT
ATOM      1  C   LIG    1       -3.322  -4.646   0.025  0.00  0.00    +0.253 C 
ATOM      2  C   LIG    1       -3.036  -5.113   1.470  0.00  0.00    +0.195 C 
ATOM      3  C   LIG    1       -3.320  -6.631   1.436  0.00  0.00    +0.178 C 
ATOM      4  C   LIG    1       -3.744  -6.902  -0.025  0.00  0.00    +0.178 C 
ATOM      5  O   LIG    1       -4.232  -5.631  -0.509  0.00  0.00    -0.346 OA
ENDROOT
BRANCH   1  11
ATOM      6  C   LIG    1       -1.702  -0.454   0.016  0.00  0.00    +0.192 A 
ATOM      7  N   LIG    1       -2.618   0.507   0.024  0.00  0.00    -0.205 NA
ATOM      8  C   LIG    1       -3.914   0.219   0.035  0.00  0.00    +0.148 A 
ATOM      9  C   LIG    1       -4.303  -1.133   0.037  0.00  0.00    +0.147 A 
ATOM     10  C   LIG    1       -3.299  -2.114   0.028  0.00  0.00    +0.169 A 
ATOM     11  N   LIG    1       -3.950  -3.322   0.032  0.00  0.00    -0.285 N 
ATOM     12  C   LIG    1       -5.290  -3.064   0.044  0.00  0.00    +0.203 A 
ATOM     13  N   LIG    1       -5.494  -1.780   0.046  0.00  0.00    -0.231 NA
ATOM     14  N   LIG    1       -2.024  -1.737   0.012  0.00  0.00    -0.202 NA
BRANCH   8  15
ATOM     15  N   LIG    1       -4.862   1.227   0.044  0.00  0.00    -0.341 N 
ATOM     16  H   LIG    1       -5.806   1.004   0.052  0.00  0.00    +0.144 HD
ATOM     17  H   LIG    1       -4.583   2.155   0.043  0.00  0.00    +0.144 HD
ENDBRANCH   8  15
BRANCH   6  19
ATOM     18  C   LIG    1       -0.022   1.810   0.012  0.00  0.00    +0.093 C 
ATOM     19  S   LIG    1        0.002  -0.004   0.002  0.00  0.00    -0.089 S 
ENDBRANCH   6  19
ENDBRANCH   1  11
BRANCH   3  20
ATOM     20  O   LIG    1       -2.141  -7.369   1.762  0.00  0.00    -0.386 OA
ATOM     21  H   LIG    1       -1.799  -7.191   2.649  0.00  0.00    +0.210 HD
ENDBRANCH   3  20
BRANCH   2  22
ATOM     22  O   LIG    1       -1.673  -4.864   1.816  0.00  0.00    -0.385 OA
ATOM     23  H   LIG    1       -1.438  -5.138   2.713  0.00  0.00    +0.210 HD
ENDBRANCH   2  22
BRANCH   4  24
ATOM     24  C   LIG    1       -4.853  -7.954  -0.072  0.00  0.00    +0.206 C 
BRANCH  24  25
ATOM     25  O   LIG    1       -5.149  -8.274  -1.433  0.00  0.00    -0.284 OA
BRANCH  25  26
ATOM     26  P   LIG    1       -6.270  -9.349  -1.858  0.00  0.00    +0.483 P 
ATOM     27  O   LIG    1       -5.980 -10.698  -1.163  0.00  0.00    -0.227 OA
BRANCH  26  28
ATOM     28  O   LIG    1       -7.663  -8.837  -1.428  0.00  0.00    -0.302 OA
ATOM     29  H   LIG    1       -7.680  -8.715  -0.466  0.00  0.00    +0.222 HD
ENDBRANCH  26  28
BRANCH  26  30
ATOM     30  O   LIG    1       -6.242  -9.551  -3.455  0.00  0.00    -0.186 OA
BRANCH  30  31
ATOM     31  P   LIG    1       -6.856 -10.655  -4.453  0.00  0.00    +0.492 P 
ATOM     32  O   LIG    1       -6.706 -12.058  -3.824  0.00  0.00    -0.226 OA
BRANCH  31  33
ATOM     33  O   LIG    1       -8.352 -10.356  -4.695  0.00  0.00    -0.302 OA
ATOM     34  H   LIG    1       -8.828 -10.384  -3.850  0.00  0.00    +0.222 HD
ENDBRANCH  31  33
BRANCH  31  35
ATOM     35  O   LIG    1       -6.066 -10.609  -5.855  0.00  0.00    -0.186 OA
BRANCH  35  36
ATOM     36  P   LIG    1       -5.968 -11.604  -7.117  0.00  0.00    +0.481 P 
ATOM     37  O   LIG    1       -5.901 -13.085  -6.611  0.00  0.00    -0.227 OA
BRANCH  36  38
ATOM     38  O   LIG    1       -7.231 -11.419  -8.027  0.00  0.00    -0.302 OA
ATOM     39  H   LIG    1       -8.030 -11.623  -7.516  0.00  0.00    +0.222 HD
ENDBRANCH  36  38
BRANCH  36  40
ATOM     40  O   LIG    1       -4.678 -11.275  -7.943  0.00  0.00    -0.302 OA
ATOM     41  H   LIG    1       -3.896 -11.389  -7.380  0.00  0.00    +0.222 HD
ENDBRANCH  36  40
ENDBRANCH  35  36
ENDBRANCH  31  35
ENDBRANCH  30  31
ENDBRANCH  26  30
ENDBRANCH  25  26
ENDBRANCH  24  25
ENDBRANCH   4  24
TORSDOF 16
