REMARK  Name = ZINC56898757
REMARK                            x       y       z     vdW  Elec       q    Type
REMARK                         _______ _______ _______ _____ _____    ______ ____
ROOT
ATOM      1  C   LIG    1        1.226  -2.169  -0.022  0.00  0.00    +0.249 C 
ATOM      2  N   LIG    1        0.066  -2.849  -0.116  0.00  0.00    -0.295 N 
ATOM      3  C   LIG    1       -1.218  -2.140  -0.217  0.00  0.00    +0.123 C 
ATOM      4  C   LIG    1       -2.171  -2.706   0.841  0.00  0.00    +0.103 C 
ATOM      5  N   LIG    1       -2.254  -4.165   0.691  0.00  0.00    -0.299 NA
ATOM      6  C   LIG    1       -0.951  -4.800   0.934  0.00  0.00    +0.103 C 
ATOM      7  C   LIG    1        0.052  -4.320  -0.127  0.00  0.00    +0.123 C 
ATOM      8  O   LIG    1        1.214  -0.958   0.087  0.00  0.00    -0.270 OA
ENDROOT
BRANCH   1  17
ATOM      9  C   LIG    1        3.941  -4.559  -1.046  0.00  0.00    +0.001 A 
ATOM     10  C   LIG    1        4.931  -4.279  -0.126  0.00  0.00    +0.011 A 
ATOM     11  C   LIG    1        4.725  -3.302   0.844  0.00  0.00    +0.018 A 
ATOM     12  C   LIG    1        5.544  -2.766   1.947  0.00  0.00    +0.077 A 
ATOM     13  C   LIG    1        4.788  -1.810   2.558  0.00  0.00    +0.102 A 
ATOM     14  N   LIG    1        3.585  -1.710   1.935  0.00  0.00    -0.359 N 
ATOM     15  H   LIG    1        2.879  -1.097   2.191  0.00  0.00    +0.165 HD
ATOM     16  C   LIG    1        3.510  -2.599   0.890  0.00  0.00    +0.060 A 
ATOM     17  C   LIG    1        2.511  -2.894  -0.051  0.00  0.00    +0.061 A 
ATOM     18  C   LIG    1        2.740  -3.876  -1.014  0.00  0.00    +0.015 A 
BRANCH  12  19
ATOM     19  C   LIG    1        6.870  -3.169   2.306  0.00  0.00    +0.101 C 
ATOM     20  N   LIG    1        7.922  -3.490   2.590  0.00  0.00    -0.191 NA
ENDBRANCH  12  19
ENDBRANCH   1  17
BRANCH   5  21
ATOM     21  C   LIG    1       -3.286  -4.727   1.573  0.00  0.00    +0.089 C 
BRANCH  21  22
ATOM     22  C   LIG    1       -3.517  -6.197   1.215  0.00  0.00    +0.050 C 
BRANCH  22  23
ATOM     23  C   LIG    1       -4.575  -6.774   2.119  0.00  0.00    -0.046 A 
ATOM     24  C   LIG    1       -4.216  -7.356   3.320  0.00  0.00    +0.006 A 
ATOM     25  C   LIG    1       -5.186  -7.885   4.150  0.00  0.00    +0.038 A 
ATOM     26  C   LIG    1       -6.519  -7.831   3.778  0.00  0.00    +0.123 A 
ATOM     27  F   LIG    1       -7.468  -8.348   4.589  0.00  0.00    -0.205 F 
ATOM     28  C   LIG    1       -6.878  -7.247   2.575  0.00  0.00    +0.038 A 
ATOM     29  C   LIG    1       -5.906  -6.714   1.749  0.00  0.00    +0.006 A 
ENDBRANCH  22  23
ENDBRANCH  21  22
ENDBRANCH   5  21
TORSDOF 5
