REMARK  Name = ZINC28823616
REMARK                            x       y       z     vdW  Elec       q    Type
REMARK                         _______ _______ _______ _____ _____    ______ ____
ROOT
ATOM      1  C   LIG    1       -0.850  -0.915  -0.091  0.00  0.00    +0.247 C 
ATOM      2  N   LIG    1       -1.107  -2.237  -0.044  0.00  0.00    -0.296 N 
ATOM      3  O   LIG    1        0.276  -0.507   0.118  0.00  0.00    -0.270 OA
ENDROOT
BRANCH   2   4
ATOM      4  C   LIG    1       -0.025  -3.184   0.231  0.00  0.00    +0.058 C 
ATOM      5  C   LIG    1        1.024  -3.146  -0.905  0.00  0.00    +0.001 C 
ATOM      6  C   LIG    1        2.109  -2.194  -0.343  0.00  0.00    -0.081 C 
ATOM      7  N   LIG    1        2.147  -2.538   1.102  0.00  0.00    +0.380 N 
ATOM      8  H   LIG    1        2.591  -1.704   1.666  0.00  0.00    -0.086 HD
ATOM      9  H   LIG    1        2.756  -3.443   1.247  0.00  0.00    -0.086 HD
ATOM     10  C   LIG    1        0.742  -2.767   1.500  0.00  0.00    -0.060 C 
ENDBRANCH   2   4
BRANCH   1  14
ATOM     11  C   LIG    1       -3.974   1.827  -0.969  0.00  0.00    -0.064 A 
ATOM     12  C   LIG    1       -2.849   1.784  -1.773  0.00  0.00    +0.002 A 
ATOM     13  C   LIG    1       -1.831   0.896  -1.493  0.00  0.00    +0.013 A 
ATOM     14  C   LIG    1       -1.937   0.040  -0.396  0.00  0.00    +0.037 A 
ATOM     15  C   LIG    1       -3.075   0.088   0.411  0.00  0.00    +0.013 A 
ATOM     16  C   LIG    1       -4.086   0.980   0.120  0.00  0.00    +0.002 A 
BRANCH  11  17
ATOM     17  C   LIG    1       -5.082   2.799  -1.281  0.00  0.00    -0.043 C 
BRANCH  17  18
ATOM     18  N   LIG    1       -4.834   4.066  -0.580  0.00  0.00    +0.382 N 
ATOM     19  H   LIG    1       -4.660   3.837   0.481  0.00  0.00    -0.081 HD
BRANCH  18  21
ATOM     20  C   LIG    1       -3.847   5.095  -2.571  0.00  0.00    -0.017 C 
ATOM     21  C   LIG    1       -3.631   4.729  -1.102  0.00  0.00    -0.082 C 
ENDBRANCH  18  21
BRANCH  18  22
ATOM     22  C   LIG    1       -6.002   4.952  -0.665  0.00  0.00    -0.082 C 
ATOM     23  C   LIG    1       -5.775   6.182   0.216  0.00  0.00    -0.017 C 
ENDBRANCH  18  22
ENDBRANCH  17  18
ENDBRANCH  11  17
ENDBRANCH   1  14
BRANCH   2  24
ATOM     24  C   LIG    1       -2.470  -2.726  -0.268  0.00  0.00    +0.113 C 
BRANCH  24  25
ATOM     25  C   LIG    1       -2.707  -2.906  -1.769  0.00  0.00    +0.058 C 
BRANCH  25  26
ATOM     26  C   LIG    1       -4.079  -3.487  -1.994  0.00  0.00    -0.004 A 
ATOM     27  C   LIG    1       -4.242  -4.855  -2.103  0.00  0.00    +0.007 A 
ATOM     28  C   LIG    1       -5.500  -5.388  -2.309  0.00  0.00    +0.000 A 
ATOM     29  C   LIG    1       -6.599  -4.555  -2.408  0.00  0.00    +0.004 A 
ATOM     30  C   LIG    1       -6.442  -3.187  -2.301  0.00  0.00    +0.046 A 
ATOM     31  C   LIG    1       -5.181  -2.649  -2.088  0.00  0.00    +0.123 A 
BRANCH  31  32
ATOM     32  O   LIG    1       -5.025  -1.304  -1.976  0.00  0.00    -0.495 OA
ATOM     33  C   LIG    1       -6.212  -0.509  -1.999  0.00  0.00    +0.277 C 
ENDBRANCH  31  32
ENDBRANCH  25  26
ENDBRANCH  24  25
ENDBRANCH   2  24
TORSDOF 10
