REMARK  Name = ZINC15539939
REMARK                            x       y       z     vdW  Elec       q    Type
REMARK                         _______ _______ _______ _____ _____    ______ ____
ROOT
ATOM      1  N   LIG    1        0.000  -0.683  -1.188  0.00  0.00    -0.237 N 
ATOM      2  H   LIG    1       -0.015  -0.193  -2.026  0.00  0.00    +0.291 HD
ENDROOT
BRANCH   1   4
ATOM      3  C   LIG    1       -0.018   1.503   0.010  0.00  0.00    +0.139 C 
ATOM      4  C   LIG    1        0.002  -0.004   0.002  0.00  0.00    +0.233 C 
ATOM      5  N   LIG    1        0.021  -0.657   1.118  0.00  0.00    -0.293 N 
ATOM      6  H   LIG    1        0.023  -0.176   1.961  0.00  0.00    +0.301 HD
ATOM      7  H   LIG    1        0.035  -1.627   1.113  0.00  0.00    +0.301 HD
ENDBRANCH   1   4
BRANCH   1   8
ATOM      8  C   LIG    1        0.020  -2.147  -1.196  0.00  0.00    +0.258 C 
BRANCH   8   9
ATOM      9  C   LIG    1        0.013  -2.642  -2.620  0.00  0.00    -0.008 A 
ATOM     10  C   LIG    1       -1.187  -2.880  -3.263  0.00  0.00    +0.007 A 
ATOM     11  C   LIG    1       -1.193  -3.334  -4.569  0.00  0.00    +0.000 A 
ATOM     12  C   LIG    1        0.001  -3.549  -5.231  0.00  0.00    +0.000 A 
ATOM     13  C   LIG    1        1.201  -3.311  -4.588  0.00  0.00    +0.000 A 
ATOM     14  C   LIG    1        1.207  -2.853  -3.284  0.00  0.00    +0.007 A 
ENDBRANCH   8   9
ENDBRANCH   1   8
TORSDOF 3
