REMARK  Name = ZINC23717926
REMARK                            x       y       z     vdW  Elec       q    Type
REMARK                         _______ _______ _______ _____ _____    ______ ____
ROOT
ATOM      1  C   LIG    1       -5.138   5.619   0.104  0.00  0.00    +0.249 C 
ATOM      2  N   LIG    1       -3.821   5.329   0.093  0.00  0.00    -0.297 N 
ATOM      3  C   LIG    1       -3.122   5.074  -1.174  0.00  0.00    +0.110 C 
ATOM      4  C   LIG    1       -2.403   3.725  -1.077  0.00  0.00    +0.044 C 
ATOM      5  C   LIG    1       -1.494   3.722   0.154  0.00  0.00    +0.095 C 
ATOM      6  C   LIG    1       -2.341   3.909   1.415  0.00  0.00    +0.044 C 
ATOM      7  C   LIG    1       -3.059   5.261   1.347  0.00  0.00    +0.110 C 
ATOM      8  O   LIG    1       -5.741   5.746  -0.944  0.00  0.00    -0.270 OA
ENDROOT
BRANCH   5   9
ATOM      9  N   LIG    1       -0.780   2.446   0.231  0.00  0.00    -0.289 N 
ATOM     10  C   LIG    1        0.603   2.283   0.209  0.00  0.00    +0.070 A 
ATOM     11  C   LIG    1        1.664   3.171   0.122  0.00  0.00    +0.028 A 
ATOM     12  C   LIG    1        2.961   2.695   0.132  0.00  0.00    +0.002 A 
ATOM     13  C   LIG    1        3.205   1.336   0.227  0.00  0.00    +0.002 A 
ATOM     14  C   LIG    1        2.155   0.444   0.313  0.00  0.00    +0.028 A 
ATOM     15  C   LIG    1        0.850   0.912   0.305  0.00  0.00    +0.067 A 
ATOM     16  N   LIG    1       -0.392   0.284   0.377  0.00  0.00    -0.306 N 
ATOM     17  H   LIG    1       -0.450  -0.812   0.459  0.00  0.00    +0.170 HD
ATOM     18  C   LIG    1       -1.349   1.229   0.327  0.00  0.00    +0.328 A 
ATOM     19  O   LIG    1       -2.546   1.017   0.367  0.00  0.00    -0.247 OA
ENDBRANCH   5   9
BRANCH   1  25
ATOM     20  C   LIG    1       -6.044   6.837   3.537  0.00  0.00    +0.001 A 
ATOM     21  C   LIG    1       -7.178   6.087   3.800  0.00  0.00    +0.003 A 
ATOM     22  C   LIG    1       -7.652   5.186   2.865  0.00  0.00    +0.039 A 
ATOM     23  C   LIG    1       -6.993   5.027   1.659  0.00  0.00    +0.135 A 
ATOM     24  F   LIG    1       -7.456   4.146   0.746  0.00  0.00    -0.205 F 
ATOM     25  C   LIG    1       -5.847   5.781   1.389  0.00  0.00    +0.072 A 
ATOM     26  C   LIG    1       -5.374   6.685   2.342  0.00  0.00    +0.016 A 
ENDBRANCH   1  25
TORSDOF 2
