REMARK  Name = ZINC58506736
REMARK                            x       y       z     vdW  Elec       q    Type
REMARK                         _______ _______ _______ _____ _____    ______ ____
ROOT
ATOM      1  C   LIG    1        3.660   2.164  -0.022  0.00  0.00    +0.075 A 
ATOM      2  C   LIG    1        3.633   3.552   0.097  0.00  0.00    +0.056 A 
ATOM      3  C   LIG    1        4.831   4.250   0.088  0.00  0.00    +0.071 A 
ATOM      4  C   LIG    1        6.036   3.529  -0.041  0.00  0.00    +0.125 A 
ATOM      5  N   LIG    1        7.036   4.430  -0.023  0.00  0.00    -0.233 NA
ATOM      6  C   LIG    1        6.546   5.631   0.106  0.00  0.00    +0.197 A 
ATOM      7  C   LIG    1        5.977   2.127  -0.156  0.00  0.00    +0.168 A 
ATOM      8  N   LIG    1        5.189   5.576   0.179  0.00  0.00    -0.344 N 
ATOM      9  H   LIG    1        4.586   6.330   0.276  0.00  0.00    +0.167 HD
ATOM     10  N   LIG    1        4.806   1.506  -0.137  0.00  0.00    -0.234 NA
ENDROOT
BRANCH   1  13
ATOM     11  C   LIG    1       -0.017   1.379   0.010  0.00  0.00    +0.001 A 
ATOM     12  C   LIG    1        1.168   2.088   0.002  0.00  0.00    +0.010 A 
ATOM     13  C   LIG    1        2.384   1.407  -0.013  0.00  0.00    +0.001 A 
ATOM     14  C   LIG    1        2.397   0.014  -0.021  0.00  0.00    +0.022 A 
ATOM     15  C   LIG    1        1.206  -0.685  -0.013  0.00  0.00    +0.055 A 
ATOM     16  C   LIG    1        0.002  -0.004   0.002  0.00  0.00    +0.012 A 
BRANCH  15  17
ATOM     17  C   LIG    1        1.219  -2.192  -0.021  0.00  0.00    +0.417 C 
ATOM     18  F   LIG    1        2.358  -2.645  -0.694  0.00  0.00    -0.166 F 
ATOM     19  F   LIG    1        0.074  -2.664  -0.672  0.00  0.00    -0.166 F 
ATOM     20  F   LIG    1        1.235  -2.665   1.295  0.00  0.00    -0.166 F 
ENDBRANCH  15  17
ENDBRANCH   1  13
BRANCH   7  21
ATOM     21  C   LIG    1        7.185   1.370  -0.289  0.00  0.00    +0.121 C 
ATOM     22  N   LIG    1        8.143   0.769  -0.395  0.00  0.00    -0.189 NA
ENDBRANCH   7  21
TORSDOF 3
