REMARK  Name = ZINC13781169
REMARK                            x       y       z     vdW  Elec       q    Type
REMARK                         _______ _______ _______ _____ _____    ______ ____
ROOT
ATOM      1  C   LIG    1       -0.019   1.526   0.010  0.00  0.00    +0.057 C 
ATOM      2  C   LIG    1        0.002  -0.004   0.002  0.00  0.00    +0.170 C 
ATOM      3  C   LIG    1        0.753  -0.524  -1.246  0.00  0.00    +0.060 C 
ATOM      4  C   LIG    1        1.477  -1.760  -0.661  0.00  0.00    +0.127 C 
ATOM      5  C   LIG    1        1.571  -1.459   0.818  0.00  0.00    +0.236 C 
ATOM      6  N   LIG    1        0.765  -0.509   1.149  0.00  0.00    -0.277 N 
ATOM      7  H   LIG    1        0.674  -0.166   2.052  0.00  0.00    +0.304 HD
ENDROOT
BRANCH   5   8
ATOM      8  N   LIG    1        2.400  -2.112   1.692  0.00  0.00    -0.254 N 
ATOM      9  H   LIG    1        2.408  -1.865   2.630  0.00  0.00    +0.288 HD
ATOM     10  H   LIG    1        2.981  -2.820   1.372  0.00  0.00    +0.288 HD
ENDBRANCH   5   8
TORSDOF 1
