REMARK  Name = ZINC53151259
REMARK                            x       y       z     vdW  Elec       q    Type
REMARK                         _______ _______ _______ _____ _____    ______ ____
ROOT
ATOM      1  N   LIG    1       -2.348  -6.677   4.246  0.00  0.00    -0.340 N 
ATOM      2  H   LIG    1       -3.103  -6.109   4.467  0.00  0.00    +0.146 HD
ENDROOT
BRANCH   1   3
ATOM      3  C   LIG    1       -1.540  -7.170   5.248  0.00  0.00    +0.079 C 
ATOM      4  C   LIG    1       -0.455  -6.419   5.744  0.00  0.00    +0.026 C 
ATOM      5  C   LIG    1       -0.164  -5.144   5.230  0.00  0.00    +0.007 C 
ATOM      6  C   LIG    1        0.889  -4.441   5.728  0.00  0.00    +0.000 C 
ATOM      7  C   LIG    1        1.687  -4.970   6.743  0.00  0.00    +0.002 C 
ATOM      8  C   LIG    1        1.436  -6.200   7.264  0.00  0.00    +0.019 C 
ATOM      9  C   LIG    1        0.354  -6.961   6.778  0.00  0.00    +0.059 C 
ATOM     10  N   LIG    1        0.097  -8.168   7.281  0.00  0.00    -0.310 NA
ATOM     11  H   LIG    1        0.665  -8.514   7.987  0.00  0.00    +0.122 HD
ATOM     12  C   LIG    1       -0.917  -8.912   6.843  0.00  0.00    +0.059 C 
ATOM     13  C   LIG    1       -1.160 -10.185   7.399  0.00  0.00    +0.019 C 
ATOM     14  C   LIG    1       -2.207 -10.929   6.953  0.00  0.00    +0.002 C 
ATOM     15  C   LIG    1       -3.044 -10.461   5.940  0.00  0.00    +0.000 C 
ATOM     16  C   LIG    1       -2.841  -9.240   5.375  0.00  0.00    +0.007 C 
ATOM     17  C   LIG    1       -1.774  -8.438   5.816  0.00  0.00    +0.026 C 
ENDBRANCH   1   3
BRANCH   1  21
ATOM     18  C   LIG    1       -1.546  -7.626   0.267  0.00  0.00    +0.030 A 
ATOM     19  C   LIG    1       -2.693  -6.914   0.593  0.00  0.00    +0.025 A 
ATOM     20  C   LIG    1       -2.958  -6.600   1.911  0.00  0.00    +0.025 A 
ATOM     21  C   LIG    1       -2.079  -6.996   2.910  0.00  0.00    +0.027 A 
ATOM     22  C   LIG    1       -0.932  -7.708   2.584  0.00  0.00    +0.025 A 
ATOM     23  C   LIG    1       -0.669  -8.027   1.267  0.00  0.00    +0.025 A 
BRANCH  18  29
ATOM     24  C   LIG    1       -1.392 -10.548  -4.343  0.00  0.00    -0.096 C 
ATOM     25  N   LIG    1       -1.173  -9.400  -3.453  0.00  0.00    +0.380 N 
ATOM     26  H   LIG    1       -0.705  -8.665  -3.962  0.00  0.00    -0.082 HD
ATOM     27  C   LIG    1       -0.336  -9.814  -2.319  0.00  0.00    -0.060 C 
ATOM     28  C   LIG    1       -0.013  -8.593  -1.452  0.00  0.00    +0.086 C 
ATOM     29  N   LIG    1       -1.276  -7.945  -1.069  0.00  0.00    -0.333 N 
ATOM     30  C   LIG    1       -2.249  -7.641  -2.130  0.00  0.00    +0.086 C 
ATOM     31  C   LIG    1       -2.467  -8.907  -2.965  0.00  0.00    -0.060 C 
ENDBRANCH  18  29
ENDBRANCH   1  21
TORSDOF 3
