REMARK  Name = ZINC29043608
REMARK                            x       y       z     vdW  Elec       q    Type
REMARK                         _______ _______ _______ _____ _____    ______ ____
ROOT
ATOM      1  C   LIG    1        0.059   1.355   0.033  0.00  0.00    +0.043 A 
ATOM      2  C   LIG    1        1.277   2.020   0.059  0.00  0.00    +0.024 A 
ATOM      3  C   LIG    1        2.457   1.302   0.063  0.00  0.00    +0.002 A 
ATOM      4  C   LIG    1        2.433  -0.081   0.042  0.00  0.00    +0.001 A 
ATOM      5  C   LIG    1        1.229  -0.756   0.016  0.00  0.00    +0.012 A 
ATOM      6  C   LIG    1        0.033  -0.044   0.012  0.00  0.00    +0.023 A 
ENDROOT
BRANCH   6   7
ATOM      7  C   LIG    1       -1.263  -0.764  -0.016  0.00  0.00    +0.092 A 
ATOM      8  C   LIG    1       -1.429  -2.107   0.054  0.00  0.00    +0.121 A 
ATOM      9  N   LIG    1       -2.794  -2.366  -0.001  0.00  0.00    -0.299 N 
ATOM     10  C   LIG    1       -3.633  -3.460   0.022  0.00  0.00    +0.016 A 
ATOM     11  C   LIG    1       -4.953  -3.309  -0.062  0.00  0.00    +0.068 A 
ATOM     12  S   LIG    1       -5.116  -1.535  -0.184  0.00  0.00    -0.057 S 
ATOM     13  C   LIG    1       -3.385  -1.134  -0.112  0.00  0.00    +0.178 A 
ATOM     14  N   LIG    1       -2.483  -0.197  -0.121  0.00  0.00    -0.221 NA
BRANCH  10  15
ATOM     15  C   LIG    1       -3.048  -4.843   0.143  0.00  0.00    -0.023 C 
BRANCH  15  16
ATOM     16  N   LIG    1       -2.669  -5.333  -1.189  0.00  0.00    +0.385 N 
ATOM     17  H   LIG    1       -2.060  -4.545  -1.657  0.00  0.00    -0.081 HD
ATOM     18  C   LIG    1       -3.866  -5.600  -2.016  0.00  0.00    -0.076 C 
ATOM     19  C   LIG    1       -3.475  -6.810  -2.899  0.00  0.00    +0.011 C 
ATOM     20  C   LIG    1       -2.616  -7.651  -1.917  0.00  0.00    +0.096 C 
ATOM     21  C   LIG    1       -1.880  -6.575  -1.091  0.00  0.00    -0.047 C 
BRANCH  20  22
ATOM     22  O   LIG    1       -1.684  -8.465  -2.631  0.00  0.00    -0.394 OA
ATOM     23  H   LIG    1       -0.997  -9.125  -2.082  0.00  0.00    +0.210 HD
ENDBRANCH  20  22
ENDBRANCH  15  16
ENDBRANCH  10  15
ENDBRANCH   6   7
BRANCH   1  25
ATOM     24  C   LIG    1       -1.156   3.339  -0.458  0.00  0.00    +0.248 C 
ATOM     25  N   LIG    1       -1.135   2.080   0.023  0.00  0.00    -0.281 N 
ATOM     26  H   LIG    1       -2.059   1.623   0.406  0.00  0.00    +0.155 HD
ATOM     27  O   LIG    1       -0.160   3.809  -0.973  0.00  0.00    -0.270 OA
BRANCH  24  33
ATOM     28  C   LIG    1       -5.917   7.678  -0.541  0.00  0.00    +0.001 A 
ATOM     29  C   LIG    1       -4.786   8.233  -1.135  0.00  0.00    +0.001 A 
ATOM     30  C   LIG    1       -3.632   7.521  -1.246  0.00  0.00    +0.008 A 
ATOM     31  C   LIG    1       -3.577   6.204  -0.754  0.00  0.00    -0.017 A 
ATOM     32  C   LIG    1       -2.403   5.441  -0.853  0.00  0.00    +0.021 A 
ATOM     33  C   LIG    1       -2.388   4.148  -0.357  0.00  0.00    +0.038 A 
ATOM     34  C   LIG    1       -3.539   3.597   0.235  0.00  0.00    +0.013 A 
ATOM     35  C   LIG    1       -4.681   4.322   0.344  0.00  0.00    +0.009 A 
ATOM     36  C   LIG    1       -4.728   5.639  -0.150  0.00  0.00    -0.018 A 
ATOM     37  C   LIG    1       -5.901   6.406  -0.054  0.00  0.00    +0.008 A 
ENDBRANCH  24  33
ENDBRANCH   1  25
TORSDOF 6
