REMARK  Name = ZINC13782580
REMARK                            x       y       z     vdW  Elec       q    Type
REMARK                         _______ _______ _______ _____ _____    ______ ____
ROOT
ATOM      1  N   LIG    1       -1.545   7.212   0.049  0.00  0.00    -0.299 N 
ATOM      2  C   LIG    1       -2.906   7.293   0.056  0.00  0.00    +0.205 A 
ATOM      3  N   LIG    1       -3.425   6.100   0.052  0.00  0.00    -0.235 NA
ATOM      4  C   LIG    1       -2.432   5.171   0.042  0.00  0.00    +0.090 A 
ATOM      5  C   LIG    1       -2.423   3.778   0.034  0.00  0.00    +0.043 A 
ATOM      6  C   LIG    1       -1.207   3.100   0.025  0.00  0.00    +0.039 A 
ATOM      7  C   LIG    1       -0.003   3.815   0.029  0.00  0.00    +0.015 A 
ATOM      8  C   LIG    1       -0.008   5.180   0.031  0.00  0.00    +0.029 A 
ATOM      9  C   LIG    1       -1.213   5.873   0.041  0.00  0.00    +0.073 A 
ENDROOT
BRANCH   1  13
ATOM     10  C   LIG    1        1.118  10.419   0.054  0.00  0.00    +0.000 A 
ATOM     11  C   LIG    1        0.080  10.385  -0.859  0.00  0.00    +0.002 A 
ATOM     12  C   LIG    1       -0.804   9.324  -0.863  0.00  0.00    +0.026 A 
ATOM     13  C   LIG    1       -0.650   8.290   0.051  0.00  0.00    +0.048 A 
ATOM     14  C   LIG    1        0.390   8.330   0.971  0.00  0.00    +0.026 A 
ATOM     15  C   LIG    1        1.274   9.391   0.966  0.00  0.00    +0.002 A 
ENDBRANCH   1  13
BRANCH   6  16
ATOM     16  C   LIG    1       -1.187   1.624   0.017  0.00  0.00    +0.242 C 
ATOM     17  N   LIG    1       -0.011   0.966   0.007  0.00  0.00    -0.325 N 
ATOM     18  H   LIG    1        0.822   1.462   0.002  0.00  0.00    +0.145 HD
ATOM     19  H   LIG    1        0.002  -0.004   0.002  0.00  0.00    +0.145 HD
ATOM     20  O   LIG    1       -2.232   1.002   0.018  0.00  0.00    -0.270 OA
ENDBRANCH   6  16
TORSDOF 2
