REMARK  Name = ZINC29054164
REMARK                            x       y       z     vdW  Elec       q    Type
REMARK                         _______ _______ _______ _____ _____    ______ ____
ROOT
ATOM      1  C   LIG    1        1.115   6.214  -2.018  0.00  0.00    +0.144 A 
ATOM      2  C   LIG    1       -0.091   5.858  -1.388  0.00  0.00    +0.086 A 
ATOM      3  N   LIG    1       -1.233   5.968  -2.022  0.00  0.00    -0.246 NA
ATOM      4  C   LIG    1       -1.255   6.419  -3.283  0.00  0.00    +0.090 A 
ATOM      5  C   LIG    1       -2.466   6.547  -3.984  0.00  0.00    +0.030 A 
ATOM      6  C   LIG    1       -2.459   7.008  -5.265  0.00  0.00    +0.002 A 
ATOM      7  C   LIG    1       -1.266   7.357  -5.894  0.00  0.00    +0.002 A 
ATOM      8  C   LIG    1       -0.074   7.246  -5.246  0.00  0.00    +0.030 A 
ATOM      9  C   LIG    1       -0.042   6.774  -3.923  0.00  0.00    +0.091 A 
ATOM     10  N   LIG    1        1.116   6.654  -3.262  0.00  0.00    -0.229 NA
ENDROOT
BRANCH   1  15
ATOM     11  C   LIG    1        6.385   6.292  -0.221  0.00  0.00    +0.105 C 
ATOM     12  N   LIG    1        5.116   6.417  -0.951  0.00  0.00    -0.302 NA
ATOM     13  C   LIG    1        4.546   5.096  -1.247  0.00  0.00    +0.103 C 
ATOM     14  C   LIG    1        3.270   5.267  -2.075  0.00  0.00    +0.122 C 
ATOM     15  N   LIG    1        2.312   6.095  -1.329  0.00  0.00    -0.311 N 
ATOM     16  C   LIG    1        2.883   7.417  -1.032  0.00  0.00    +0.122 C 
ATOM     17  C   LIG    1        4.158   7.245  -0.204  0.00  0.00    +0.103 C 
ENDBRANCH   1  15
BRANCH   2  18
ATOM     18  C   LIG    1       -0.071   5.351   0.031  0.00  0.00    +0.094 C 
BRANCH  18  19
ATOM     19  C   LIG    1       -0.067   3.844   0.026  0.00  0.00    -0.041 A 
ATOM     20  C   LIG    1        1.132   3.155   0.007  0.00  0.00    +0.004 A 
ATOM     21  C   LIG    1        1.135   1.773   0.002  0.00  0.00    +0.000 A 
ATOM     22  C   LIG    1       -0.060   1.079   0.015  0.00  0.00    +0.000 A 
ATOM     23  C   LIG    1       -1.259   1.767   0.028  0.00  0.00    +0.000 A 
ATOM     24  C   LIG    1       -1.262   3.150   0.039  0.00  0.00    +0.004 A 
ENDBRANCH  18  19
ENDBRANCH   2  18
TORSDOF 3
