REMARK  Name = ZINC38140992
REMARK                            x       y       z     vdW  Elec       q    Type
REMARK                         _______ _______ _______ _____ _____    ______ ____
ROOT
ATOM      1  C   LIG    1        4.403 -10.614  -7.593  0.00  0.00    +0.002 C 
ENDROOT
BRANCH   1   2
ATOM      2  C   LIG    1        3.687 -10.120  -6.334  0.00  0.00    +0.000 C 
BRANCH   2   3
ATOM      3  C   LIG    1        3.666  -8.591  -6.326  0.00  0.00    +0.000 C 
BRANCH   3   4
ATOM      4  C   LIG    1        2.950  -8.097  -5.067  0.00  0.00    +0.000 C 
BRANCH   4   5
ATOM      5  C   LIG    1        2.929  -6.567  -5.058  0.00  0.00    -0.000 C 
BRANCH   5   6
ATOM      6  C   LIG    1        2.213  -6.074  -3.800  0.00  0.00    -0.000 C 
BRANCH   6   7
ATOM      7  C   LIG    1        2.192  -4.544  -3.791  0.00  0.00    -0.000 C 
BRANCH   7   8
ATOM      8  C   LIG    1        1.476  -4.051  -2.532  0.00  0.00    -0.000 C 
BRANCH   8   9
ATOM      9  C   LIG    1        1.455  -2.521  -2.524  0.00  0.00    -0.000 C 
BRANCH   9  10
ATOM     10  C   LIG    1        0.739  -2.027  -1.265  0.00  0.00    -0.000 C 
BRANCH  10  11
ATOM     11  C   LIG    1        0.718  -0.497  -1.257  0.00  0.00    -0.000 C 
BRANCH  11  13
ATOM     12  C   LIG    1       -0.019   1.526   0.010  0.00  0.00    +0.004 C 
ATOM     13  C   LIG    1        0.002  -0.004   0.002  0.00  0.00    -0.003 C 
ENDBRANCH  11  13
ENDBRANCH  10  11
ENDBRANCH   9  10
ENDBRANCH   8   9
ENDBRANCH   7   8
ENDBRANCH   6   7
ENDBRANCH   5   6
ENDBRANCH   4   5
ENDBRANCH   3   4
ENDBRANCH   2   3
ENDBRANCH   1   2
BRANCH   1  14
ATOM     14  C   LIG    1        4.423 -12.144  -7.601  0.00  0.00    +0.019 C 
BRANCH  14  15
ATOM     15  C   LIG    1        5.139 -12.637  -8.860  0.00  0.00    +0.104 C 
BRANCH  15  16
ATOM     16  N   LIG    1        5.159 -14.102  -8.868  0.00  0.00    -0.315 N 
ATOM     17  H   LIG    1        4.753 -14.596  -8.139  0.00  0.00    +0.149 HD
ATOM     18  C   LIG    1        5.742 -14.762  -9.888  0.00  0.00    +0.216 C 
ATOM     19  O   LIG    1        6.251 -14.144 -10.799  0.00  0.00    -0.276 OA
BRANCH  18  20
ATOM     20  C   LIG    1        5.763 -16.269  -9.896  0.00  0.00    +0.075 C 
ATOM     21  C   LIG    1        6.503 -16.776  -8.657  0.00  0.00    +0.013 C 
ATOM     22  C   LIG    1        6.524 -18.306  -8.665  0.00  0.00    +0.001 C 
ATOM     23  C   LIG    1        7.240 -18.799  -9.924  0.00  0.00    +0.000 C 
ATOM     24  C   LIG    1        6.500 -18.292 -11.164  0.00  0.00    +0.001 C 
ATOM     25  C   LIG    1        6.479 -16.763 -11.155  0.00  0.00    +0.013 C 
ENDBRANCH  18  20
ENDBRANCH  15  16
ENDBRANCH  14  15
ENDBRANCH   1  14
TORSDOF 15
