REMARK  Name = ZINC00019969
REMARK                            x       y       z     vdW  Elec       q    Type
REMARK                         _______ _______ _______ _____ _____    ______ ____
ROOT
ATOM      1  C   LIG    1       -3.297   2.748  -1.368  0.00  0.00    +0.101 C 
ENDROOT
BRANCH   1   2
ATOM      2  C   LIG    1       -4.234   1.868  -0.582  0.00  0.00    +0.308 C 
ATOM      3  O   LIG    1       -3.831   0.838  -0.095  0.00  0.00    -0.251 OA
BRANCH   2   4
ATOM      4  O   LIG    1       -5.517   2.229  -0.422  0.00  0.00    -0.480 OA
ATOM      5  H   LIG    1       -5.830   3.027  -0.799  0.00  0.00    +0.295 HD
ENDBRANCH   2   4
ENDBRANCH   1   2
BRANCH   1   6
ATOM      6  C   LIG    1       -3.819   2.900  -2.798  0.00  0.00    +0.049 C 
BRANCH   6  12
ATOM      7  C   LIG    1       -9.919   5.013  -2.614  0.00  0.00    +0.001 A 
ATOM      8  C   LIG    1       -9.910   3.622  -2.520  0.00  0.00    +0.001 A 
ATOM      9  C   LIG    1       -8.740   2.927  -2.536  0.00  0.00    +0.008 A 
ATOM     10  C   LIG    1       -7.521   3.618  -2.647  0.00  0.00    -0.018 A 
ATOM     11  C   LIG    1       -6.294   2.934  -2.673  0.00  0.00    +0.012 A 
ATOM     12  C   LIG    1       -5.133   3.637  -2.777  0.00  0.00    -0.046 A 
ATOM     13  C   LIG    1       -5.143   5.027  -2.871  0.00  0.00    +0.004 A 
ATOM     14  C   LIG    1       -6.312   5.723  -2.855  0.00  0.00    +0.009 A 
ATOM     15  C   LIG    1       -7.531   5.032  -2.743  0.00  0.00    -0.018 A 
ATOM     16  C   LIG    1       -8.758   5.716  -2.724  0.00  0.00    +0.008 A 
ENDBRANCH   6  12
ENDBRANCH   1   6
BRANCH   1  17
ATOM     17  C   LIG    1       -1.905   2.112  -1.398  0.00  0.00    +0.010 C 
BRANCH  17  18
ATOM     18  CA  LIG    1       -1.331   2.074   0.020  0.00  0.00    +0.037 C 
BRANCH  18  19
ATOM     19  N   LIG    1       -1.145   3.455   0.498  0.00  0.00    +0.387 N 
ATOM     20  H1  LIG    1       -2.045   3.948   0.466  0.00  0.00    -0.089 HD
ATOM     21  H2  LIG    1       -0.477   3.943  -0.097  0.00  0.00    -0.089 HD
ATOM     22  H3  LIG    1       -0.803   3.449   1.457  0.00  0.00    -0.089 HD
ENDBRANCH  18  19
BRANCH  18  23
ATOM     23  C   LIG    1       -0.016   1.338   0.009  0.00  0.00    +0.290 C 
ATOM     24  O   LIG    1        1.022   1.956   0.003  0.00  0.00    -0.253 OA
BRANCH  23  25
ATOM     25  OXT LIG    1        0.002  -0.004   0.002  0.00  0.00    -0.482 OA
ATOM     26  HXT LIG    1       -0.803  -0.484   0.007  0.00  0.00    +0.295 HD
ENDBRANCH  23  25
ENDBRANCH  18  23
ENDBRANCH  17  18
ENDBRANCH   1  17
TORSDOF 9
