REMARK  Name = ZINC29046739
REMARK                            x       y       z     vdW  Elec       q    Type
REMARK                         _______ _______ _______ _____ _____    ______ ____
ROOT
ATOM      1  C   LIG    1        0.037  -3.309  -1.595  0.00  0.00    +0.096 C 
ATOM      2  C   LIG    1        1.121  -4.139  -1.603  0.00  0.00    +0.089 C 
ENDROOT
BRANCH   1   6
ATOM      3  C   LIG    1       -0.032   1.490   0.045  0.00  0.00    +0.069 C 
ATOM      4  C   LIG    1       -0.010  -0.017   0.027  0.00  0.00    +0.081 A 
ATOM      5  C   LIG    1        0.001  -0.824  -1.118  0.00  0.00    +0.076 A 
ATOM      6  C   LIG    1        0.021  -2.127  -0.715  0.00  0.00    +0.174 A 
ATOM      7  O   LIG    1        0.023  -2.138   0.632  0.00  0.00    -0.354 OA
ATOM      8  N   LIG    1        0.008  -0.793   1.076  0.00  0.00    -0.083 NA
ENDBRANCH   1   6
BRANCH   1   9
ATOM      9  C   LIG    1       -1.112  -3.594  -2.462  0.00  0.00    +0.253 C 
ATOM     10  N   LIG    1       -2.182  -2.775  -2.453  0.00  0.00    -0.281 N 
ATOM     11  H   LIG    1       -2.221  -2.035  -1.827  0.00  0.00    +0.155 HD
ATOM     12  O   LIG    1       -1.098  -4.571  -3.188  0.00  0.00    -0.270 OA
BRANCH  10  13
ATOM     13  C   LIG    1       -3.235  -2.991  -3.348  0.00  0.00    +0.034 A 
ATOM     14  C   LIG    1       -3.919  -1.911  -3.891  0.00  0.00    +0.025 A 
ATOM     15  C   LIG    1       -4.958  -2.127  -4.774  0.00  0.00    +0.022 A 
ATOM     16  C   LIG    1       -5.318  -3.418  -5.120  0.00  0.00    +0.041 A 
ATOM     17 CL   LIG    1       -6.624  -3.685  -6.231  0.00  0.00    -0.084 Cl
ATOM     18  C   LIG    1       -4.638  -4.495  -4.581  0.00  0.00    +0.022 A 
ATOM     19  C   LIG    1       -3.594  -4.285  -3.701  0.00  0.00    +0.025 A 
ENDBRANCH  10  13
ENDBRANCH   1   9
BRANCH   2  20
ATOM     20  N   LIG    1        2.188  -3.875  -0.798  0.00  0.00    -0.320 N 
ATOM     21  H   LIG    1        2.177  -3.096  -0.219  0.00  0.00    +0.152 HD
BRANCH  20  22
ATOM     22  C   LIG    1        3.298  -4.724  -0.807  0.00  0.00    +0.031 A 
ATOM     23  C   LIG    1        3.317  -5.836  -1.640  0.00  0.00    +0.024 A 
ATOM     24  C   LIG    1        4.414  -6.674  -1.646  0.00  0.00    +0.022 A 
ATOM     25  C   LIG    1        5.495  -6.407  -0.824  0.00  0.00    +0.041 A 
ATOM     26 CL   LIG    1        6.872  -7.463  -0.833  0.00  0.00    -0.084 Cl
ATOM     27  C   LIG    1        5.479  -5.301   0.007  0.00  0.00    +0.022 A 
ATOM     28  C   LIG    1        4.386  -4.456   0.013  0.00  0.00    +0.024 A 
ENDBRANCH  20  22
ENDBRANCH   2  20
TORSDOF 5
