REMARK  Name = ZINC43201585
REMARK                            x       y       z     vdW  Elec       q    Type
REMARK                         _______ _______ _______ _____ _____    ______ ____
ROOT
ATOM      1  C   LIG    1       -1.200  -0.637   0.010  0.00  0.00    +0.121 A 
ATOM      2  C   LIG    1       -2.377   0.117   0.020  0.00  0.00    +0.046 A 
ATOM      3  C   LIG    1       -3.596  -0.489   0.027  0.00  0.00    +0.012 A 
ATOM      4  C   LIG    1       -3.678  -1.892   0.026  0.00  0.00    -0.014 A 
ATOM      5  C   LIG    1       -4.922  -2.547   0.033  0.00  0.00    +0.056 A 
ATOM      6  C   LIG    1       -4.969  -3.909   0.031  0.00  0.00    +0.140 A 
ATOM      7  C   LIG    1       -3.789  -4.670   0.022  0.00  0.00    +0.095 A 
ATOM      8  C   LIG    1       -2.566  -4.062   0.015  0.00  0.00    +0.037 A 
ATOM      9  C   LIG    1       -2.485  -2.659   0.016  0.00  0.00    -0.012 A 
ATOM     10  C   LIG    1       -1.243  -2.003   0.003  0.00  0.00    +0.054 A 
ENDROOT
BRANCH   7  11
ATOM     11  N   LIG    1       -3.866  -6.065   0.021  0.00  0.00    -0.175 N 
ATOM     12  C   LIG    1       -3.815  -6.988   1.167  0.00  0.00    +0.230 C 
ATOM     13  C   LIG    1       -3.935  -8.408   0.716  0.00  0.00    +0.228 C 
ATOM     14  N   LIG    1       -4.058  -8.592  -0.545  0.00  0.00    -0.080 NA
ATOM     15  S   LIG    1       -4.048  -7.098  -1.281  0.00  0.00    +0.157 S 
ATOM     16  O   LIG    1       -2.859  -7.016  -2.055  0.00  0.00    -0.131 OA
ATOM     17  O   LIG    1       -5.345  -6.878  -1.819  0.00  0.00    -0.131 OA
BRANCH  13  18
ATOM     18  O   LIG    1       -3.914  -9.437   1.589  0.00  0.00    -0.493 OA
ATOM     19  H   LIG    1       -3.823  -9.271   2.507  0.00  0.00    +0.293 HD
ENDBRANCH  13  18
ENDBRANCH   7  11
BRANCH   1  21
ATOM     20  C   LIG    1       -0.017   1.425   0.010  0.00  0.00    +0.277 C 
ATOM     21  O   LIG    1        0.002  -0.004   0.002  0.00  0.00    -0.495 OA
ENDBRANCH   1  21
BRANCH   6  22
ATOM     22  O   LIG    1       -6.174  -4.539   0.038  0.00  0.00    -0.505 OA
ATOM     23  H   LIG    1       -6.529  -4.720  -0.843  0.00  0.00    +0.292 HD
ENDBRANCH   6  22
TORSDOF 4
