REMARK  Name = ZINC34034921
REMARK                            x       y       z     vdW  Elec       q    Type
REMARK                         _______ _______ _______ _____ _____    ______ ____
ROOT
ATOM      1  C   LIG    1        3.454   1.085  -1.227  0.00  0.00    +0.263 C 
ATOM      2  N   LIG    1        2.110   1.179  -1.213  0.00  0.00    -0.309 N 
ATOM      3  H   LIG    1        1.531   0.914  -2.110  0.00  0.00    +0.149 HD
ATOM      4  O   LIG    1        4.095   1.376  -0.236  0.00  0.00    -0.269 OA
ENDROOT
BRANCH   1  11
ATOM      5  C   LIG    1        7.556  -0.134  -4.029  0.00  0.00    +0.049 A 
ATOM      6  C   LIG    1        7.502  -0.559  -5.301  0.00  0.00    +0.196 A 
ATOM      7  O   LIG    1        6.225  -0.615  -5.717  0.00  0.00    -0.461 OA
ATOM      8  C   LIG    1        5.383  -0.230  -4.741  0.00  0.00    +0.153 A 
ATOM      9  C   LIG    1        4.001  -0.105  -4.645  0.00  0.00    +0.158 A 
ATOM     10  N   LIG    1        3.442   0.303  -3.529  0.00  0.00    -0.247 NA
ATOM     11  C   LIG    1        4.151   0.626  -2.449  0.00  0.00    +0.126 A 
ATOM     12  C   LIG    1        5.538   0.532  -2.454  0.00  0.00    +0.044 A 
ATOM     13  C   LIG    1        6.170   0.097  -3.618  0.00  0.00    +0.024 A 
ENDBRANCH   1  11
BRANCH   2  14
ATOM     14  C   LIG    1        1.420   1.633  -0.003  0.00  0.00    +0.060 C 
ATOM     15  C   LIG    1        1.365   3.163   0.016  0.00  0.00    -0.056 C 
ATOM     16  N   LIG    1       -0.037   3.600   0.038  0.00  0.00    +0.381 N 
ATOM     17  H   LIG    1       -0.047   4.700   0.051  0.00  0.00    -0.082 HD
ATOM     18  C   LIG    1       -0.718   3.128   1.252  0.00  0.00    -0.078 C 
ATOM     19  C   LIG    1       -0.722   1.597   1.268  0.00  0.00    -0.014 C 
ATOM     20  C   LIG    1       -0.747   3.157  -1.169  0.00  0.00    -0.078 C 
ATOM     21  C   LIG    1       -0.746   1.610  -1.233  0.00  0.00    -0.014 C 
ATOM     22  C   LIG    1       -0.013   1.086   0.008  0.00  0.00    +0.004 C 
ENDBRANCH   2  14
TORSDOF 2
