REMARK  Name = ZINC40164425
REMARK                            x       y       z     vdW  Elec       q    Type
REMARK                         _______ _______ _______ _____ _____    ______ ____
ROOT
ATOM      1  C   LIG    1        2.978  -1.382  -0.979  0.00  0.00    +0.178 C 
ATOM      2  C   LIG    1        4.344  -0.758  -0.683  0.00  0.00    +0.177 C 
ATOM      3  C   LIG    1        5.353  -1.236  -1.732  0.00  0.00    +0.179 C 
ATOM      4  C   LIG    1        4.836  -0.868  -3.127  0.00  0.00    +0.201 C 
ATOM      5  C   LIG    1        3.451  -1.487  -3.328  0.00  0.00    +0.285 C 
ATOM      6  O   LIG    1        2.570  -1.026  -2.302  0.00  0.00    -0.340 OA
ENDROOT
BRANCH   4   7
ATOM      7  O   LIG    1        5.735  -1.371  -4.117  0.00  0.00    -0.384 OA
ATOM      8  H   LIG    1        5.468  -1.174  -5.026  0.00  0.00    +0.210 HD
ENDBRANCH   4   7
BRANCH   3   9
ATOM      9  O   LIG    1        6.614  -0.603  -1.506  0.00  0.00    -0.386 OA
ATOM     10  H   LIG    1        7.302  -0.859  -2.135  0.00  0.00    +0.210 HD
ENDBRANCH   3   9
BRANCH   2  11
ATOM     11  O   LIG    1        4.780  -1.159   0.617  0.00  0.00    -0.386 OA
ATOM     12  H   LIG    1        5.641  -0.799   0.872  0.00  0.00    +0.210 HD
ENDBRANCH   2  11
BRANCH   1  13
ATOM     13  C   LIG    1        1.951  -0.863   0.029  0.00  0.00    +0.197 C 
BRANCH  13  14
ATOM     14  O   LIG    1        0.706  -1.536  -0.170  0.00  0.00    -0.346 OA
BRANCH  14  19
ATOM     15  C   LIG    1       -1.124   0.422  -1.013  0.00  0.00    +0.178 C 
ATOM     16  C   LIG    1       -2.380  -0.421  -1.251  0.00  0.00    +0.177 C 
ATOM     17  C   LIG    1       -2.070  -1.886  -0.928  0.00  0.00    +0.179 C 
ATOM     18  C   LIG    1       -1.568  -1.984   0.516  0.00  0.00    +0.201 C 
ATOM     19  C   LIG    1       -0.344  -1.081   0.685  0.00  0.00    +0.282 C 
ATOM     20  O   LIG    1       -0.693   0.262   0.340  0.00  0.00    -0.341 OA
BRANCH  18  21
ATOM     21  O   LIG    1       -1.209  -3.337   0.806  0.00  0.00    -0.384 OA
ATOM     22  H   LIG    1       -0.882  -3.472   1.706  0.00  0.00    +0.210 HD
ENDBRANCH  18  21
BRANCH  17  23
ATOM     23  O   LIG    1       -3.256  -2.669  -1.078  0.00  0.00    -0.386 OA
ATOM     24  H   LIG    1       -3.132  -3.610  -0.889  0.00  0.00    +0.210 HD
ENDBRANCH  17  23
BRANCH  16  25
ATOM     25  O   LIG    1       -3.434   0.043  -0.405  0.00  0.00    -0.386 OA
ATOM     26  H   LIG    1       -4.261  -0.447  -0.502  0.00  0.00    +0.210 HD
ENDBRANCH  16  25
BRANCH  15  27
ATOM     27  C   LIG    1       -1.442   1.896  -1.276  0.00  0.00    +0.190 C 
BRANCH  27  28
ATOM     28  O   LIG    1       -0.244   2.668  -1.167  0.00  0.00    -0.392 OA
ATOM     29  H   LIG    1       -0.371   3.614  -1.322  0.00  0.00    +0.210 HD
ENDBRANCH  27  28
ENDBRANCH  15  27
ENDBRANCH  14  19
ENDBRANCH  13  14
ENDBRANCH   1  13
BRANCH   5  30
ATOM     30  O   LIG    1        2.938  -1.102  -4.605  0.00  0.00    -0.313 OA
BRANCH  30  31
ATOM     31  C   LIG    1        1.942  -1.987  -5.122  0.00  0.00    +0.225 C 
ATOM     32  C   LIG    1        1.483  -1.502  -6.515  0.00  0.00    +0.207 C 
ATOM     33  C   LIG    1        2.321  -2.397  -7.468  0.00  0.00    +0.179 C 
ATOM     34  C   LIG    1        2.388  -3.713  -6.652  0.00  0.00    +0.178 C 
ATOM     35  O   LIG    1        2.492  -3.300  -5.280  0.00  0.00    -0.336 OA
BRANCH  33  36
ATOM     36  O   LIG    1        1.648  -2.595  -8.713  0.00  0.00    -0.386 OA
ATOM     37  H   LIG    1        2.135  -3.148  -9.339  0.00  0.00    +0.210 HD
ENDBRANCH  33  36
BRANCH  32  38
ATOM     38  O   LIG    1        1.796  -0.121  -6.701  0.00  0.00    -0.384 OA
ATOM     39  H   LIG    1        1.528   0.231  -7.561  0.00  0.00    +0.210 HD
ENDBRANCH  32  38
BRANCH  31  40
ATOM     40  C   LIG    1        0.747  -2.037  -4.168  0.00  0.00    +0.223 C 
BRANCH  40  41
ATOM     41  O   LIG    1        1.137  -2.672  -2.949  0.00  0.00    -0.390 OA
ATOM     42  H   LIG    1        0.407  -2.818  -2.331  0.00  0.00    +0.210 HD
ENDBRANCH  40  41
ENDBRANCH  31  40
BRANCH  34  43
ATOM     43  C   LIG    1        3.618  -4.527  -7.058  0.00  0.00    +0.190 C 
BRANCH  43  44
ATOM     44  O   LIG    1        3.601  -5.786  -6.382  0.00  0.00    -0.392 OA
ATOM     45  H   LIG    1        4.353  -6.356  -6.593  0.00  0.00    +0.210 HD
ENDBRANCH  43  44
ENDBRANCH  34  43
ENDBRANCH  30  31
ENDBRANCH   5  30
TORSDOF 19
