REMARK  Name = ZINC28710851
REMARK                            x       y       z     vdW  Elec       q    Type
REMARK                         _______ _______ _______ _____ _____    ______ ____
ROOT
ATOM      1  C   LIG    1       -7.050  -6.530  -5.026  0.00  0.00    +0.004 C 
ENDROOT
BRANCH   1   2
ATOM      2  C   LIG    1       -8.124  -7.610  -4.878  0.00  0.00    +0.027 C 
BRANCH   2   4
ATOM      3  C   LIG    1       -8.559  -9.350  -6.534  0.00  0.00    -0.027 C 
ATOM      4  C   LIG    1       -8.562  -8.073  -6.244  0.00  0.00    -0.031 C 
BRANCH   3   5
ATOM      5  C   LIG    1       -8.276 -10.367  -5.458  0.00  0.00    +0.053 C 
BRANCH   5   7
ATOM      6  C   LIG    1       -9.108 -12.662  -5.484  0.00  0.00    -0.027 C 
ATOM      7  C   LIG    1       -9.387 -11.384  -5.423  0.00  0.00    -0.027 C 
BRANCH   6   8
ATOM      8  C   LIG    1       -7.674 -13.124  -5.425  0.00  0.00    +0.053 C 
BRANCH   8  10
ATOM      9  C   LIG    1       -6.981 -15.312  -4.595  0.00  0.00    -0.031 C 
ATOM     10  C   LIG    1       -7.521 -14.148  -4.331  0.00  0.00    -0.027 C 
BRANCH   9  12
ATOM     11  C   LIG    1       -4.925 -16.074  -5.753  0.00  0.00    +0.008 C 
ATOM     12  C   LIG    1       -6.355 -15.565  -5.942  0.00  0.00    +0.023 C 
ENDBRANCH   9  12
ENDBRANCH   8  10
ENDBRANCH   6   8
ENDBRANCH   5   7
ENDBRANCH   3   5
ENDBRANCH   2   4
ENDBRANCH   1   2
BRANCH   1  13
ATOM     13  C   LIG    1       -6.605  -6.060  -3.640  0.00  0.00    +0.000 C 
BRANCH  13  14
ATOM     14  C   LIG    1       -5.531  -4.980  -3.788  0.00  0.00    +0.000 C 
BRANCH  14  15
ATOM     15  C   LIG    1       -5.086  -4.510  -2.402  0.00  0.00    +0.001 C 
BRANCH  15  16
ATOM     16  C   LIG    1       -4.012  -3.430  -2.550  0.00  0.00    +0.011 C 
BRANCH  16  17
ATOM     17  C   LIG    1       -3.567  -2.960  -1.164  0.00  0.00    +0.120 C 
BRANCH  17  18
ATOM     18  C   LIG    1       -2.509  -1.896  -1.310  0.00  0.00    +0.307 C 
ATOM     19  O   LIG    1       -2.148  -1.550  -2.409  0.00  0.00    -0.251 OA
BRANCH  18  20
ATOM     20  O   LIG    1       -1.968  -1.333  -0.218  0.00  0.00    -0.462 OA
BRANCH  20  21
ATOM     21  C   LIG    1       -0.955  -0.316  -0.434  0.00  0.00    +0.266 C 
BRANCH  21  22
ATOM     22  C   LIG    1       -0.459   0.205   0.917  0.00  0.00    +0.181 C 
ATOM     23  C   LIG    1        0.658   1.250   0.912  0.00  0.00    +0.195 C 
ATOM     24  O   LIG    1       -0.696   1.579   1.228  0.00  0.00    -0.368 OA
ENDBRANCH  21  22
ENDBRANCH  20  21
ENDBRANCH  18  20
ENDBRANCH  17  18
ENDBRANCH  16  17
ENDBRANCH  15  16
ENDBRANCH  14  15
ENDBRANCH  13  14
ENDBRANCH   1  13
TORSDOF 16
