REMARK  Name = ZINC25758996
REMARK                            x       y       z     vdW  Elec       q    Type
REMARK                         _______ _______ _______ _____ _____    ______ ____
ROOT
ATOM      1  N   LIG    1       -1.288  -5.308   4.074  0.00  0.00    -0.284 NA
ATOM      2  C   LIG    1       -1.725  -6.501   3.336  0.00  0.00    +0.105 C 
ATOM      3  C   LIG    1       -3.213  -6.748   3.608  0.00  0.00    +0.120 C 
ATOM      4  N   LIG    1       -3.420  -6.806   5.063  0.00  0.00    -0.326 N 
ATOM      5  C   LIG    1       -2.886  -5.709   5.885  0.00  0.00    +0.120 C 
ATOM      6  C   LIG    1       -1.411  -5.503   5.524  0.00  0.00    +0.105 C 
ENDROOT
BRANCH   4   7
ATOM      7  C   LIG    1       -4.101  -7.868   5.646  0.00  0.00    +0.047 A 
ATOM      8  C   LIG    1       -3.408  -8.995   6.066  0.00  0.00    +0.024 A 
ATOM      9  C   LIG    1       -4.087 -10.049   6.644  0.00  0.00    +0.002 A 
ATOM     10  C   LIG    1       -5.462  -9.992   6.809  0.00  0.00    +0.001 A 
ATOM     11  C   LIG    1       -6.167  -8.882   6.398  0.00  0.00    +0.021 A 
ATOM     12  C   LIG    1       -5.493  -7.804   5.817  0.00  0.00    +0.073 A 
BRANCH  12  13
ATOM     13  C   LIG    1       -6.219  -6.645   5.393  0.00  0.00    +0.101 C 
ATOM     14  N   LIG    1       -6.794  -5.725   5.057  0.00  0.00    -0.191 NA
ENDBRANCH  12  13
ENDBRANCH   4   7
BRANCH   1  15
ATOM     15  C   LIG    1        0.086  -4.937   3.707  0.00  0.00    +0.192 C 
BRANCH  15  17
ATOM     16  C   LIG    1        0.052  -2.845   2.458  0.00  0.00    +0.245 C 
ATOM     17  N   LIG    1        0.070  -4.193   2.445  0.00  0.00    -0.299 N 
ATOM     18  H   LIG    1        0.072  -4.670   1.601  0.00  0.00    +0.150 HD
ATOM     19  O   LIG    1        0.049  -2.248   3.516  0.00  0.00    -0.270 OA
BRANCH  16  25
ATOM     20  C   LIG    1       -0.018   1.503   0.010  0.00  0.00    +0.044 C 
ATOM     21  C   LIG    1        0.002  -0.004   0.002  0.00  0.00    -0.050 A 
ATOM     22  C   LIG    1        0.006  -0.688  -1.201  0.00  0.00    +0.003 A 
ATOM     23  C   LIG    1        0.025  -2.071  -1.218  0.00  0.00    +0.001 A 
ATOM     24  C   LIG    1        0.040  -2.778  -0.033  0.00  0.00    +0.013 A 
ATOM     25  C   LIG    1        0.036  -2.095   1.184  0.00  0.00    +0.037 A 
ATOM     26  C   LIG    1        0.023  -0.699   1.194  0.00  0.00    +0.016 A 
ENDBRANCH  16  25
ENDBRANCH  15  17
ENDBRANCH   1  15
TORSDOF 5
