REMARK  Name = ZINC14974931
REMARK                            x       y       z     vdW  Elec       q    Type
REMARK                         _______ _______ _______ _____ _____    ______ ____
ROOT
ATOM      1  C   LIG    1        1.741  -2.327  -2.531  0.00  0.00    +0.145 A 
ATOM      2  C   LIG    1        1.768  -3.629  -3.018  0.00  0.00    +0.059 A 
ATOM      3  C   LIG    1        2.223  -3.578  -4.350  0.00  0.00    +0.176 A 
ATOM      4  O   LIG    1        2.461  -2.296  -4.654  0.00  0.00    -0.378 OA
ATOM      5  C   LIG    1        2.402  -4.722  -5.243  0.00  0.00    +0.068 C 
ATOM      6  C   LIG    1        1.970  -5.997  -4.852  0.00  0.00    +0.023 C 
ATOM      7  C   LIG    1        2.138  -7.062  -5.686  0.00  0.00    -0.002 C 
ATOM      8  C   LIG    1        2.740  -6.902  -6.935  0.00  0.00    +0.124 C 
ATOM      9  C   LIG    1        3.176  -5.658  -7.348  0.00  0.00    +0.097 C 
ATOM     10  C   LIG    1        3.009  -4.549  -6.512  0.00  0.00    +0.193 C 
ATOM     11  O   LIG    1        3.421  -3.344  -6.903  0.00  0.00    -0.287 OA
ATOM     12  N   LIG    1        2.156  -1.507  -3.520  0.00  0.00    -0.215 N 
ATOM     13  H   LIG    1        2.234  -0.542  -3.462  0.00  0.00    +0.207 HD
ENDROOT
BRANCH   2  14
ATOM     14  C   LIG    1        1.386  -4.849  -2.270  0.00  0.00    -0.012 A 
ATOM     15  C   LIG    1        2.363  -5.764  -1.878  0.00  0.00    +0.009 A 
ATOM     16  C   LIG    1        2.001  -6.899  -1.181  0.00  0.00    +0.005 A 
ATOM     17  C   LIG    1        0.673  -7.131  -0.872  0.00  0.00    -0.033 A 
ATOM     18  C   LIG    1       -0.301  -6.227  -1.258  0.00  0.00    +0.005 A 
ATOM     19  C   LIG    1        0.049  -5.085  -1.950  0.00  0.00    +0.009 A 
BRANCH  17  20
ATOM     20  C   LIG    1        0.285  -8.373  -0.112  0.00  0.00    +0.119 C 
BRANCH  20  21
ATOM     21  N   LIG    1        0.318  -8.095   1.330  0.00  0.00    -0.294 NA
ATOM     22  C   LIG    1        1.691  -7.830   1.784  0.00  0.00    +0.113 C 
ATOM     23  C   LIG    1        1.673  -7.487   3.276  0.00  0.00    +0.175 C 
ATOM     24  O   LIG    1        1.061  -8.559   3.999  0.00  0.00    -0.377 OA
ATOM     25  C   LIG    1       -0.277  -8.843   3.583  0.00  0.00    +0.175 C 
ATOM     26  C   LIG    1       -0.279  -9.200   2.094  0.00  0.00    +0.113 C 
ENDBRANCH  20  21
ENDBRANCH  17  20
ENDBRANCH   2  14
BRANCH   1  29
ATOM     27  N   LIG    1        1.342  -0.609  -0.830  0.00  0.00    -0.310 N 
ATOM     28  H   LIG    1        1.627   0.058  -1.475  0.00  0.00    +0.149 HD
ATOM     29  C   LIG    1        1.326  -1.912  -1.172  0.00  0.00    +0.264 C 
ATOM     30  O   LIG    1        0.970  -2.748  -0.364  0.00  0.00    -0.268 OA
BRANCH  27  32
ATOM     31  C   LIG    1        1.042   1.322   0.641  0.00  0.00    +0.024 C 
ATOM     32  C   LIG    1        0.931  -0.199   0.515  0.00  0.00    +0.101 C 
ENDBRANCH  27  32
ENDBRANCH   1  29
BRANCH   7  33
ATOM     33  C   LIG    1        1.669  -8.428  -5.254  0.00  0.00    +0.016 C 
ATOM     34  C   LIG    1        2.859  -9.389  -5.224  0.00  0.00    +0.012 C 
ATOM     35  C   LIG    1        0.622  -8.944  -6.243  0.00  0.00    +0.012 C 
ENDBRANCH   7  33
BRANCH   8  36
ATOM     36  O   LIG    1        2.898  -7.976  -7.750  0.00  0.00    -0.506 OA
ATOM     37  H   LIG    1        2.603  -8.821  -7.473  0.00  0.00    +0.292 HD
ENDBRANCH   8  36
TORSDOF 7
