REMARK  Name = ZINC13940060
REMARK                            x       y       z     vdW  Elec       q    Type
REMARK                         _______ _______ _______ _____ _____    ______ ____
ROOT
ATOM      1  C   LIG    1        6.972   0.442  -1.740  0.00  0.00    +0.028 C 
ATOM      2  C   LIG    1        6.696  -0.288  -0.423  0.00  0.00    +0.081 C 
ATOM      3  C   LIG    1        7.454   0.400   0.714  0.00  0.00    +0.050 C 
ATOM      4  C   LIG    1        7.043   1.871   0.767  0.00  0.00    +0.115 C 
ATOM      5  C   LIG    1        5.542   1.998   0.797  0.00  0.00    -0.005 A 
ATOM      6  C   LIG    1        4.979   3.172   1.268  0.00  0.00    +0.007 A 
ATOM      7  C   LIG    1        3.606   3.321   1.304  0.00  0.00    +0.000 A 
ATOM      8  C   LIG    1        2.784   2.297   0.870  0.00  0.00    +0.002 A 
ATOM      9  C   LIG    1        3.338   1.123   0.400  0.00  0.00    +0.024 A 
ATOM     10  C   LIG    1        4.720   0.970   0.364  0.00  0.00    +0.042 A 
ATOM     11  N   LIG    1        5.261  -0.230  -0.114  0.00  0.00    -0.264 N 
ATOM     12  C   LIG    1        4.480  -1.315  -0.281  0.00  0.00    +0.251 C 
ATOM     13  O   LIG    1        3.283  -1.238  -0.086  0.00  0.00    -0.270 OA
ENDROOT
BRANCH  12  14
ATOM     14  C   LIG    1        5.080  -2.600  -0.701  0.00  0.00    +0.037 A 
ATOM     15  C   LIG    1        4.530  -3.806  -0.263  0.00  0.00    +0.013 A 
ATOM     16  C   LIG    1        5.094  -5.001  -0.659  0.00  0.00    +0.001 A 
ATOM     17  C   LIG    1        6.202  -5.006  -1.489  0.00  0.00    +0.000 A 
ATOM     18  C   LIG    1        6.751  -3.814  -1.927  0.00  0.00    +0.001 A 
ATOM     19  C   LIG    1        6.197  -2.612  -1.538  0.00  0.00    +0.013 A 
ENDBRANCH  12  14
BRANCH   4  20
ATOM     20  N   LIG    1        7.604   2.487   1.972  0.00  0.00    -0.260 N 
ATOM     21  C   LIG    1        7.283   2.003   3.188  0.00  0.00    +0.251 C 
ATOM     22  O   LIG    1        6.450   1.124   3.292  0.00  0.00    -0.270 OA
BRANCH  21  23
ATOM     23  C   LIG    1        7.944   2.542   4.396  0.00  0.00    +0.037 A 
ATOM     24  C   LIG    1        9.195   3.153   4.297  0.00  0.00    +0.013 A 
ATOM     25  C   LIG    1        9.803   3.659   5.427  0.00  0.00    +0.001 A 
ATOM     26  C   LIG    1        9.181   3.552   6.658  0.00  0.00    +0.000 A 
ATOM     27  C   LIG    1        7.943   2.943   6.764  0.00  0.00    +0.001 A 
ATOM     28  C   LIG    1        7.321   2.438   5.641  0.00  0.00    +0.013 A 
ENDBRANCH  21  23
BRANCH  20  29
ATOM     29  C   LIG    1        8.474   3.576   1.860  0.00  0.00    +0.037 A 
ATOM     30  C   LIG    1        8.211   4.751   2.552  0.00  0.00    +0.023 A 
ATOM     31  C   LIG    1        9.074   5.824   2.443  0.00  0.00    +0.002 A 
ATOM     32  C   LIG    1       10.194   5.732   1.637  0.00  0.00    +0.000 A 
ATOM     33  C   LIG    1       10.456   4.566   0.942  0.00  0.00    +0.002 A 
ATOM     34  C   LIG    1        9.600   3.488   1.051  0.00  0.00    +0.023 A 
ENDBRANCH  20  29
ENDBRANCH   4  20
TORSDOF 4
