REMARK  Name = ZINC00002152
REMARK                            x       y       z     vdW  Elec       q    Type
REMARK                         _______ _______ _______ _____ _____    ______ ____
ROOT
ATOM      1  C   LIG    1        2.112  -1.022   1.894  0.00  0.00    +0.064 C 
ATOM      2  C   LIG    1        2.903   0.210   2.251  0.00  0.00    +0.030 A 
ATOM      3  C   LIG    1        3.459   0.338   3.459  0.00  0.00    +0.016 A 
ATOM      4  S   LIG    1        4.245   1.935   3.331  0.00  0.00    -0.031 S 
ATOM      5  C   LIG    1        3.787   2.307   1.700  0.00  0.00    +0.291 A 
ATOM      6  O   LIG    1        4.046   3.297   1.040  0.00  0.00    -0.259 OA
ATOM      7  N   LIG    1        3.066   1.218   1.348  0.00  0.00    -0.302 N 
ENDROOT
BRANCH   3   8
ATOM      8  C   LIG    1        3.429  -0.616   4.624  0.00  0.00    +0.072 C 
BRANCH   8   9
ATOM      9  C   LIG    1        4.686  -1.488   4.602  0.00  0.00    +0.161 C 
BRANCH   9  10
ATOM     10  O   LIG    1        4.658  -2.393   5.707  0.00  0.00    -0.395 OA
ATOM     11  H   LIG    1        5.426  -2.979   5.756  0.00  0.00    +0.209 HD
ENDBRANCH   9  10
ENDBRANCH   8   9
ENDBRANCH   3   8
BRANCH   7  12
ATOM     12  C   LIG    1        2.474   1.120   0.012  0.00  0.00    +0.165 C 
BRANCH  12  13
ATOM     13  C   LIG    1        1.114   1.769   0.017  0.00  0.00    +0.030 A 
ATOM     14  C   LIG    1        0.554   2.231   1.192  0.00  0.00    +0.121 A 
ATOM     15  N   LIG    1       -0.647   2.792   1.159  0.00  0.00    -0.240 NA
ATOM     16  C   LIG    1       -1.305   2.922   0.025  0.00  0.00    +0.128 A 
ATOM     17  C   LIG    1       -2.664   3.572   0.037  0.00  0.00    +0.088 C 
ATOM     18  N   LIG    1       -0.809   2.496  -1.119  0.00  0.00    -0.218 NA
ATOM     19  C   LIG    1        0.388   1.918  -1.167  0.00  0.00    +0.125 A 
BRANCH  19  20
ATOM     20  N   LIG    1        0.906   1.471  -2.371  0.00  0.00    -0.343 N 
ATOM     21  H   LIG    1        0.431   1.646  -3.199  0.00  0.00    +0.144 HD
ATOM     22  H   LIG    1        1.744   0.983  -2.388  0.00  0.00    +0.144 HD
ENDBRANCH  19  20
ENDBRANCH  12  13
ENDBRANCH   7  12
TORSDOF 6
