REMARK  Name = ZINC15894340
REMARK                            x       y       z     vdW  Elec       q    Type
REMARK                         _______ _______ _______ _____ _____    ______ ____
ROOT
ATOM      1  C   LIG    1       -5.904  -0.885  -1.496  0.00  0.00    +0.189 C 
ATOM      2  C   LIG    1       -5.521  -0.356  -2.903  0.00  0.00    +0.039 C 
ATOM      3  C   LIG    1       -5.428  -1.519  -3.894  0.00  0.00    +0.012 C 
ATOM      4  C   LIG    1       -4.132   0.328  -2.752  0.00  0.00    +0.012 C 
ATOM      5  C   LIG    1       -3.646  -0.199  -1.399  0.00  0.00    +0.006 C 
ATOM      6  C   LIG    1       -2.471   0.447  -0.745  0.00  0.00    +0.037 C 
ATOM      7  C   LIG    1       -2.532   1.961  -0.613  0.00  0.00    +0.048 C 
ATOM      8  C   LIG    1       -1.109   2.457  -0.341  0.00  0.00    +0.194 C 
ATOM      9  F   LIG    1       -0.385   2.454  -1.538  0.00  0.00    -0.241 F 
ATOM     10  C   LIG    1       -0.411   1.578   0.658  0.00  0.00    -0.020 C 
ATOM     11  C   LIG    1        0.845   1.952   1.008  0.00  0.00    +0.054 C 
ATOM     12  C   LIG    1        1.526   1.061   1.987  0.00  0.00    +0.179 C 
ATOM     13  C   LIG    1        1.321  -0.390   1.718  0.00  0.00    +0.047 C 
ATOM     14  C   LIG    1        0.064  -0.741   1.376  0.00  0.00    -0.009 C 
ATOM     15  O   LIG    1        2.188   1.477   2.916  0.00  0.00    -0.288 OA
ATOM     16  C   LIG    1       -0.983   0.342   1.266  0.00  0.00    +0.047 C 
ATOM     17  C   LIG    1       -1.290   0.702   2.715  0.00  0.00    +0.023 C 
ATOM     18  C   LIG    1       -2.246  -0.184   0.638  0.00  0.00    +0.153 C 
ATOM     19  F   LIG    1       -1.996  -1.556   0.377  0.00  0.00    -0.238 F 
ATOM     20  C   LIG    1       -3.492  -0.152   1.496  0.00  0.00    +0.154 C 
ATOM     21  C   LIG    1       -4.699  -0.792   0.784  0.00  0.00    +0.046 C 
ATOM     22  C   LIG    1       -4.934  -0.141  -0.554  0.00  0.00    +0.022 C 
ATOM     23  C   LIG    1       -5.481   1.277  -0.396  0.00  0.00    +0.016 C 
ENDROOT
BRANCH   1  24
ATOM     24  C   LIG    1       -7.323  -0.524  -1.161  0.00  0.00    +0.236 C 
ATOM     25  O   LIG    1       -7.893   0.344  -1.789  0.00  0.00    -0.281 OA
BRANCH  24  26
ATOM     26  S   LIG    1       -8.136  -1.336   0.108  0.00  0.00    -0.051 S 
BRANCH  26  27
ATOM     27  C   LIG    1       -9.741  -0.502   0.038  0.00  0.00    +0.290 C 
ATOM     28  F   LIG    1      -10.461  -0.969  -1.067  0.00  0.00    -0.237 F 
ENDBRANCH  26  27
ENDBRANCH  24  26
ENDBRANCH   1  24
BRANCH  20  29
ATOM     29  O   LIG    1       -3.848   1.161   1.913  0.00  0.00    -0.389 OA
ATOM     30  H   LIG    1       -4.643   1.197   2.462  0.00  0.00    +0.210 HD
ENDBRANCH  20  29
BRANCH   1  31
ATOM     31  O   LIG    1       -5.692  -2.313  -1.408  0.00  0.00    -0.449 OA
BRANCH  31  32
ATOM     32  C   LIG    1       -6.551  -3.099  -2.075  0.00  0.00    +0.308 C 
ATOM     33  O   LIG    1       -7.507  -2.613  -2.632  0.00  0.00    -0.251 OA
BRANCH  32  35
ATOM     34  C   LIG    1       -7.439  -5.244  -2.947  0.00  0.00    +0.015 C 
ATOM     35  C   LIG    1       -6.323  -4.588  -2.131  0.00  0.00    +0.117 C 
ENDBRANCH  32  35
ENDBRANCH  31  32
ENDBRANCH   1  31
TORSDOF 7
