REMARK  Name = ZINC29128429
REMARK                            x       y       z     vdW  Elec       q    Type
REMARK                         _______ _______ _______ _____ _____    ______ ____
ROOT
ATOM      1  C   LIG    1       -0.017   1.394   0.010  0.00  0.00    +0.004 A 
ATOM      2  C   LIG    1        0.002  -0.004   0.002  0.00  0.00    +0.050 A 
ATOM      3  C   LIG    1        1.231  -0.644  -0.013  0.00  0.00    +0.147 A 
ATOM      4  F   LIG    1        1.299  -1.994  -0.021  0.00  0.00    -0.204 F 
ATOM      5  C   LIG    1        2.390   0.116  -0.020  0.00  0.00    +0.096 A 
ATOM      6  N   LIG    1        2.338   1.433  -0.013  0.00  0.00    -0.255 NA
ATOM      7  C   LIG    1        1.194   2.085   0.002  0.00  0.00    +0.119 A 
ENDROOT
BRANCH   1   9
ATOM      8  C   LIG    1       -1.527   3.148   0.960  0.00  0.00    +0.065 A 
ATOM      9  C   LIG    1       -1.304   2.129   0.020  0.00  0.00    -0.001 A 
ATOM     10  C   LIG    1       -2.299   1.810  -0.899  0.00  0.00    +0.029 A 
ATOM     11  C   LIG    1       -3.498   2.497  -0.886  0.00  0.00    +0.044 A 
ATOM     12 CL   LIG    1       -4.736   2.093  -2.034  0.00  0.00    -0.083 Cl
ATOM     13  C   LIG    1       -3.718   3.505   0.037  0.00  0.00    +0.059 A 
ATOM     14  C   LIG    1       -2.740   3.836   0.956  0.00  0.00    +0.136 A 
ATOM     15  F   LIG    1       -2.961   4.821   1.854  0.00  0.00    -0.205 F 
BRANCH   8  19
ATOM     16  C   LIG    1        1.000   5.273   4.699  0.00  0.00    +0.112 C 
ATOM     17  C   LIG    1        0.588   4.404   3.539  0.00  0.00    +0.225 A 
ATOM     18  N   LIG    1       -0.555   4.450   2.901  0.00  0.00    -0.191 NA
ATOM     19  C   LIG    1       -0.477   3.493   1.948  0.00  0.00    +0.205 A 
ATOM     20  N   LIG    1        0.700   2.934   2.058  0.00  0.00    -0.056 NA
ATOM     21  O   LIG    1        1.321   3.446   2.965  0.00  0.00    -0.338 OA
ENDBRANCH   8  19
ENDBRANCH   1   9
BRANCH   5  22
ATOM     22  C   LIG    1        3.730  -0.574  -0.037  0.00  0.00    +0.122 C 
ATOM     23  C   LIG    1        4.340  -0.468  -1.436  0.00  0.00    +0.034 C 
BRANCH  22  24
ATOM     24  N   LIG    1        4.620   0.065   0.934  0.00  0.00    -0.305 N 
ATOM     25  H   LIG    1        4.454   1.112   1.228  0.00  0.00    +0.149 HD
ATOM     26  C   LIG    1        5.644  -0.630   1.469  0.00  0.00    +0.254 C 
ATOM     27  O   LIG    1        5.828  -1.784   1.146  0.00  0.00    -0.272 OA
BRANCH  26  28
ATOM     28  C   LIG    1        6.560   0.027   2.469  0.00  0.00    +0.234 C 
ATOM     29  C   LIG    1        7.659   0.792   1.728  0.00  0.00    +0.061 C 
BRANCH  28  30
ATOM     30  C   LIG    1        7.195  -1.042   3.360  0.00  0.00    +0.427 C 
ATOM     31  F   LIG    1        6.191  -1.741   4.037  0.00  0.00    -0.167 F 
ATOM     32  F   LIG    1        8.046  -0.432   4.287  0.00  0.00    -0.167 F 
ATOM     33  F   LIG    1        7.930  -1.932   2.568  0.00  0.00    -0.167 F 
ENDBRANCH  28  30
BRANCH  28  34
ATOM     34  O   LIG    1        5.810   0.936   3.277  0.00  0.00    -0.373 OA
ATOM     35  H   LIG    1        6.312   1.513   4.068  0.00  0.00    +0.211 HD
ENDBRANCH  28  34
ENDBRANCH  26  28
ENDBRANCH  22  24
ENDBRANCH   5  22
TORSDOF 7
