REMARK  Name = ZINC43202844
REMARK                            x       y       z     vdW  Elec       q    Type
REMARK                         _______ _______ _______ _____ _____    ______ ____
ROOT
ATOM      1  C   LIG    1       -2.925  -3.097  -1.862  0.00  0.00    +0.137 A 
ATOM      2  C   LIG    1       -4.205  -2.533  -1.974  0.00  0.00    +0.059 A 
ATOM      3  C   LIG    1       -4.824  -1.281  -1.541  0.00  0.00    +0.032 A 
ATOM      4  C   LIG    1       -6.102  -1.317  -1.952  0.00  0.00    +0.085 A 
ATOM      5  N   LIG    1       -6.344  -2.494  -2.614  0.00  0.00    -0.346 N 
ATOM      6  H   LIG    1       -7.195  -2.749  -3.004  0.00  0.00    +0.167 HD
ATOM      7  C   LIG    1       -5.208  -3.256  -2.645  0.00  0.00    +0.145 A 
ATOM      8  N   LIG    1       -4.905  -4.452  -3.148  0.00  0.00    -0.196 NA
ATOM      9  C   LIG    1       -3.686  -4.948  -3.020  0.00  0.00    +0.223 A 
ATOM     10  N   LIG    1       -2.711  -4.293  -2.400  0.00  0.00    -0.198 NA
ENDROOT
BRANCH   1  11
ATOM     11  N   LIG    1       -1.907  -2.421  -1.211  0.00  0.00    -0.298 N 
ATOM     12  H   LIG    1       -2.091  -1.580  -0.765  0.00  0.00    +0.154 HD
BRANCH  11  14
ATOM     13  C   LIG    1        0.493  -2.094  -1.237  0.00  0.00    +0.093 A 
ATOM     14  C   LIG    1       -0.620  -2.949  -1.197  0.00  0.00    +0.047 A 
ATOM     15  C   LIG    1       -0.430  -4.323  -1.142  0.00  0.00    +0.024 A 
ATOM     16  C   LIG    1        0.848  -4.846  -1.127  0.00  0.00    +0.005 A 
ATOM     17  C   LIG    1        1.949  -4.009  -1.166  0.00  0.00    +0.039 A 
ATOM     18  C   LIG    1        1.782  -2.639  -1.227  0.00  0.00    +0.137 A 
ATOM     19  F   LIG    1        2.861  -1.827  -1.272  0.00  0.00    -0.205 F 
BRANCH  13  23
ATOM     20  C   LIG    1        0.044   1.534  -0.214  0.00  0.00    +0.128 C 
ATOM     21  N   LIG    1        0.231   0.082  -0.156  0.00  0.00    -0.314 N 
ATOM     22  H   LIG    1        0.301  -0.364   0.702  0.00  0.00    +0.149 HD
ATOM     23  C   LIG    1        0.305  -0.634  -1.296  0.00  0.00    +0.248 C 
ATOM     24  O   LIG    1        0.218  -0.075  -2.372  0.00  0.00    -0.270 OA
ENDBRANCH  13  23
ENDBRANCH  11  14
ENDBRANCH   1  11
BRANCH   9  25
ATOM     25  N   LIG    1       -3.414  -6.195  -3.558  0.00  0.00    -0.281 N 
ATOM     26  H   LIG    1       -2.554  -6.615  -3.400  0.00  0.00    +0.155 HD
BRANCH  25  27
ATOM     27  C   LIG    1       -4.382  -6.850  -4.330  0.00  0.00    +0.078 A 
ATOM     28  C   LIG    1       -5.353  -6.118  -4.990  0.00  0.00    +0.050 A 
ATOM     29  C   LIG    1       -6.320  -6.764  -5.761  0.00  0.00    +0.041 A 
ATOM     30  C   LIG    1       -6.295  -8.146  -5.858  0.00  0.00    -0.021 A 
ATOM     31  C   LIG    1       -7.439  -8.587  -6.744  0.00  0.00    +0.056 C 
ATOM     32  C   LIG    1       -8.139  -7.282  -7.153  0.00  0.00    +0.118 C 
ATOM     33  C   LIG    1       -5.324  -8.880  -5.201  0.00  0.00    +0.053 A 
ATOM     34  N   LIG    1       -7.377  -6.215  -6.499  0.00  0.00    -0.272 N 
ATOM     35  C   LIG    1       -7.652  -4.899  -6.592  0.00  0.00    +0.203 C 
ATOM     36  O   LIG    1       -6.959  -4.091  -6.010  0.00  0.00    -0.277 OA
ATOM     37  C   LIG    1       -4.362  -8.239  -4.439  0.00  0.00    +0.142 A 
BRANCH  37  38
ATOM     38  O   LIG    1       -3.405  -8.962  -3.797  0.00  0.00    -0.493 OA
ATOM     39  C   LIG    1       -3.449 -10.382  -3.955  0.00  0.00    +0.277 C 
ENDBRANCH  37  38
BRANCH  35  40
ATOM     40  C   LIG    1       -8.821  -4.431  -7.420  0.00  0.00    +0.018 C 
BRANCH  40  41
ATOM     41  N   LIG    1       -8.908  -2.966  -7.360  0.00  0.00    +0.382 N 
ATOM     42  H   LIG    1       -8.954  -2.670  -6.397  0.00  0.00    -0.082 HD
ATOM     43  C   LIG    1      -10.115  -2.518  -8.067  0.00  0.00    -0.096 C 
ATOM     44  C   LIG    1       -7.721  -2.379  -7.997  0.00  0.00    -0.096 C 
ENDBRANCH  40  41
ENDBRANCH  35  40
ENDBRANCH  25  27
ENDBRANCH   9  25
TORSDOF 8
