REMARK  Name = ZINC36294576
REMARK                            x       y       z     vdW  Elec       q    Type
REMARK                         _______ _______ _______ _____ _____    ______ ____
ROOT
ATOM      1  C   LIG    1        4.403 -10.614  -7.593  0.00  0.00    +0.000 C 
ENDROOT
BRANCH   1   2
ATOM      2  C   LIG    1        4.423 -12.144  -7.601  0.00  0.00    +0.000 C 
BRANCH   2   3
ATOM      3  C   LIG    1        5.139 -12.637  -8.860  0.00  0.00    +0.000 C 
BRANCH   3   4
ATOM      4  C   LIG    1        5.160 -14.167  -8.868  0.00  0.00    +0.009 C 
BRANCH   4   5
ATOM      5  C   LIG    1        5.876 -14.660 -10.127  0.00  0.00    +0.096 C 
BRANCH   5   6
ATOM      6  C   LIG    1        5.897 -16.167 -10.136  0.00  0.00    +0.213 C 
ATOM      7  N   LIG    1        6.480 -16.828 -11.156  0.00  0.00    -0.313 N 
ATOM      8  H   LIG    1        6.886 -16.333 -11.884  0.00  0.00    +0.149 HD
ATOM      9  O   LIG    1        5.389 -16.785  -9.224  0.00  0.00    -0.276 OA
BRANCH   7  10
ATOM     10  C   LIG    1        6.500 -18.292 -11.164  0.00  0.00    +0.132 C 
BRANCH  10  11
ATOM     11  C   LIG    1        7.216 -18.786 -12.422  0.00  0.00    +0.174 C 
BRANCH  11  12
ATOM     12  O   LIG    1        8.588 -18.389 -12.376  0.00  0.00    -0.393 OA
ATOM     13  H   LIG    1        9.104 -18.669 -13.145  0.00  0.00    +0.209 HD
ENDBRANCH  11  12
ENDBRANCH  10  11
ENDBRANCH   7  10
ENDBRANCH   5   6
ENDBRANCH   4   5
ENDBRANCH   3   4
ENDBRANCH   2   3
ENDBRANCH   1   2
BRANCH   1  14
ATOM     14  C   LIG    1        3.687 -10.120  -6.334  0.00  0.00    +0.000 C 
BRANCH  14  15
ATOM     15  C   LIG    1        3.666  -8.591  -6.326  0.00  0.00    -0.000 C 
BRANCH  15  16
ATOM     16  C   LIG    1        2.950  -8.097  -5.067  0.00  0.00    -0.000 C 
BRANCH  16  17
ATOM     17  C   LIG    1        2.929  -6.567  -5.058  0.00  0.00    -0.000 C 
BRANCH  17  18
ATOM     18  C   LIG    1        2.213  -6.074  -3.800  0.00  0.00    -0.000 C 
BRANCH  18  19
ATOM     19  C   LIG    1        2.192  -4.544  -3.791  0.00  0.00    -0.000 C 
BRANCH  19  20
ATOM     20  C   LIG    1        1.476  -4.051  -2.532  0.00  0.00    -0.000 C 
BRANCH  20  21
ATOM     21  C   LIG    1        1.455  -2.521  -2.524  0.00  0.00    -0.000 C 
BRANCH  21  22
ATOM     22  C   LIG    1        0.739  -2.027  -1.265  0.00  0.00    -0.000 C 
BRANCH  22  23
ATOM     23  C   LIG    1        0.718  -0.497  -1.257  0.00  0.00    -0.000 C 
BRANCH  23  25
ATOM     24  C   LIG    1       -0.019   1.526   0.010  0.00  0.00    +0.004 C 
ATOM     25  C   LIG    1        0.002  -0.004   0.002  0.00  0.00    -0.003 C 
ENDBRANCH  23  25
ENDBRANCH  22  23
ENDBRANCH  21  22
ENDBRANCH  20  21
ENDBRANCH  19  20
ENDBRANCH  18  19
ENDBRANCH  17  18
ENDBRANCH  16  17
ENDBRANCH  15  16
ENDBRANCH  14  15
ENDBRANCH   1  14
TORSDOF 19
