REMARK  Name = ZINC53070632
REMARK                            x       y       z     vdW  Elec       q    Type
REMARK                         _______ _______ _______ _____ _____    ______ ____
ROOT
ATOM      1  C   LIG    1        7.099   4.880   0.221  0.00  0.00    +0.140 C 
ENDROOT
BRANCH   1   5
ATOM      2  N   LIG    1        3.425   2.841   0.040  0.00  0.00    -0.269 N 
ATOM      3  C   LIG    1        4.650   2.056  -0.073  0.00  0.00    +0.129 C 
ATOM      4  C   LIG    1        5.812   2.956  -0.497  0.00  0.00    +0.104 C 
ATOM      5  N   LIG    1        5.845   4.133   0.386  0.00  0.00    -0.287 NA
ATOM      6  C   LIG    1        4.682   4.993   0.126  0.00  0.00    +0.181 C 
ATOM      7  C   LIG    1        3.422   4.175   0.143  0.00  0.00    +0.234 C 
ATOM      8  O   LIG    1        2.359   4.747   0.259  0.00  0.00    -0.274 OA
BRANCH   2  11
ATOM      9  C   LIG    1        0.117   1.651  -1.040  0.00  0.00    +0.003 A 
ATOM     10  C   LIG    1        1.328   2.316  -1.038  0.00  0.00    +0.023 A 
ATOM     11  C   LIG    1        2.197   2.169   0.035  0.00  0.00    +0.038 A 
ATOM     12  C   LIG    1        1.846   1.355   1.104  0.00  0.00    +0.043 A 
ATOM     13  C   LIG    1        0.633   0.692   1.095  0.00  0.00    +0.043 A 
ATOM     14 CL   LIG    1        0.193  -0.328   2.430  0.00  0.00    -0.083 Cl
ATOM     15  C   LIG    1       -0.231   0.840   0.024  0.00  0.00    +0.020 A 
ENDBRANCH   2  11
ENDBRANCH   1   5
BRANCH   1  16
ATOM     16  C   LIG    1        7.280   5.820   1.385  0.00  0.00    +0.052 A 
ATOM     17  C   LIG    1        6.911   7.114   1.437  0.00  0.00    +0.135 A 
ATOM     18  N   LIG    1        7.247   7.594   2.643  0.00  0.00    -0.244 NA
ATOM     19  C   LIG    1        7.811   6.647   3.341  0.00  0.00    +0.199 A 
ATOM     20  N   LIG    1        7.845   5.521   2.595  0.00  0.00    -0.328 N 
BRANCH  20  21
ATOM     21  C   LIG    1        8.389   4.224   3.004  0.00  0.00    +0.158 C 
BRANCH  21  22
ATOM     22  C   LIG    1        9.805   4.093   2.504  0.00  0.00    -0.028 A 
ATOM     23  C   LIG    1       10.057   3.432   1.315  0.00  0.00    +0.006 A 
ATOM     24  C   LIG    1       11.351   3.309   0.851  0.00  0.00    +0.019 A 
ATOM     25  C   LIG    1       12.406   3.853   1.585  0.00  0.00    +0.052 A 
ATOM     26  C   LIG    1       12.145   4.519   2.784  0.00  0.00    +0.019 A 
ATOM     27  C   LIG    1       10.846   4.639   3.233  0.00  0.00    +0.006 A 
BRANCH  25  28
ATOM     28  C   LIG    1       13.752   3.728   1.110  0.00  0.00    +0.099 C 
ATOM     29  N   LIG    1       14.819   3.629   0.733  0.00  0.00    -0.191 NA
ENDBRANCH  25  28
ENDBRANCH  21  22
ENDBRANCH  20  21
ENDBRANCH   1  16
TORSDOF 6
