REMARK  Name = ZINC13815406
REMARK                            x       y       z     vdW  Elec       q    Type
REMARK                         _______ _______ _______ _____ _____    ______ ____
ROOT
ATOM      1  C   LIG    1        1.934   1.385  -0.965  0.00  0.00    +0.003 A 
ATOM      2  C   LIG    1        1.288   2.104   0.017  0.00  0.00    +0.014 A 
ATOM      3  C   LIG    1        0.591   1.425   1.015  0.00  0.00    +0.048 A 
ATOM      4  C   LIG    1        0.557   0.011   1.007  0.00  0.00    +0.015 A 
ATOM      5  C   LIG    1        1.220  -0.691  -0.000  0.00  0.00    +0.113 A 
ATOM      6  C   LIG    1       -0.183  -0.673   2.069  0.00  0.00    +0.028 A 
ATOM      7  C   LIG    1       -0.803   0.053   3.014  0.00  0.00    +0.086 A 
ATOM      8  N   LIG    1       -0.772   1.418   3.026  0.00  0.00    -0.329 N 
ATOM      9  H   LIG    1       -1.238   1.891   3.733  0.00  0.00    +0.168 HD
ATOM     10  C   LIG    1       -0.117   2.131   2.088  0.00  0.00    +0.257 A 
ATOM     11  O   LIG    1       -0.112   3.349   2.132  0.00  0.00    -0.267 OA
ATOM     12  C   LIG    1        1.897  -0.003  -0.969  0.00  0.00    +0.029 A 
ENDROOT
BRANCH   5  13
ATOM     13  S   LIG    1        1.187  -2.452  -0.023  0.00  0.00    +0.061 S 
ATOM     14  O   LIG    1       -0.179  -2.833   0.068  0.00  0.00    -0.153 OA
ATOM     15  O   LIG    1        2.163  -2.889   0.912  0.00  0.00    -0.153 OA
BRANCH  13  16
ATOM     16  N   LIG    1        1.714  -2.933  -1.517  0.00  0.00    -0.178 NA
ATOM     17  C   LIG    1        0.794  -3.035  -2.619  0.00  0.00    +0.107 C 
ATOM     18  C   LIG    1        0.128  -4.415  -2.825  0.00  0.00    -0.002 C 
ATOM     19  C   LIG    1        1.166  -5.543  -2.620  0.00  0.00    -0.081 C 
ATOM     20  N   LIG    1        2.437  -5.145  -3.178  0.00  0.00    +0.380 N 
ATOM     21  H   LIG    1        2.314  -4.382  -3.827  0.00  0.00    -0.086 HD
ATOM     22  H   LIG    1        2.883  -5.928  -3.632  0.00  0.00    -0.086 HD
ATOM     23  C   LIG    1        3.220  -4.711  -2.025  0.00  0.00    -0.065 C 
ATOM     24  C   LIG    1        3.161  -3.263  -1.746  0.00  0.00    +0.090 C 
ENDBRANCH  13  16
ENDBRANCH   5  13
TORSDOF 2
