REMARK  Name = ZINC52957434
REMARK                            x       y       z     vdW  Elec       q    Type
REMARK                         _______ _______ _______ _____ _____    ______ ____
ROOT
ATOM      1  C   LIG    1       -0.094   1.526  -0.120  0.00  0.00    +0.051 C 
ATOM      2  C   LIG    1       -0.051   0.020  -0.091  0.00  0.00    -0.011 A 
ATOM      3  C   LIG    1       -1.081  -0.845  -0.064  0.00  0.00    +0.028 A 
ATOM      4  C   LIG    1       -0.742  -2.256  -0.041  0.00  0.00    +0.094 A 
ATOM      5  C   LIG    1        0.624  -2.529  -0.072  0.00  0.00    +0.085 A 
ATOM      6  N   LIG    1        1.187  -3.795  -0.117  0.00  0.00    -0.305 N 
ATOM      7  H   LIG    1        1.829  -4.092   0.547  0.00  0.00    +0.153 HD
ATOM      8  C   LIG    1        0.776  -4.630  -1.181  0.00  0.00    +0.083 A 
ATOM      9  C   LIG    1        1.730  -5.144  -2.038  0.00  0.00    +0.027 A 
ATOM     10  C   LIG    1        1.351  -5.944  -3.105  0.00  0.00    +0.002 A 
ATOM     11  C   LIG    1        0.015  -6.225  -3.313  0.00  0.00    +0.004 A 
ATOM     12  C   LIG    1       -0.946  -5.725  -2.457  0.00  0.00    +0.057 A 
ATOM     13  C   LIG    1       -0.579  -4.926  -1.367  0.00  0.00    +0.197 A 
ATOM     14  N   LIG    1       -1.560  -4.511  -0.521  0.00  0.00    -0.040 NA
ATOM     15  C   LIG    1       -1.726  -3.360   0.040  0.00  0.00    +0.324 C 
ATOM     16  S   LIG    1        1.377  -1.045  -0.090  0.00  0.00    -0.078 S 
ENDROOT
BRANCH  15  17
ATOM     17  N   LIG    1       -2.884  -3.147   0.753  0.00  0.00    -0.218 N 
ATOM     18  C   LIG    1       -3.964  -4.146   0.757  0.00  0.00    +0.241 C 
ATOM     19  C   LIG    1       -4.349  -4.440   2.210  0.00  0.00    +0.128 C 
ATOM     20  N   LIG    1       -4.667  -3.180   2.894  0.00  0.00    -0.298 NA
ATOM     21  C   LIG    1       -5.206  -3.431   4.238  0.00  0.00    +0.105 C 
ATOM     22  C   LIG    1       -3.495  -2.296   2.954  0.00  0.00    +0.128 C 
ATOM     23  C   LIG    1       -3.072  -1.916   1.536  0.00  0.00    +0.241 C 
ENDBRANCH  15  17
TORSDOF 1
