REMARK  Name = ZINC18189751
REMARK                            x       y       z     vdW  Elec       q    Type
REMARK                         _______ _______ _______ _____ _____    ______ ____
ROOT
ATOM      1  N   LIG    1        2.600  -4.400   0.848  0.00  0.00    -0.170 NA
ATOM      2  C   LIG    1        3.745  -4.989   1.005  0.00  0.00    +0.075 C 
ATOM      3  C   LIG    1        4.168  -6.079   0.054  0.00  0.00    +0.068 C 
ENDROOT
BRANCH   2   4
ATOM      4  C   LIG    1        4.631  -4.593   2.113  0.00  0.00    +0.125 A 
ATOM      5  C   LIG    1        5.521  -3.492   1.966  0.00  0.00    +0.205 A 
ATOM      6  C   LIG    1        6.377  -3.155   3.120  0.00  0.00    +0.065 A 
ATOM      7  C   LIG    1        7.277  -2.091   3.064  0.00  0.00    +0.015 A 
ATOM      8  C   LIG    1        8.061  -1.804   4.160  0.00  0.00    +0.001 A 
ATOM      9  C   LIG    1        7.957  -2.568   5.313  0.00  0.00    +0.004 A 
ATOM     10  C   LIG    1        7.072  -3.622   5.380  0.00  0.00    +0.047 A 
ATOM     11  C   LIG    1        6.271  -3.929   4.286  0.00  0.00    +0.143 A 
ATOM     12  O   LIG    1        5.399  -4.957   4.340  0.00  0.00    -0.424 OA
ATOM     13  O   LIG    1        5.573  -2.852   0.929  0.00  0.00    -0.286 OA
ATOM     14  C   LIG    1        4.606  -5.284   3.313  0.00  0.00    +0.297 A 
BRANCH  14  15
ATOM     15  O   LIG    1        3.759  -6.324   3.450  0.00  0.00    -0.479 OA
ATOM     16  H   LIG    1        3.197  -6.566   2.740  0.00  0.00    +0.295 HD
ENDBRANCH  14  15
ENDBRANCH   2   4
BRANCH   1  17
ATOM     17  N   LIG    1        1.757  -4.776  -0.206  0.00  0.00    -0.136 N 
ATOM     18  H   LIG    1        2.029  -5.478  -0.818  0.00  0.00    +0.197 HD
BRANCH  17  19
ATOM     19  S   LIG    1        0.295  -4.024  -0.407  0.00  0.00    +0.086 S 
ATOM     20  O   LIG    1       -0.251  -4.516  -1.623  0.00  0.00    -0.149 OA
ATOM     21  O   LIG    1       -0.390  -4.130   0.834  0.00  0.00    -0.149 OA
BRANCH  19  26
ATOM     22  C   LIG    1        1.409   1.843  -1.266  0.00  0.00    +0.044 C 
ATOM     23  C   LIG    1        1.131   0.378  -1.051  0.00  0.00    -0.050 A 
ATOM     24  C   LIG    1        1.071  -0.480  -2.134  0.00  0.00    +0.005 A 
ATOM     25  C   LIG    1        0.816  -1.824  -1.937  0.00  0.00    +0.029 A 
ATOM     26  C   LIG    1        0.621  -2.311  -0.657  0.00  0.00    +0.110 A 
ATOM     27  C   LIG    1        0.682  -1.453   0.425  0.00  0.00    +0.029 A 
ATOM     28  C   LIG    1        0.942  -0.110   0.228  0.00  0.00    +0.005 A 
ENDBRANCH  19  26
ENDBRANCH  17  19
ENDBRANCH   1  17
TORSDOF 5
