REMARK  Name = ZINC28100426
REMARK                            x       y       z     vdW  Elec       q    Type
REMARK                         _______ _______ _______ _____ _____    ______ ____
ROOT
ATOM      1  C   LIG    1       -5.324  -2.661   2.142  0.00  0.00    +0.020 C 
ENDROOT
BRANCH   1   2
ATOM      2  C   LIG    1       -6.642  -3.437   2.151  0.00  0.00    +0.036 C 
BRANCH   2   8
ATOM      3  C   LIG    1       -8.474  -3.447   6.777  0.00  0.00    +0.124 A 
ATOM      4  C   LIG    1       -7.326  -4.071   7.249  0.00  0.00    +0.046 A 
ATOM      5  C   LIG    1       -6.257  -4.299   6.403  0.00  0.00    +0.004 A 
ATOM      6  C   LIG    1       -6.321  -3.908   5.080  0.00  0.00    +0.009 A 
ATOM      7  C   LIG    1       -7.471  -3.285   4.598  0.00  0.00    -0.016 A 
ATOM      8  C   LIG    1       -7.564  -2.850   3.188  0.00  0.00    -0.044 C 
ATOM      9  C   LIG    1       -8.467  -1.944   2.844  0.00  0.00    -0.022 C 
ATOM     10  C   LIG    1       -9.388  -1.339   3.866  0.00  0.00    +0.032 C 
ATOM     11  C   LIG    1       -9.781  -2.373   4.920  0.00  0.00    +0.043 C 
ATOM     12  C   LIG    1       -8.547  -3.051   5.454  0.00  0.00    +0.002 A 
BRANCH   3  14
ATOM     13  C   LIG    1       -9.375  -3.660   8.966  0.00  0.00    +0.277 C 
ATOM     14  O   LIG    1       -9.522  -3.225   7.613  0.00  0.00    -0.495 OA
ENDBRANCH   3  14
ENDBRANCH   2   8
ENDBRANCH   1   2
BRANCH   1  15
ATOM     15  C   LIG    1       -4.388  -3.257   1.088  0.00  0.00    +0.085 C 
BRANCH  15  16
ATOM     16  N   LIG    1       -3.122  -2.512   1.079  0.00  0.00    -0.300 NA
ATOM     17  C   LIG    1       -2.293  -2.896  -0.071  0.00  0.00    +0.100 C 
ATOM     18  C   LIG    1       -0.954  -2.159   0.000  0.00  0.00    +0.101 C 
ATOM     19  N   LIG    1       -1.196  -0.709   0.010  0.00  0.00    -0.285 NA
ATOM     20  C   LIG    1       -2.025  -0.325   1.161  0.00  0.00    +0.101 C 
ATOM     21  C   LIG    1       -3.365  -1.063   1.090  0.00  0.00    +0.100 C 
BRANCH  19  22
ATOM     22  C   LIG    1        0.002  -0.004   0.002  0.00  0.00    +0.124 C 
ATOM     23  C   LIG    1       -0.017   1.387   0.010  0.00  0.00    +0.035 C 
ATOM     24  C   LIG    1        1.182   2.076   0.002  0.00  0.00    +0.004 C 
ATOM     25  C   LIG    1        2.365   1.348  -0.013  0.00  0.00    +0.015 C 
ATOM     26  C   LIG    1        2.310  -0.031  -0.020  0.00  0.00    +0.082 C 
ATOM     27  N   LIG    1        1.151  -0.662  -0.013  0.00  0.00    -0.301 NA
ATOM     28  H   LIG    1        1.154  -1.762  -0.018  0.00  0.00    +0.123 HD
ENDBRANCH  19  22
ENDBRANCH  15  16
ENDBRANCH   1  15
TORSDOF 6
