REMARK  Name = ZINC14949337
REMARK                            x       y       z     vdW  Elec       q    Type
REMARK                         _______ _______ _______ _____ _____    ______ ____
ROOT
ATOM      1  C   LIG    1       -5.834   5.913  -1.810  0.00  0.00    +0.000 A 
ATOM      2  C   LIG    1       -4.681   6.180  -2.525  0.00  0.00    +0.000 A 
ATOM      3  C   LIG    1       -3.756   5.177  -2.731  0.00  0.00    +0.005 A 
ATOM      4  C   LIG    1       -3.975   3.902  -2.225  0.00  0.00    -0.027 A 
ATOM      5  C   LIG    1       -5.119   3.637  -1.506  0.00  0.00    -0.041 A 
ATOM      6  C   LIG    1       -5.418   2.285  -0.915  0.00  0.00    +0.054 C 
ATOM      7  C   LIG    1       -4.596   1.196  -1.604  0.00  0.00    +0.112 C 
ATOM      8  N   LIG    1       -3.201   1.662  -1.679  0.00  0.00    -0.298 N 
ATOM      9  C   LIG    1       -2.213   1.024  -1.022  0.00  0.00    +0.202 C 
ATOM     10  O   LIG    1       -2.464   0.045  -0.352  0.00  0.00    -0.277 OA
ATOM     11  C   LIG    1       -2.932   2.852  -2.493  0.00  0.00    +0.143 C 
ATOM     12  C   LIG    1       -6.050   4.649  -1.303  0.00  0.00    +0.004 A 
ENDROOT
BRANCH   9  13
ATOM     13  C   LIG    1       -0.795   1.527  -1.120  0.00  0.00    +0.016 C 
BRANCH  13  14
ATOM     14  C   LIG    1       -0.175   1.052  -2.435  0.00  0.00    -0.017 C 
ATOM     15  C   LIG    1       -0.178  -0.477  -2.478  0.00  0.00    +0.002 C 
ATOM     16  C   LIG    1        0.442  -0.953  -3.793  0.00  0.00    +0.000 C 
ATOM     17  C   LIG    1        1.881  -0.442  -3.893  0.00  0.00    +0.000 C 
ATOM     18  C   LIG    1        1.883   1.088  -3.850  0.00  0.00    +0.000 C 
ATOM     19  C   LIG    1        1.263   1.563  -2.535  0.00  0.00    +0.002 C 
ENDBRANCH  13  14
BRANCH  13  20
ATOM     20  N   LIG    1       -0.025   1.014   0.027  0.00  0.00    +0.386 N 
ATOM     21  H   LIG    1       -0.476   1.316   0.899  0.00  0.00    -0.089 HD
ATOM     22  H   LIG    1        0.925   1.379   0.001  0.00  0.00    -0.089 HD
ATOM     23  H   LIG    1        0.002  -0.004   0.002  0.00  0.00    -0.089 HD
ENDBRANCH  13  20
ENDBRANCH   9  13
TORSDOF 3
