REMARK  Name = ZINC14253608
REMARK                            x       y       z     vdW  Elec       q    Type
REMARK                         _______ _______ _______ _____ _____    ______ ____
ROOT
ATOM      1  N   LIG    1       -2.169   6.045   3.694  0.00  0.00    +0.386 N 
ATOM      2  H   LIG    1       -1.785   5.477   4.458  0.00  0.00    -0.081 HD
ATOM      3  C   LIG    1       -1.917   7.472   3.983  0.00  0.00    -0.011 C 
ATOM      4  C   LIG    1       -2.514   7.814   5.351  0.00  0.00    +0.134 C 
ATOM      5  C   LIG    1       -4.022   7.552   5.324  0.00  0.00    +0.168 C 
ATOM      6  C   LIG    1       -4.270   6.088   4.950  0.00  0.00    +0.129 C 
ATOM      7  C   LIG    1       -3.623   5.796   3.595  0.00  0.00    -0.044 C 
ENDROOT
BRANCH   4   8
ATOM      8  O   LIG    1       -2.275   9.193   5.644  0.00  0.00    -0.391 OA
ATOM      9  H   LIG    1       -2.626   9.480   6.498  0.00  0.00    +0.210 HD
ENDBRANCH   4   8
BRANCH   5  10
ATOM     10  O   LIG    1       -4.575   7.815   6.615  0.00  0.00    -0.387 OA
ATOM     11  H   LIG    1       -5.529   7.669   6.672  0.00  0.00    +0.210 HD
ENDBRANCH   5  10
BRANCH   6  12
ATOM     12  O   LIG    1       -5.677   5.848   4.869  0.00  0.00    -0.391 OA
ATOM     13  H   LIG    1       -5.908   4.939   4.636  0.00  0.00    +0.210 HD
ENDBRANCH   6  12
BRANCH   1  14
ATOM     14  C   LIG    1       -1.505   5.661   2.431  0.00  0.00    -0.078 C 
BRANCH  14  15
ATOM     15  C   LIG    1       -1.654   4.151   2.233  0.00  0.00    -0.019 C 
BRANCH  15  16
ATOM     16  C   LIG    1       -0.950   3.734   0.941  0.00  0.00    -0.002 C 
BRANCH  16  17
ATOM     17  C   LIG    1       -1.099   2.224   0.743  0.00  0.00    -0.000 C 
BRANCH  17  18
ATOM     18  C   LIG    1       -0.395   1.807  -0.549  0.00  0.00    -0.000 C 
BRANCH  18  19
ATOM     19  C   LIG    1       -0.544   0.297  -0.747  0.00  0.00    -0.000 C 
BRANCH  19  20
ATOM     20  C   LIG    1        0.160  -0.120  -2.040  0.00  0.00    -0.000 C 
BRANCH  20  22
ATOM     21  C   LIG    1        0.715  -2.047  -3.530  0.00  0.00    +0.004 C 
ATOM     22  C   LIG    1        0.011  -1.630  -2.237  0.00  0.00    -0.003 C 
ENDBRANCH  20  22
ENDBRANCH  19  20
ENDBRANCH  18  19
ENDBRANCH  17  18
ENDBRANCH  16  17
ENDBRANCH  15  16
ENDBRANCH  14  15
ENDBRANCH   1  14
BRANCH   3  23
ATOM     23  C   LIG    1       -0.407   7.715   4.011  0.00  0.00    +0.143 C 
BRANCH  23  24
ATOM     24  O   LIG    1        0.179   6.946   5.064  0.00  0.00    -0.397 OA
ATOM     25  H   LIG    1        1.138   7.051   5.141  0.00  0.00    +0.209 HD
ENDBRANCH  23  24
ENDBRANCH   3  23
TORSDOF 13
