REMARK  Name = ZINC13836505
REMARK                            x       y       z     vdW  Elec       q    Type
REMARK                         _______ _______ _______ _____ _____    ______ ____
ROOT
ATOM      1  C   LIG    1       -1.372   3.254   0.072  0.00  0.00    +0.129 A 
ATOM      2  C   LIG    1       -0.245   3.826  -0.505  0.00  0.00    +0.046 A 
ATOM      3  C   LIG    1       -0.204   5.185  -0.757  0.00  0.00    +0.004 A 
ATOM      4  C   LIG    1       -1.281   5.984  -0.437  0.00  0.00    +0.008 A 
ATOM      5  C   LIG    1       -2.421   5.419   0.145  0.00  0.00    -0.020 A 
ATOM      6  C   LIG    1       -2.463   4.043   0.393  0.00  0.00    +0.054 A 
ENDROOT
BRANCH   5   7
ATOM      7  C   LIG    1       -3.572   6.266   0.489  0.00  0.00    +0.028 C 
ATOM      8  C   LIG    1       -4.619   5.743   1.174  0.00  0.00    +0.080 C 
ATOM      9  C   LIG    1       -5.919   6.355   1.520  0.00  0.00    +0.261 C 
ATOM     10  N   LIG    1       -6.766   5.601   2.200  0.00  0.00    -0.218 N 
ATOM     11  C   LIG    1       -6.449   4.343   2.569  0.00  0.00    +0.286 C 
ATOM     12  O   LIG    1       -7.122   3.548   3.197  0.00  0.00    -0.262 OA
ATOM     13  O   LIG    1       -6.199   7.493   1.191  0.00  0.00    -0.269 OA
ATOM     14  S   LIG    1       -4.802   4.127   1.914  0.00  0.00    -0.026 S 
BRANCH  10  15
ATOM     15  C   LIG    1       -8.074   6.147   2.569  0.00  0.00    +0.237 C 
BRANCH  15  16
ATOM     16  C   LIG    1       -7.975   6.828   3.909  0.00  0.00    +0.323 C 
ATOM     17  O   LIG    1       -6.919   6.855   4.497  0.00  0.00    -0.249 OA
BRANCH  16  18
ATOM     18  O   LIG    1       -9.059   7.405   4.451  0.00  0.00    -0.480 OA
ATOM     19  H   LIG    1       -9.877   7.385   3.996  0.00  0.00    +0.295 HD
ENDBRANCH  16  18
ENDBRANCH  15  16
ENDBRANCH  10  15
ENDBRANCH   5   7
BRANCH   1  20
ATOM     20  O   LIG    1       -1.406   1.917   0.315  0.00  0.00    -0.456 OA
BRANCH  20  24
ATOM     21  C   LIG    1        1.894  -0.333  -0.714  0.00  0.00    +0.000 A 
ATOM     22  C   LIG    1        1.888   0.381   0.470  0.00  0.00    +0.004 A 
ATOM     23  C   LIG    1        0.785   1.137   0.816  0.00  0.00    +0.046 A 
ATOM     24  C   LIG    1       -0.318   1.179  -0.025  0.00  0.00    +0.128 A 
ATOM     25  C   LIG    1       -0.309   0.461  -1.213  0.00  0.00    +0.046 A 
ATOM     26  C   LIG    1        0.797  -0.293  -1.554  0.00  0.00    +0.004 A 
ENDBRANCH  20  24
ENDBRANCH   1  20
TORSDOF 6
