REMARK  Name = ZINC36175852
REMARK                            x       y       z     vdW  Elec       q    Type
REMARK                         _______ _______ _______ _____ _____    ______ ____
ROOT
ATOM      1  C   LIG    1       -0.019   1.526   0.010  0.00  0.00    +0.026 C 
ATOM      2  C   LIG    1        0.002  -0.004   0.002  0.00  0.00    +0.107 C 
ATOM      3  C   LIG    1        0.662  -0.617  -1.268  0.00  0.00    +0.136 C 
ATOM      4  C   LIG    1        2.031   0.111  -1.417  0.00  0.00    +0.035 C 
ATOM      5  C   LIG    1        2.873  -0.505  -0.270  0.00  0.00    +0.035 C 
ATOM      6  C   LIG    1        1.878  -1.507   0.389  0.00  0.00    +0.134 C 
ATOM      7  O   LIG    1        1.070  -1.935  -0.774  0.00  0.00    -0.371 OA
ATOM      8  C   LIG    1       -1.363  -0.638   0.207  0.00  0.00    +0.324 C 
ATOM      9  O   LIG    1       -2.417  -0.230  -0.220  0.00  0.00    -0.250 OA
ATOM     10  O   LIG    1       -1.173  -1.742   0.957  0.00  0.00    -0.393 OA
ATOM     11  C   LIG    1       -0.179  -1.533   1.843  0.00  0.00    +0.321 C 
ATOM     12  O   LIG    1       -0.112  -1.972   2.967  0.00  0.00    -0.250 OA
ATOM     13  C   LIG    1        0.840  -0.639   1.159  0.00  0.00    +0.146 C 
ENDROOT
TORSDOF 0
