REMARK  Name = ZINC13803778
REMARK                            x       y       z     vdW  Elec       q    Type
REMARK                         _______ _______ _______ _____ _____    ______ ____
ROOT
ATOM      1  C   LIG    1        0.028  -2.819  -2.484  0.00  0.00    +0.190 C 
ATOM      2  O   LIG    1        0.015  -2.208  -3.536  0.00  0.00    -0.287 OA
ENDROOT
BRANCH   1   6
ATOM      3  C   LIG    1       -0.018   1.503   0.010  0.00  0.00    +0.045 C 
ATOM      4  C   LIG    1        0.002  -0.004   0.002  0.00  0.00    -0.031 A 
ATOM      5  C   LIG    1        0.006  -0.685  -1.197  0.00  0.00    +0.016 A 
ATOM      6  C   LIG    1        0.025  -2.082  -1.203  0.00  0.00    +0.022 A 
ATOM      7  C   LIG    1        0.040  -2.780   0.008  0.00  0.00    +0.013 A 
ATOM      8  C   LIG    1        0.036  -2.087   1.199  0.00  0.00    +0.021 A 
ATOM      9  C   LIG    1        0.023  -0.702   1.199  0.00  0.00    +0.044 A 
ATOM     10 CL   LIG    1        0.026   0.164   2.704  0.00  0.00    -0.083 Cl
ENDBRANCH   1   6
BRANCH   1  11
ATOM     11  C   LIG    1        0.048  -4.285  -2.487  0.00  0.00    +0.104 C 
ATOM     12  C   LIG    1        0.051  -4.960  -3.660  0.00  0.00    +0.205 C 
BRANCH  12  13
ATOM     13  C   LIG    1        0.071  -6.440  -3.663  0.00  0.00    +0.374 C 
ATOM     14  O   LIG    1        0.085  -7.049  -2.612  0.00  0.00    -0.242 OA
BRANCH  13  15
ATOM     15  O   LIG    1        0.074  -7.112  -4.831  0.00  0.00    -0.462 OA
ATOM     16  C   LIG    1        0.094  -8.539  -4.758  0.00  0.00    +0.280 C 
ENDBRANCH  13  15
ENDBRANCH  12  13
BRANCH  12  17
ATOM     17  O   LIG    1        0.036  -4.281  -4.830  0.00  0.00    -0.501 OA
ATOM     18  H   LIG    1        0.023  -3.344  -4.829  0.00  0.00    +0.292 HD
ENDBRANCH  12  17
ENDBRANCH   1  11
TORSDOF 5
