REMARK  Name = ZINC26577365
REMARK                            x       y       z     vdW  Elec       q    Type
REMARK                         _______ _______ _______ _____ _____    ______ ____
ROOT
ATOM      1  C   LIG    1        1.156   3.185   0.008  0.00  0.00    +0.081 A 
ATOM      2  C   LIG    1       -0.070   3.856   0.022  0.00  0.00    +0.055 A 
ATOM      3  C   LIG    1       -1.247   3.135   0.030  0.00  0.00    +0.124 A 
ATOM      4  F   LIG    1       -2.432   3.784   0.044  0.00  0.00    -0.205 F 
ATOM      5  C   LIG    1       -1.218   1.749   0.017  0.00  0.00    +0.042 A 
ATOM      6  C   LIG    1       -0.013   1.076   0.008  0.00  0.00    +0.049 A 
ATOM      7  C   LIG    1        1.180   1.784   0.000  0.00  0.00    +0.129 A 
ENDROOT
BRANCH   1  10
ATOM      8  N   LIG    1        2.392   5.296   0.007  0.00  0.00    -0.309 N 
ATOM      9  H   LIG    1        1.428   5.827   0.018  0.00  0.00    +0.149 HD
ATOM     10  C   LIG    1        2.418   3.948   0.000  0.00  0.00    +0.248 C 
ATOM     11  O   LIG    1        3.483   3.362  -0.012  0.00  0.00    -0.270 OA
BRANCH   8  13
ATOM     12  C   LIG    1        3.400   7.439  -0.601  0.00  0.00    +0.027 C 
ATOM     13  C   LIG    1        3.645   6.054  -0.000  0.00  0.00    +0.067 C 
ATOM     14  C   LIG    1        4.160   6.203   1.433  0.00  0.00    +0.027 C 
ENDBRANCH   8  13
ENDBRANCH   1  10
BRANCH   7  15
ATOM     15  O   LIG    1        2.365   1.123  -0.015  0.00  0.00    -0.506 OA
ATOM     16  H   LIG    1        2.381   0.023  -0.020  0.00  0.00    +0.292 HD
ENDBRANCH   7  15
TORSDOF 3
