REMARK  Name = ZINC28564707
REMARK                            x       y       z     vdW  Elec       q    Type
REMARK                         _______ _______ _______ _____ _____    ______ ____
ROOT
ATOM      1  C   LIG    1       -1.110   2.020   1.327  0.00  0.00    +0.403 C 
ATOM      2  F   LIG    1       -2.361   1.406   1.211  0.00  0.00    -0.174 F 
ATOM      3  F   LIG    1       -1.258   3.406   1.212  0.00  0.00    -0.174 F 
ENDROOT
BRANCH   1   8
ATOM      4  C   LIG    1        1.192   0.748   6.472  0.00  0.00    +0.044 C 
ATOM      5  C   LIG    1        0.592   1.079   5.130  0.00  0.00    -0.050 A 
ATOM      6  C   LIG    1       -0.202   2.202   4.987  0.00  0.00    +0.004 A 
ATOM      7  C   LIG    1       -0.753   2.506   3.756  0.00  0.00    +0.011 A 
ATOM      8  C   LIG    1       -0.509   1.688   2.668  0.00  0.00    +0.045 A 
ATOM      9  C   LIG    1        0.281   0.563   2.813  0.00  0.00    +0.011 A 
ATOM     10  C   LIG    1        0.835   0.261   4.043  0.00  0.00    +0.004 A 
ENDBRANCH   1   8
BRANCH   1  11
ATOM     11  S   LIG    1       -0.017   1.417   0.010  0.00  0.00    +0.097 S 
ATOM     12  O   LIG    1        1.195   2.158   0.002  0.00  0.00    -0.152 OA
ATOM     13  O   LIG    1        0.002  -0.004   0.002  0.00  0.00    -0.152 OA
BRANCH  11  14
ATOM     14  N   LIG    1       -0.778   1.837  -1.400  0.00  0.00    -0.202 NA
ATOM     15  H   LIG    1       -0.891   2.850  -1.383  0.00  0.00    +0.144 HD
ATOM     16  H   LIG    1       -0.321   1.585  -2.368  0.00  0.00    +0.144 HD
ENDBRANCH  11  14
ENDBRANCH   1  11
TORSDOF 3
