REMARK  Name = ZINC40394932
REMARK                            x       y       z     vdW  Elec       q    Type
REMARK                         _______ _______ _______ _____ _____    ______ ____
ROOT
ATOM      1  C   LIG    1        1.144  -3.042   2.625  0.00  0.00    +0.202 C 
ATOM      2  N   LIG    1        2.469  -3.266   2.735  0.00  0.00    -0.294 N 
ATOM      3  C   LIG    1        3.485  -3.016   1.708  0.00  0.00    +0.143 C 
ATOM      4  C   LIG    1        4.822  -3.417   2.278  0.00  0.00    -0.025 A 
ATOM      5  C   LIG    1        6.093  -3.384   1.732  0.00  0.00    +0.005 A 
ATOM      6  C   LIG    1        7.177  -3.816   2.472  0.00  0.00    +0.000 A 
ATOM      7  C   LIG    1        6.992  -4.280   3.761  0.00  0.00    +0.000 A 
ATOM      8  C   LIG    1        5.723  -4.312   4.307  0.00  0.00    +0.005 A 
ATOM      9  C   LIG    1        4.637  -3.881   3.565  0.00  0.00    -0.025 A 
ATOM     10  C   LIG    1        3.170  -3.801   3.906  0.00  0.00    +0.143 C 
ATOM     11  O   LIG    1        0.397  -3.374   3.520  0.00  0.00    -0.277 OA
ENDROOT
BRANCH   1  12
ATOM     12  C   LIG    1        0.592  -2.378   1.390  0.00  0.00    +0.016 C 
BRANCH  12  13
ATOM     13  N   LIG    1       -0.713  -2.967   1.059  0.00  0.00    +0.386 N 
ATOM     14  H   LIG    1       -1.083  -2.522   0.232  0.00  0.00    -0.089 HD
ATOM     15  H   LIG    1       -1.349  -2.827   1.830  0.00  0.00    -0.089 HD
ATOM     16  H   LIG    1       -0.603  -3.955   0.890  0.00  0.00    -0.089 HD
ENDBRANCH  12  13
BRANCH  12  17
ATOM     17  C   LIG    1        0.425  -0.879   1.647  0.00  0.00    -0.020 C 
ATOM     18  C   LIG    1        1.792  -0.258   1.943  0.00  0.00    +0.006 C 
BRANCH  17  20
ATOM     19  C   LIG    1       -0.464   1.260   0.711  0.00  0.00    +0.004 C 
ATOM     20  C   LIG    1       -0.181  -0.214   0.410  0.00  0.00    -0.001 C 
ENDBRANCH  17  20
ENDBRANCH  12  17
ENDBRANCH   1  12
TORSDOF 4
