REMARK  Name = ZINC13985866
REMARK                            x       y       z     vdW  Elec       q    Type
REMARK                         _______ _______ _______ _____ _____    ______ ____
ROOT
ATOM      1  C   LIG    1       -0.890  -0.839   0.650  0.00  0.00    +0.093 A 
ATOM      2  C   LIG    1        0.002  -0.004   0.002  0.00  0.00    +0.074 A 
ATOM      3  N   LIG    1        0.895  -0.783  -0.632  0.00  0.00    -0.343 N 
ATOM      4  H   LIG    1        1.682  -0.443  -1.196  0.00  0.00    +0.167 HD
ATOM      5  C   LIG    1        0.606  -2.045  -0.419  0.00  0.00    +0.088 A 
ATOM      6  C   LIG    1        1.103  -3.437  -0.762  0.00  0.00    +0.074 C 
ATOM      7  C   LIG    1        0.403  -4.354   0.266  0.00  0.00    +0.035 C 
ATOM      8  C   LIG    1       -0.853  -3.529   0.621  0.00  0.00    +0.115 C 
ATOM      9  N   LIG    1       -0.489  -2.128   0.360  0.00  0.00    -0.322 N 
ENDROOT
BRANCH   2  10
ATOM     10  C   LIG    1       -0.018   1.477   0.010  0.00  0.00    +0.001 A 
ATOM     11  C   LIG    1       -1.234   2.160   0.020  0.00  0.00    +0.013 A 
ATOM     12  C   LIG    1       -1.247   3.540   0.032  0.00  0.00    +0.039 A 
ATOM     13  C   LIG    1       -0.056   4.247   0.024  0.00  0.00    +0.123 A 
ATOM     14  F   LIG    1       -0.074   5.597   0.031  0.00  0.00    -0.205 F 
ATOM     15  C   LIG    1        1.155   3.572   0.010  0.00  0.00    +0.039 A 
ATOM     16  C   LIG    1        1.179   2.193   0.003  0.00  0.00    +0.013 A 
ENDBRANCH   2  10
BRANCH   1  21
ATOM     17  C   LIG    1       -3.084   1.118   2.831  0.00  0.00    +0.216 A 
ATOM     18  N   LIG    1       -4.132   0.326   3.004  0.00  0.00    -0.223 NA
ATOM     19  C   LIG    1       -4.188  -0.868   2.434  0.00  0.00    +0.116 A 
ATOM     20  C   LIG    1       -3.135  -1.292   1.646  0.00  0.00    +0.050 A 
ATOM     21  C   LIG    1       -2.039  -0.434   1.480  0.00  0.00    +0.094 A 
ATOM     22  N   LIG    1       -2.050   0.753   2.090  0.00  0.00    -0.213 NA
BRANCH  17  23
ATOM     23  N   LIG    1       -3.067   2.358   3.446  0.00  0.00    -0.313 N 
ATOM     24  H   LIG    1       -2.306   2.948   3.328  0.00  0.00    +0.149 HD
BRANCH  23  25
ATOM     25  C   LIG    1       -4.198   2.779   4.276  0.00  0.00    +0.104 C 
BRANCH  25  27
ATOM     26  C   LIG    1       -5.110   4.618   5.701  0.00  0.00    +0.005 C 
ATOM     27  C   LIG    1       -3.928   4.178   4.834  0.00  0.00    +0.015 C 
ENDBRANCH  25  27
ENDBRANCH  23  25
ENDBRANCH  17  23
ENDBRANCH   1  21
BRANCH   8  28
ATOM     28  C   LIG    1       -1.210  -3.718   2.096  0.00  0.00    +0.181 C 
BRANCH  28  29
ATOM     29  O   LIG    1       -1.617  -5.069   2.319  0.00  0.00    -0.393 OA
ATOM     30  H   LIG    1       -1.859  -5.261   3.235  0.00  0.00    +0.209 HD
ENDBRANCH  28  29
ENDBRANCH   8  28
TORSDOF 7
