REMARK  Name = ZINC29210990
REMARK                            x       y       z     vdW  Elec       q    Type
REMARK                         _______ _______ _______ _____ _____    ______ ____
ROOT
ATOM      1  C   LIG    1        1.484   1.891  -0.002  0.00  0.00    +0.003 C 
ATOM      2  C   LIG    1       -0.019   1.539   0.011  0.00  0.00    +0.011 C 
ATOM      3  C   LIG    1        0.002  -0.004   0.002  0.00  0.00    +0.040 C 
ATOM      4  C   LIG    1        1.310  -0.379  -0.661  0.00  0.00    +0.001 A 
ATOM      5  C   LIG    1        1.723  -1.580  -1.220  0.00  0.00    +0.162 A 
ATOM      6  C   LIG    1        2.991  -1.689  -1.781  0.00  0.00    +0.159 A 
ATOM      7  C   LIG    1        3.839  -0.594  -1.780  0.00  0.00    +0.049 A 
ATOM      8  C   LIG    1        3.424   0.600  -1.223  0.00  0.00    +0.008 A 
ATOM      9  C   LIG    1        2.162   0.711  -0.664  0.00  0.00    -0.039 A 
ENDROOT
BRANCH   5  10
ATOM     10  O   LIG    1        0.887  -2.653  -1.218  0.00  0.00    -0.503 OA
ATOM     11  H   LIG    1        1.214  -3.606  -1.660  0.00  0.00    +0.292 HD
ENDBRANCH   5  10
BRANCH   6  12
ATOM     12  O   LIG    1        3.396  -2.866  -2.328  0.00  0.00    -0.503 OA
ATOM     13  H   LIG    1        2.721  -3.734  -2.328  0.00  0.00    +0.292 HD
ENDBRANCH   6  12
BRANCH   1  14
ATOM     14  C   LIG    1        1.724   3.165  -0.814  0.00  0.00    -0.071 C 
BRANCH  14  16
ATOM     15  C   LIG    1        3.459   4.624  -1.665  0.00  0.00    -0.097 C 
ATOM     16  N   LIG    1        3.138   3.550  -0.715  0.00  0.00    +0.376 N 
ATOM     17  H   LIG    1        3.747   2.672  -0.980  0.00  0.00    -0.083 HD
ATOM     18  C   LIG    1        3.483   3.941   0.658  0.00  0.00    -0.097 C 
ENDBRANCH  14  16
ENDBRANCH   1  14
TORSDOF 4
