REMARK  Name = ZINC19228902
REMARK                            x       y       z     vdW  Elec       q    Type
REMARK                         _______ _______ _______ _____ _____    ______ ____
ROOT
ATOM      1  C   LIG    1        3.444  -4.977   0.039  0.00  0.00    +0.002 A 
ATOM      2  C   LIG    1        4.386  -4.577   0.967  0.00  0.00    +0.001 A 
ATOM      3  C   LIG    1        4.279  -3.336   1.568  0.00  0.00    +0.017 A 
ATOM      4  C   LIG    1        3.226  -2.492   1.242  0.00  0.00    +0.034 A 
ATOM      5  C   LIG    1        2.273  -2.893   0.311  0.00  0.00    +0.048 A 
ATOM      6  N   LIG    1        1.195  -2.083  -0.034  0.00  0.00    -0.298 N 
ATOM      7  C   LIG    1        1.171  -0.696   0.086  0.00  0.00    +0.049 A 
ATOM      8  C   LIG    1        0.302   0.033  -0.720  0.00  0.00    +0.044 A 
ATOM      9  C   LIG    1        0.249   1.411  -0.623  0.00  0.00    +0.043 A 
ATOM     10 CL   LIG    1       -0.838   2.309  -1.635  0.00  0.00    -0.083 Cl
ATOM     11  C   LIG    1        1.061   2.077   0.278  0.00  0.00    +0.021 A 
ATOM     12  C   LIG    1        1.929   1.362   1.083  0.00  0.00    +0.018 A 
ATOM     13  C   LIG    1        1.989  -0.021   0.988  0.00  0.00    +0.034 A 
ATOM     14  S   LIG    1        3.109  -0.913   2.014  0.00  0.00    -0.086 S 
ATOM     15  C   LIG    1        2.393  -4.142  -0.290  0.00  0.00    +0.024 A 
ENDROOT
BRANCH   6  16
ATOM     16  C   LIG    1       -0.004  -2.738  -0.563  0.00  0.00    +0.112 C 
BRANCH  16  17
ATOM     17  C   LIG    1        0.101  -2.842  -2.086  0.00  0.00    +0.035 C 
BRANCH  17  18
ATOM     18  C   LIG    1       -1.151  -3.526  -2.638  0.00  0.00    +0.086 C 
BRANCH  18  19
ATOM     19  N   LIG    1       -1.051  -3.626  -4.100  0.00  0.00    -0.300 NA
ATOM     20  C   LIG    1       -1.081  -2.295  -4.722  0.00  0.00    +0.100 C 
ATOM     21  C   LIG    1       -0.893  -2.437  -6.234  0.00  0.00    +0.100 C 
ATOM     22  N   LIG    1       -1.957  -3.293  -6.778  0.00  0.00    -0.298 NA
ATOM     23  C   LIG    1       -1.927  -4.625  -6.156  0.00  0.00    +0.100 C 
ATOM     24  C   LIG    1       -2.114  -4.482  -4.644  0.00  0.00    +0.100 C 
BRANCH  22  25
ATOM     25  C   LIG    1       -1.856  -3.393  -8.240  0.00  0.00    +0.112 C 
BRANCH  25  26
ATOM     26  C   LIG    1       -3.108  -4.078  -8.793  0.00  0.00    +0.171 C 
BRANCH  26  27
ATOM     27  O   LIG    1       -4.249  -3.253  -8.548  0.00  0.00    -0.394 OA
ATOM     28  H   LIG    1       -5.080  -3.625  -8.872  0.00  0.00    +0.209 HD
ENDBRANCH  26  27
ENDBRANCH  25  26
ENDBRANCH  22  25
ENDBRANCH  18  19
ENDBRANCH  17  18
ENDBRANCH  16  17
ENDBRANCH   6  16
TORSDOF 7
