REMARK  Name = ZINC29055954
REMARK                            x       y       z     vdW  Elec       q    Type
REMARK                         _______ _______ _______ _____ _____    ______ ____
ROOT
ATOM      1  C   LIG    1        1.214  -2.180  -0.022  0.00  0.00    +0.028 C 
ATOM      2  C   LIG    1        0.042  -2.853   0.088  0.00  0.00    +0.079 C 
ATOM      3  C   LIG    1       -1.349  -2.340   0.126  0.00  0.00    +0.276 C 
ATOM      4  N   LIG    1       -2.299  -3.241   0.240  0.00  0.00    -0.154 NA
ATOM      5  C   LIG    1       -2.044  -4.537   0.317  0.00  0.00    +0.152 C 
ATOM      6  O   LIG    1       -1.597  -1.147   0.056  0.00  0.00    -0.267 OA
ATOM      7  S   LIG    1       -0.262  -4.611   0.219  0.00  0.00    -0.052 S 
ENDROOT
BRANCH   1  12
ATOM      8  C   LIG    1        2.877   3.551  -1.369  0.00  0.00    +0.020 A 
ATOM      9  C   LIG    1        2.922   2.192  -1.503  0.00  0.00    +0.011 A 
ATOM     10  C   LIG    1        2.081   1.414  -0.683  0.00  0.00    +0.001 A 
ATOM     11  C   LIG    1        2.075   0.016  -0.768  0.00  0.00    +0.018 A 
ATOM     12  C   LIG    1        1.229  -0.713   0.059  0.00  0.00    -0.023 A 
ATOM     13  C   LIG    1        0.386  -0.053   0.975  0.00  0.00    +0.010 A 
ATOM     14  C   LIG    1        0.382   1.300   1.067  0.00  0.00    +0.029 A 
ATOM     15  C   LIG    1        1.227   2.068   0.243  0.00  0.00    +0.071 A 
ATOM     16  N   LIG    1        1.234   3.401   0.323  0.00  0.00    -0.255 NA
ATOM     17  C   LIG    1        2.015   4.128  -0.440  0.00  0.00    +0.111 A 
ENDBRANCH   1  12
BRANCH   5  18
ATOM     18  N   LIG    1       -2.932  -5.572   0.437  0.00  0.00    -0.321 N 
ATOM     19  H   LIG    1       -2.565  -6.608   0.490  0.00  0.00    +0.148 HD
BRANCH  18  20
ATOM     20  C   LIG    1       -4.370  -5.301   0.495  0.00  0.00    +0.145 C 
BRANCH  20  21
ATOM     21  C   LIG    1       -5.122  -6.600   0.626  0.00  0.00    +0.007 A 
ATOM     22  C   LIG    1       -5.487  -7.266   1.750  0.00  0.00    +0.013 A 
ATOM     23  C   LIG    1       -6.183  -8.454   1.629  0.00  0.00    +0.008 A 
ATOM     24  C   LIG    1       -6.471  -8.924   0.391  0.00  0.00    +0.045 A 
ATOM     25  S   LIG    1       -5.756  -7.667  -0.657  0.00  0.00    -0.100 S 
ENDBRANCH  20  21
ENDBRANCH  18  20
ENDBRANCH   5  18
TORSDOF 4
