REMARK  Name = ZINC28455803
REMARK                            x       y       z     vdW  Elec       q    Type
REMARK                         _______ _______ _______ _____ _____    ______ ____
ROOT
ATOM      1  C   LIG    1       -0.050  -4.182   2.747  0.00  0.00    +0.195 A 
ATOM      2  N   LIG    1       -0.360  -5.252   3.545  0.00  0.00    -0.334 N 
ATOM      3  C   LIG    1        0.745  -5.508   4.324  0.00  0.00    +0.067 A 
ATOM      4  C   LIG    1        1.038  -6.448   5.304  0.00  0.00    +0.029 A 
ATOM      5  C   LIG    1        2.271  -6.434   5.918  0.00  0.00    +0.022 A 
ATOM      6  C   LIG    1        3.224  -5.486   5.564  0.00  0.00    +0.043 A 
ATOM      7 CL   LIG    1        4.771  -5.488   6.352  0.00  0.00    -0.083 Cl
ATOM      8  C   LIG    1        2.958  -4.553   4.603  0.00  0.00    +0.050 A 
ATOM      9  C   LIG    1        1.711  -4.547   3.964  0.00  0.00    +0.091 A 
ATOM     10  H   LIG    1       -1.199  -5.738   3.556  0.00  0.00    +0.168 HD
ATOM     11  N   LIG    1        1.168  -3.776   3.005  0.00  0.00    -0.223 NA
ENDROOT
BRANCH   1  18
ATOM     12  C   LIG    1       -0.683   1.726   0.690  0.00  0.00    -0.096 C 
ATOM     13  N   LIG    1       -0.422   0.290   0.526  0.00  0.00    +0.380 N 
ATOM     14  H   LIG    1        0.181   0.148  -0.270  0.00  0.00    -0.082 HD
ATOM     15  C   LIG    1       -1.692  -0.414   0.304  0.00  0.00    -0.060 C 
ATOM     16  C   LIG    1       -1.411  -1.893   0.019  0.00  0.00    +0.089 C 
ATOM     17  N   LIG    1       -0.601  -2.435   1.121  0.00  0.00    -0.299 N 
ATOM     18  C   LIG    1       -0.956  -3.574   1.748  0.00  0.00    +0.282 C 
ATOM     19  O   LIG    1       -2.021  -4.101   1.493  0.00  0.00    -0.267 OA
ATOM     20  C   LIG    1        0.609  -1.698   1.519  0.00  0.00    +0.089 C 
ATOM     21  C   LIG    1        0.233  -0.228   1.734  0.00  0.00    -0.060 C 
ENDBRANCH   1  18
TORSDOF 1
