REMARK  Name = ZINC33359231
REMARK                            x       y       z     vdW  Elec       q    Type
REMARK                         _______ _______ _______ _____ _____    ______ ____
ROOT
ATOM      1  N   LIG    1        4.004  -3.719  -1.437  0.00  0.00    -0.291 NA
ENDROOT
BRANCH   1   2
ATOM      2  C   LIG    1        5.053  -2.839  -1.968  0.00  0.00    +0.074 C 
ATOM      3  C   LIG    1        5.860  -2.261  -0.807  0.00  0.00    +0.020 C 
ATOM      4  C   LIG    1        6.804  -1.187  -1.359  0.00  0.00    +0.002 C 
ATOM      5  C   LIG    1        5.965   0.013  -1.796  0.00  0.00    +0.005 C 
ATOM      6  C   LIG    1        4.840  -0.428  -2.693  0.00  0.00    +0.008 C 
ATOM      7  C   LIG    1        4.210   0.538  -3.471  0.00  0.00    +0.006 C 
ATOM      8  C   LIG    1        3.170   0.154  -4.301  0.00  0.00    +0.015 C 
ATOM      9  C   LIG    1        2.794  -1.176  -4.327  0.00  0.00    +0.081 C 
ATOM     10  N   LIG    1        3.415  -2.062  -3.578  0.00  0.00    -0.312 NA
ATOM     11  H   LIG    1        3.130  -2.988  -3.617  0.00  0.00    +0.122 HD
ATOM     12  C   LIG    1        4.416  -1.735  -2.772  0.00  0.00    +0.074 C 
ENDBRANCH   1   2
BRANCH   1  13
ATOM     13  C   LIG    1        3.329  -3.101  -0.288  0.00  0.00    +0.159 C 
BRANCH  13  20
ATOM     14  C   LIG    1       -0.666   0.974  -2.220  0.00  0.00    +0.002 A 
ATOM     15  C   LIG    1        0.435   1.816  -2.152  0.00  0.00    +0.002 A 
ATOM     16  C   LIG    1        1.650   1.342  -1.745  0.00  0.00    +0.030 A 
ATOM     17  C   LIG    1        1.791  -0.003  -1.393  0.00  0.00    +0.089 A 
ATOM     18  C   LIG    1        0.676  -0.856  -1.462  0.00  0.00    +0.066 A 
ATOM     19  N   LIG    1        1.123  -2.099  -1.060  0.00  0.00    -0.341 N 
ATOM     20  C   LIG    1        2.446  -1.979  -0.768  0.00  0.00    +0.122 A 
ATOM     21  H   LIG    1        0.591  -2.908  -0.997  0.00  0.00    +0.167 HD
ATOM     22  N   LIG    1        2.837  -0.753  -0.963  0.00  0.00    -0.231 NA
ATOM     23  C   LIG    1       -0.551  -0.357  -1.877  0.00  0.00    +0.028 A 
ENDBRANCH  13  20
ENDBRANCH   1  13
BRANCH   1  24
ATOM     24  C   LIG    1        4.551  -5.035  -1.082  0.00  0.00    +0.085 C 
BRANCH  24  25
ATOM     25  C   LIG    1        5.033  -5.747  -2.348  0.00  0.00    +0.013 C 
BRANCH  25  26
ATOM     26  C   LIG    1        5.484  -7.165  -1.995  0.00  0.00    -0.018 C 
BRANCH  26  27
ATOM     27  C   LIG    1        6.080  -7.834  -3.236  0.00  0.00    -0.086 C 
BRANCH  27  28
ATOM     28  N   LIG    1        6.405  -9.233  -2.930  0.00  0.00    +0.378 N 
ATOM     29  H   LIG    1        7.074  -9.266  -2.176  0.00  0.00    -0.090 HD
ATOM     30  H   LIG    1        6.798  -9.674  -3.748  0.00  0.00    -0.090 HD
ATOM     31  H   LIG    1        5.565  -9.721  -2.656  0.00  0.00    -0.090 HD
ENDBRANCH  27  28
ENDBRANCH  26  27
ENDBRANCH  25  26
ENDBRANCH  24  25
ENDBRANCH   1  24
TORSDOF 8
