REMARK  Name = ZINC13766768
REMARK                            x       y       z     vdW  Elec       q    Type
REMARK                         _______ _______ _______ _____ _____    ______ ____
ROOT
ATOM      1  N   LIG    1       -2.361   9.491   0.072  0.00  0.00    +0.381 N 
ATOM      2  H   LIG    1       -1.828   9.763   0.907  0.00  0.00    -0.086 HD
ATOM      3  H   LIG    1       -1.845   9.771  -0.770  0.00  0.00    -0.086 HD
ENDROOT
BRANCH   1   4
ATOM      4  C   LIG    1       -2.543   8.027   0.067  0.00  0.00    -0.079 C 
BRANCH   4   5
ATOM      5  C   LIG    1       -1.171   7.351   0.050  0.00  0.00    +0.022 C 
BRANCH   5   6
ATOM      6  C   LIG    1       -1.350   5.832   0.045  0.00  0.00    +0.227 C 
BRANCH   6   7
ATOM      7  O   LIG    1       -0.069   5.201   0.029  0.00  0.00    -0.492 OA
BRANCH   7  11
ATOM      8  C   LIG    1       -0.013   1.076   0.008  0.00  0.00    +0.000 A 
ATOM      9  C   LIG    1       -1.220   1.750   0.017  0.00  0.00    +0.004 A 
ATOM     10  C   LIG    1       -1.241   3.131   0.031  0.00  0.00    +0.045 A 
ATOM     11  C   LIG    1       -0.050   3.842   0.023  0.00  0.00    +0.120 A 
ATOM     12  C   LIG    1        1.160   3.163   0.007  0.00  0.00    +0.045 A 
ATOM     13  C   LIG    1        1.176   1.782   0.000  0.00  0.00    +0.004 A 
ENDBRANCH   7  11
ENDBRANCH   6   7
ENDBRANCH   5   6
ENDBRANCH   4   5
ENDBRANCH   1   4
BRANCH   1  14
ATOM     14  C   LIG    1       -3.670  10.170   0.088  0.00  0.00    -0.041 C 
BRANCH  14  15
ATOM     15  C   LIG    1       -3.450  11.684   0.093  0.00  0.00    +0.210 C 
BRANCH  15  16
ATOM     16  O   LIG    1       -2.830  12.079  -1.132  0.00  0.00    -0.494 OA
BRANCH  16  17
ATOM     17  C   LIG    1       -2.563  13.403  -1.290  0.00  0.00    +0.120 A 
ATOM     18  C   LIG    1       -2.896  14.303  -0.288  0.00  0.00    +0.045 A 
ATOM     19  C   LIG    1       -2.619  15.647  -0.449  0.00  0.00    +0.004 A 
ATOM     20  C   LIG    1       -2.020  16.096  -1.611  0.00  0.00    +0.000 A 
ATOM     21  C   LIG    1       -1.692  15.202  -2.613  0.00  0.00    +0.004 A 
ATOM     22  C   LIG    1       -1.962  13.856  -2.455  0.00  0.00    +0.045 A 
ENDBRANCH  16  17
ENDBRANCH  15  16
ENDBRANCH  14  15
ENDBRANCH   1  14
TORSDOF 9
