REMARK  Name = ZINC16612613
REMARK                            x       y       z     vdW  Elec       q    Type
REMARK                         _______ _______ _______ _____ _____    ______ ____
ROOT
ATOM      1  C   LIG    1       -0.219   8.331  -1.675  0.00  0.00    +0.247 C 
ATOM      2  N   LIG    1        0.846   8.175  -0.863  0.00  0.00    -0.297 N 
ATOM      3  C   LIG    1        2.203   8.469  -1.344  0.00  0.00    +0.110 C 
ATOM      4  C   LIG    1        3.087   7.241  -1.106  0.00  0.00    +0.054 C 
ATOM      5  C   LIG    1        3.003   6.833   0.362  0.00  0.00    +0.115 C 
ATOM      6  C   LIG    1        3.530   7.936   1.246  0.00  0.00    +0.241 C 
ATOM      7  N   LIG    1        4.339   7.386   2.177  0.00  0.00    -0.275 N 
ATOM      8  C   LIG    1        4.387   5.931   1.988  0.00  0.00    +0.217 C 
ATOM      9  O   LIG    1        3.272   9.117   1.138  0.00  0.00    -0.273 OA
ATOM     10  C   LIG    1        1.567   6.486   0.744  0.00  0.00    +0.054 C 
ATOM     11  N   LIG    1        3.887   5.676   0.617  0.00  0.00    -0.300 N 
ATOM     12  C   LIG    1        0.671   7.709   0.519  0.00  0.00    +0.110 C 
ATOM     13  O   LIG    1       -1.343   8.188  -1.236  0.00  0.00    -0.270 OA
ENDROOT
BRANCH   1  17
ATOM     14  C   LIG    1        0.356   9.319  -5.766  0.00  0.00    -0.042 A 
ATOM     15  C   LIG    1       -0.748   9.805  -5.088  0.00  0.00    +0.005 A 
ATOM     16  C   LIG    1       -0.941   9.487  -3.760  0.00  0.00    +0.013 A 
ATOM     17  C   LIG    1       -0.019   8.674  -3.099  0.00  0.00    +0.037 A 
ATOM     18  C   LIG    1        1.096   8.192  -3.786  0.00  0.00    +0.013 A 
ATOM     19  C   LIG    1        1.274   8.513  -5.116  0.00  0.00    +0.005 A 
BRANCH  14  21
ATOM     20  C   LIG    1        0.672  11.189  -7.364  0.00  0.00    +0.015 C 
ATOM     21  C   LIG    1        0.560   9.670  -7.217  0.00  0.00    -0.013 C 
ATOM     22  C   LIG    1       -0.629   9.165  -8.036  0.00  0.00    +0.015 C 
ATOM     23  C   LIG    1        1.845   9.012  -7.725  0.00  0.00    +0.015 C 
ENDBRANCH  14  21
ENDBRANCH   1  17
BRANCH  11  24
ATOM     24  C   LIG    1        3.172   4.477   0.560  0.00  0.00    +0.032 A 
ATOM     25  C   LIG    1        2.473   4.138  -0.591  0.00  0.00    +0.023 A 
ATOM     26  C   LIG    1        1.767   2.952  -0.645  0.00  0.00    +0.002 A 
ATOM     27  C   LIG    1        1.752   2.105   0.448  0.00  0.00    +0.000 A 
ATOM     28  C   LIG    1        2.452   2.437   1.593  0.00  0.00    +0.002 A 
ATOM     29  C   LIG    1        3.160   3.621   1.653  0.00  0.00    +0.023 A 
ENDBRANCH  11  24
BRANCH   7  30
ATOM     30  C   LIG    1        5.058   8.128   3.215  0.00  0.00    +0.205 C 
BRANCH  30  31
ATOM     31  C   LIG    1        4.195   8.233   4.446  0.00  0.00    +0.233 C 
ATOM     32  N   LIG    1        4.654   8.878   5.537  0.00  0.00    -0.300 N 
ATOM     33  C   LIG    1        5.995   9.479   5.544  0.00  0.00    +0.108 C 
ATOM     34  C   LIG    1        5.868  10.954   5.950  0.00  0.00    +0.019 C 
ATOM     35  C   LIG    1        5.131  11.047   7.289  0.00  0.00    +0.003 C 
ATOM     36  C   LIG    1        3.724  10.466   7.140  0.00  0.00    +0.019 C 
ATOM     37  C   LIG    1        3.824   8.989   6.745  0.00  0.00    +0.108 C 
ATOM     38  O   LIG    1        3.088   7.738   4.455  0.00  0.00    -0.274 OA
ENDBRANCH  30  31
ENDBRANCH   7  30
TORSDOF 5
