REMARK  Name = ZINC20639354
REMARK                            x       y       z     vdW  Elec       q    Type
REMARK                         _______ _______ _______ _____ _____    ______ ____
ROOT
ATOM      1  C   LIG    1       -0.880   1.704   1.050  0.00  0.00    -0.001 A 
ATOM      2  C   LIG    1       -0.460   2.873   1.656  0.00  0.00    +0.007 A 
ATOM      3  C   LIG    1       -1.037   3.283   2.844  0.00  0.00    +0.001 A 
ATOM      4  C   LIG    1       -2.028   2.521   3.434  0.00  0.00    +0.004 A 
ATOM      5  C   LIG    1       -2.448   1.349   2.835  0.00  0.00    +0.046 A 
ATOM      6  C   LIG    1       -1.874   0.937   1.640  0.00  0.00    +0.124 A 
ENDROOT
BRANCH   1   7
ATOM      7  C   LIG    1       -0.255   1.260  -0.247  0.00  0.00    +0.074 C 
BRANCH   7  11
ATOM      8  C   LIG    1       -2.657   2.596  -3.517  0.00  0.00    +0.000 A 
ATOM      9  C   LIG    1       -1.639   3.398  -3.034  0.00  0.00    +0.000 A 
ATOM     10  C   LIG    1       -0.862   2.966  -1.975  0.00  0.00    +0.004 A 
ATOM     11  C   LIG    1       -1.102   1.731  -1.400  0.00  0.00    -0.043 A 
ATOM     12  C   LIG    1       -2.116   0.927  -1.887  0.00  0.00    +0.004 A 
ATOM     13  C   LIG    1       -2.896   1.362  -2.942  0.00  0.00    +0.000 A 
ENDBRANCH   7  11
ENDBRANCH   1   7
BRANCH   6  14
ATOM     14  O   LIG    1       -2.285  -0.215   1.050  0.00  0.00    -0.490 OA
BRANCH  14  15
ATOM     15  C   LIG    1       -3.313  -0.954   1.713  0.00  0.00    +0.244 C 
BRANCH  15  16
ATOM     16  C   LIG    1       -3.641  -2.211   0.905  0.00  0.00    +0.125 C 
BRANCH  16  17
ATOM     17  N   LIG    1       -2.473  -3.101   0.889  0.00  0.00    -0.295 NA
ATOM     18  C   LIG    1       -2.562  -4.067  -0.216  0.00  0.00    +0.112 C 
ATOM     19  C   LIG    1       -1.300  -4.933  -0.233  0.00  0.00    +0.175 C 
ATOM     20  O   LIG    1       -1.152  -5.575   1.037  0.00  0.00    -0.377 OA
ATOM     21  C   LIG    1       -1.061  -4.664   2.135  0.00  0.00    +0.175 C 
ATOM     22  C   LIG    1       -2.321  -3.795   2.176  0.00  0.00    +0.112 C 
ENDBRANCH  16  17
ENDBRANCH  15  16
ENDBRANCH  14  15
ENDBRANCH   6  14
TORSDOF 6
