REMARK  Name = ZINC28220807
REMARK                            x       y       z     vdW  Elec       q    Type
REMARK                         _______ _______ _______ _____ _____    ______ ____
ROOT
ATOM      1  C   LIG    1        0.731  -0.503   1.223  0.00  0.00    -0.034 A 
ATOM      2  C   LIG    1        2.053  -0.157   1.428  0.00  0.00    +0.005 A 
ATOM      3  C   LIG    1        2.721  -0.611   2.550  0.00  0.00    +0.004 A 
ATOM      4  C   LIG    1        2.068  -1.420   3.462  0.00  0.00    -0.047 A 
ATOM      5  C   LIG    1        0.747  -1.770   3.255  0.00  0.00    +0.004 A 
ATOM      6  C   LIG    1        0.079  -1.312   2.135  0.00  0.00    +0.005 A 
ENDROOT
BRANCH   1   8
ATOM      7  C   LIG    1       -0.019   1.526   0.010  0.00  0.00    +0.024 C 
ATOM      8  C   LIG    1        0.002  -0.004   0.002  0.00  0.00    +0.124 C 
BRANCH   8   9
ATOM      9  C   LIG    1        0.707  -0.490  -1.238  0.00  0.00    +0.312 C 
ATOM     10  O   LIG    1        1.700  -1.172  -1.140  0.00  0.00    -0.250 OA
BRANCH   9  11
ATOM     11  O   LIG    1        0.233  -0.166  -2.451  0.00  0.00    -0.480 OA
ATOM     12  H   LIG    1       -0.537   0.363  -2.527  0.00  0.00    +0.295 HD
ENDBRANCH   9  11
ENDBRANCH   8   9
ENDBRANCH   1   8
BRANCH   4  13
ATOM     13  C   LIG    1        2.797  -1.920   4.683  0.00  0.00    +0.041 C 
BRANCH  13  14
ATOM     14  C   LIG    1        3.469  -3.257   4.363  0.00  0.00    +0.022 C 
ATOM     15  C   LIG    1        4.657  -3.048   3.391  0.00  0.00    +0.006 C 
ATOM     16  C   LIG    1        5.541  -4.292   3.659  0.00  0.00    +0.003 C 
ATOM     17  C   LIG    1        5.435  -4.509   5.183  0.00  0.00    +0.031 C 
ATOM     18  C   LIG    1        4.118  -3.851   5.630  0.00  0.00    +0.118 C 
BRANCH  18  19
ATOM     19  O   LIG    1        3.253  -4.831   6.209  0.00  0.00    -0.392 OA
ATOM     20  H   LIG    1        3.557  -5.361   7.124  0.00  0.00    +0.210 HD
ENDBRANCH  18  19
ENDBRANCH  13  14
ENDBRANCH   4  13
TORSDOF 6
