REMARK  Name = ZINC64485566
REMARK                            x       y       z     vdW  Elec       q    Type
REMARK                         _______ _______ _______ _____ _____    ______ ____
ROOT
ATOM      1  C   LIG    1        1.571  -2.513   2.342  0.00  0.00    -0.004 A 
ATOM      2  C   LIG    1        2.937  -2.719   2.296  0.00  0.00    +0.052 A 
ATOM      3  C   LIG    1        3.607  -3.178   3.419  0.00  0.00    +0.121 A 
ATOM      4  C   LIG    1        2.908  -3.430   4.590  0.00  0.00    +0.049 A 
ATOM      5  C   LIG    1        1.543  -3.224   4.637  0.00  0.00    +0.049 A 
ATOM      6  C   LIG    1        0.873  -2.760   3.514  0.00  0.00    +0.123 A 
ENDROOT
BRANCH   3   7
ATOM      7  O   LIG    1        4.951  -3.381   3.373  0.00  0.00    -0.495 OA
ATOM      8  C   LIG    1        5.577  -3.855   4.567  0.00  0.00    +0.277 C 
ENDBRANCH   3   7
BRANCH   6   9
ATOM      9  O   LIG    1       -0.470  -2.552   3.562  0.00  0.00    -0.495 OA
ATOM     10  C   LIG    1       -1.126  -2.827   4.801  0.00  0.00    +0.277 C 
ENDBRANCH   6   9
BRANCH   1  11
ATOM     11  C   LIG    1        0.842  -2.014   1.121  0.00  0.00    +0.023 C 
BRANCH  11  12
ATOM     12  C   LIG    1        0.713  -0.491   1.192  0.00  0.00    -0.051 C 
BRANCH  12  14
ATOM     13  C   LIG    1       -0.018   1.465   0.010  0.00  0.00    -0.071 C 
ATOM     14  N   LIG    1        0.002  -0.004   0.002  0.00  0.00    +0.384 N 
ATOM     15  H   LIG    1        0.474  -0.330  -0.828  0.00  0.00    -0.057 HD
BRANCH  14  16
ATOM     16  N   LIG    1       -1.362  -0.507   0.012  0.00  0.00    -0.379 NA
ATOM     17  H   LIG    1       -1.856  -0.195   0.835  0.00  0.00    +0.099 HD
ATOM     18  H   LIG    1       -1.377  -1.514  -0.058  0.00  0.00    +0.099 HD
ENDBRANCH  14  16
ENDBRANCH  12  14
ENDBRANCH  11  12
ENDBRANCH   1  11
TORSDOF 6
