REMARK  Name = ZINC22034135
REMARK                            x       y       z     vdW  Elec       q    Type
REMARK                         _______ _______ _______ _____ _____    ______ ____
ROOT
ATOM      1  C   LIG    1        8.363  -1.992   6.229  0.00  0.00    +0.112 C 
ENDROOT
BRANCH   1   6
ATOM      2  N   LIG    1        5.948  -1.956   2.760  0.00  0.00    +0.381 N 
ATOM      3  H   LIG    1        5.222  -2.443   3.264  0.00  0.00    -0.082 HD
ATOM      4  C   LIG    1        6.227  -0.674   3.421  0.00  0.00    -0.063 C 
ATOM      5  C   LIG    1        6.669  -0.929   4.864  0.00  0.00    +0.066 C 
ATOM      6  N   LIG    1        7.874  -1.771   4.862  0.00  0.00    -0.304 NA
ATOM      7  C   LIG    1        7.617  -3.048   4.182  0.00  0.00    +0.066 C 
ATOM      8  C   LIG    1        7.167  -2.776   2.745  0.00  0.00    -0.063 C 
BRANCH   2   9
ATOM      9  C   LIG    1        5.507  -1.710   1.381  0.00  0.00    -0.078 C 
BRANCH   9  10
ATOM     10  C   LIG    1        4.171  -0.963   1.399  0.00  0.00    -0.014 C 
BRANCH  10  11
ATOM     11  C   LIG    1        3.711  -0.707  -0.038  0.00  0.00    +0.033 C 
BRANCH  11  15
ATOM     12  C   LIG    1       -0.017   1.378   0.010  0.00  0.00    +0.000 A 
ATOM     13  C   LIG    1        1.171   2.086   0.002  0.00  0.00    +0.000 A 
ATOM     14  C   LIG    1        2.377   1.411  -0.013  0.00  0.00    +0.003 A 
ATOM     15  C   LIG    1        2.396   0.029  -0.020  0.00  0.00    -0.047 A 
ATOM     16  C   LIG    1        1.208  -0.679  -0.012  0.00  0.00    +0.003 A 
ATOM     17  C   LIG    1        0.002  -0.004   0.002  0.00  0.00    +0.000 A 
ENDBRANCH  11  15
ENDBRANCH  10  11
ENDBRANCH   9  10
ENDBRANCH   2   9
ENDBRANCH   1   6
BRANCH   1  18
ATOM     18  C   LIG    1        9.742  -2.654   6.177  0.00  0.00    +0.176 C 
BRANCH  18  19
ATOM     19  O   LIG    1       10.679  -1.755   5.580  0.00  0.00    -0.366 OA
BRANCH  19  20
ATOM     20  C   LIG    1       12.005  -2.279   5.483  0.00  0.00    +0.178 C 
BRANCH  20  21
ATOM     21  C   LIG    1       12.999  -1.149   5.564  0.00  0.00    -0.014 A 
ATOM     22  C   LIG    1       12.692   0.082   5.013  0.00  0.00    +0.009 A 
ATOM     23  C   LIG    1       13.603   1.119   5.088  0.00  0.00    +0.039 A 
ATOM     24  C   LIG    1       14.822   0.925   5.715  0.00  0.00    +0.123 A 
ATOM     25  F   LIG    1       15.713   1.938   5.788  0.00  0.00    -0.205 F 
ATOM     26  C   LIG    1       15.128  -0.307   6.266  0.00  0.00    +0.039 A 
ATOM     27  C   LIG    1       14.214  -1.341   6.195  0.00  0.00    +0.009 A 
ENDBRANCH  20  21
BRANCH  20  28
ATOM     28  C   LIG    1       12.167  -2.996   4.167  0.00  0.00    -0.014 A 
ATOM     29  C   LIG    1       11.612  -2.464   3.018  0.00  0.00    +0.009 A 
ATOM     30  C   LIG    1       11.760  -3.120   1.811  0.00  0.00    +0.039 A 
ATOM     31  C   LIG    1       12.464  -4.311   1.753  0.00  0.00    +0.123 A 
ATOM     32  F   LIG    1       12.609  -4.954   0.574  0.00  0.00    -0.205 F 
ATOM     33  C   LIG    1       13.019  -4.843   2.905  0.00  0.00    +0.039 A 
ATOM     34  C   LIG    1       12.874  -4.182   4.110  0.00  0.00    +0.009 A 
ENDBRANCH  20  28
ENDBRANCH  19  20
ENDBRANCH  18  19
ENDBRANCH   1  18
TORSDOF 10
