REMARK  Name = ZINC34187326
REMARK                            x       y       z     vdW  Elec       q    Type
REMARK                         _______ _______ _______ _____ _____    ______ ____
ROOT
ATOM      1  C   LIG    1        0.015  -2.673  -2.514  0.00  0.00    +0.204 C 
ATOM      2  C   LIG    1       -0.089  -4.199  -2.443  0.00  0.00    +0.253 C 
ATOM      3  C   LIG    1       -0.034  -4.773  -3.863  0.00  0.00    +0.266 C 
ATOM      4  C   LIG    1        1.260  -4.309  -4.539  0.00  0.00    +0.289 C 
ATOM      5  C   LIG    1        1.312  -2.779  -4.529  0.00  0.00    +0.353 C 
ATOM      6  O   LIG    1        1.225  -2.310  -3.182  0.00  0.00    -0.328 OA
ENDROOT
BRANCH   1   7
ATOM      7  C   LIG    1        0.020  -2.096  -1.097  0.00  0.00    +0.267 C 
BRANCH   7   8
ATOM      8  O   LIG    1        0.000  -0.669  -1.164  0.00  0.00    -0.462 OA
BRANCH   8  10
ATOM      9  C   LIG    1       -0.018   1.503   0.010  0.00  0.00    +0.136 C 
ATOM     10  C   LIG    1        0.002  -0.004   0.002  0.00  0.00    +0.304 C 
ATOM     11  O   LIG    1        0.020  -0.614   1.045  0.00  0.00    -0.251 OA
ENDBRANCH   8  10
ENDBRANCH   7   8
ENDBRANCH   1   7
BRANCH   2  12
ATOM     12  O   LIG    1       -1.325  -4.566  -1.827  0.00  0.00    -0.455 OA
BRANCH  12  13
ATOM     13  C   LIG    1       -1.322  -4.708  -0.492  0.00  0.00    +0.304 C 
ATOM     14  C   LIG    1       -2.588  -5.094   0.228  0.00  0.00    +0.136 C 
ATOM     15  O   LIG    1       -0.303  -4.528   0.132  0.00  0.00    -0.251 OA
ENDBRANCH  12  13
ENDBRANCH   2  12
BRANCH   3  16
ATOM     16  O   LIG    1       -0.058  -6.201  -3.802  0.00  0.00    -0.454 OA
BRANCH  16  17
ATOM     17  C   LIG    1       -0.620  -6.845  -4.837  0.00  0.00    +0.304 C 
ATOM     18  C   LIG    1       -0.682  -8.351  -4.844  0.00  0.00    +0.136 C 
ATOM     19  O   LIG    1       -1.075  -6.217  -5.764  0.00  0.00    -0.251 OA
ENDBRANCH  16  17
ENDBRANCH   3  16
BRANCH   4  20
ATOM     20  O   LIG    1        1.289  -4.780  -5.888  0.00  0.00    -0.451 OA
BRANCH  20  21
ATOM     21  C   LIG    1        2.496  -5.027  -6.421  0.00  0.00    +0.305 C 
ATOM     22  C   LIG    1        2.606  -5.526  -7.839  0.00  0.00    +0.136 C 
ATOM     23  O   LIG    1        3.495  -4.849  -5.764  0.00  0.00    -0.251 OA
ENDBRANCH  20  21
ENDBRANCH   4  20
BRANCH   5  24
ATOM     24  O   LIG    1        2.542  -2.340  -5.108  0.00  0.00    -0.460 OA
BRANCH  24  25
ATOM     25  C   LIG    1        2.703  -1.003  -5.271  0.00  0.00    +0.124 A 
ATOM     26  C   LIG    1        1.696  -0.130  -4.875  0.00  0.00    +0.046 A 
ATOM     27  C   LIG    1        1.854   1.222  -5.037  0.00  0.00    +0.014 A 
ATOM     28  C   LIG    1        3.032   1.724  -5.603  0.00  0.00    +0.014 A 
ATOM     29  C   LIG    1        4.044   0.841  -6.001  0.00  0.00    +0.014 A 
ATOM     30  C   LIG    1        3.878  -0.509  -5.829  0.00  0.00    +0.046 A 
BRANCH  28  31
ATOM     31  C   LIG    1        3.207   3.172  -5.780  0.00  0.00    +0.258 C 
ATOM     32  O   LIG    1        4.228   3.604  -6.271  0.00  0.00    -0.296 OA
ENDBRANCH  28  31
ENDBRANCH  24  25
ENDBRANCH   5  24
TORSDOF 12
