REMARK  Name = ZINC32628523
REMARK                            x       y       z     vdW  Elec       q    Type
REMARK                         _______ _______ _______ _____ _____    ______ ____
ROOT
ATOM      1  C   LIG    1       -0.019   1.538   0.011  0.00  0.00    +0.026 C 
ATOM      2  CA  LIG    1        1.466   1.960  -0.001  0.00  0.00    +0.041 C 
ATOM      3  N   LIG    1        2.180   0.800  -0.596  0.00  0.00    +0.390 N 
ATOM      4  H1  LIG    1        3.154   0.812  -0.332  0.00  0.00    -0.085 HD
ATOM      5  H2  LIG    1        2.084   0.804  -1.600  0.00  0.00    -0.085 HD
ATOM      6  C   LIG    1        1.498  -0.385  -0.014  0.00  0.00    -0.048 C 
ATOM      7  C   LIG    1        0.002  -0.004   0.002  0.00  0.00    +0.098 C 
ENDROOT
BRANCH   7   8
ATOM      8  N   LIG    1       -0.668  -0.517  -1.200  0.00  0.00    -0.317 NA
ATOM      9  H   LIG    1       -1.610  -0.161  -1.269  0.00  0.00    +0.119 HD
ATOM     10  H   LIG    1       -0.660  -1.526  -1.216  0.00  0.00    +0.119 HD
ENDBRANCH   7   8
BRANCH   2  11
ATOM     11  C   LIG    1        1.657   3.189  -0.852  0.00  0.00    +0.291 C 
ATOM     12  O   LIG    1        1.568   4.297  -0.350  0.00  0.00    -0.253 OA
BRANCH  11  13
ATOM     13  OXT LIG    1        1.900   3.076  -2.041  0.00  0.00    -0.482 OA
ATOM     14  HXT LIG    1        1.969   2.225  -2.426  0.00  0.00    +0.295 HD
ENDBRANCH  11  13
ENDBRANCH   2  11
BRANCH   7  15
ATOM     15  C   LIG    1       -0.662  -0.543   1.243  0.00  0.00    +0.323 C 
ATOM     16  O   LIG    1       -1.641  -1.263   1.146  0.00  0.00    -0.249 OA
BRANCH  15  17
ATOM     17  O   LIG    1       -0.220  -0.260   2.343  0.00  0.00    -0.479 OA
ATOM     18  H   LIG    1        0.533   0.293   2.417  0.00  0.00    +0.295 HD
ENDBRANCH  15  17
ENDBRANCH   7  15
TORSDOF 5
