REMARK  Name = ZINC58523811
REMARK                            x       y       z     vdW  Elec       q    Type
REMARK                         _______ _______ _______ _____ _____    ______ ____
ROOT
ATOM      1  N   LIG    1        1.346   0.082  -2.931  0.00  0.00    +0.384 N 
ATOM      2  H   LIG    1        1.697   0.767  -2.280  0.00  0.00    -0.081 HD
ATOM      3  C   LIG    1        2.218  -1.099  -2.911  0.00  0.00    -0.059 C 
ATOM      4  C   LIG    1        3.660  -0.673  -3.206  0.00  0.00    +0.086 C 
ATOM      5  N   LIG    1        3.676   0.072  -4.475  0.00  0.00    -0.333 N 
ATOM      6  C   LIG    1        2.716   1.174  -4.643  0.00  0.00    +0.086 C 
ATOM      7  C   LIG    1        1.319   0.660  -4.280  0.00  0.00    -0.059 C 
ENDROOT
BRANCH   5   8
ATOM      8  C   LIG    1        4.578  -0.259  -5.492  0.00  0.00    +0.030 A 
ATOM      9  C   LIG    1        4.503   0.381  -6.722  0.00  0.00    +0.027 A 
ATOM     10  C   LIG    1        5.394   0.055  -7.726  0.00  0.00    +0.047 A 
ATOM     11  C   LIG    1        6.364  -0.912  -7.505  0.00  0.00    +0.120 A 
ATOM     12  C   LIG    1        6.439  -1.552  -6.277  0.00  0.00    +0.047 A 
ATOM     13  C   LIG    1        5.553  -1.222  -5.270  0.00  0.00    +0.027 A 
BRANCH  11  14
ATOM     14  O   LIG    1        7.241  -1.232  -8.493  0.00  0.00    -0.495 OA
ATOM     15  C   LIG    1        8.214  -2.237  -8.197  0.00  0.00    +0.277 C 
ENDBRANCH  11  14
ENDBRANCH   5   8
BRANCH   1  16
ATOM     16  C   LIG    1       -0.015  -0.310  -2.541  0.00  0.00    -0.039 C 
BRANCH  16  19
ATOM     17  C   LIG    1       -0.019   1.500   0.011  0.00  0.00    +0.066 C 
ATOM     18  C   LIG    1       -0.011  -0.006  -0.009  0.00  0.00    +0.043 A 
ATOM     19  C   LIG    1       -0.009  -0.790  -1.112  0.00  0.00    -0.023 A 
ATOM     20  C   LIG    1       -0.001  -2.125  -0.692  0.00  0.00    +0.136 A 
ATOM     21  N   LIG    1        0.002  -2.143   0.617  0.00  0.00    -0.174 NA
ATOM     22  N   LIG    1        0.001  -0.818   1.073  0.00  0.00    -0.237 N 
BRANCH  22  23
ATOM     23  C   LIG    1        0.008  -0.407   2.413  0.00  0.00    +0.066 A 
ATOM     24  C   LIG    1        0.689   0.745   2.783  0.00  0.00    +0.028 A 
ATOM     25  C   LIG    1        0.694   1.147   4.104  0.00  0.00    +0.002 A 
ATOM     26  C   LIG    1        0.022   0.405   5.058  0.00  0.00    +0.000 A 
ATOM     27  C   LIG    1       -0.658  -0.743   4.692  0.00  0.00    +0.002 A 
ATOM     28  C   LIG    1       -0.671  -1.148   3.371  0.00  0.00    +0.028 A 
ENDBRANCH  22  23
ENDBRANCH  16  19
ENDBRANCH   1  16
TORSDOF 5
