REMARK  Name = ZINC14952767
REMARK                            x       y       z     vdW  Elec       q    Type
REMARK                         _______ _______ _______ _____ _____    ______ ____
ROOT
ATOM      1  C   LIG    1       -1.686   2.402   1.431  0.00  0.00    -0.028 A 
ATOM      2  C   LIG    1       -2.700   1.590   1.905  0.00  0.00    +0.006 A 
ATOM      3  C   LIG    1       -3.160   1.739   3.198  0.00  0.00    +0.009 A 
ATOM      4  C   LIG    1       -2.607   2.718   4.022  0.00  0.00    -0.017 A 
ATOM      5  C   LIG    1       -1.589   3.537   3.537  0.00  0.00    +0.009 A 
ATOM      6  C   LIG    1       -1.134   3.375   2.244  0.00  0.00    +0.006 A 
ENDROOT
BRANCH   4   7
ATOM      7  C   LIG    1       -3.101   2.888   5.410  0.00  0.00    -0.007 A 
ATOM      8  C   LIG    1       -2.202   2.933   6.472  0.00  0.00    +0.009 A 
ATOM      9  C   LIG    1       -2.666   3.096   7.762  0.00  0.00    +0.001 A 
ATOM     10  C   LIG    1       -4.024   3.204   8.010  0.00  0.00    +0.001 A 
ATOM     11  C   LIG    1       -4.929   3.155   6.971  0.00  0.00    +0.012 A 
ATOM     12  C   LIG    1       -4.479   2.997   5.661  0.00  0.00    +0.028 A 
BRANCH  12  13
ATOM     13  C   LIG    1       -5.445   2.944   4.543  0.00  0.00    +0.180 A 
ATOM     14  N   LIG    1       -6.796   3.030   4.640  0.00  0.00    -0.239 N 
ATOM     15  H   LIG    1       -7.331   3.139   5.459  0.00  0.00    +0.192 HD
ATOM     16  N   LIG    1       -7.267   2.932   3.319  0.00  0.00    -0.046 NA
ATOM     17  N   LIG    1       -6.232   2.793   2.562  0.00  0.00    -0.023 NA
ATOM     18  N   LIG    1       -5.159   2.798   3.267  0.00  0.00    -0.108 NA
ENDBRANCH  12  13
ENDBRANCH   4   7
BRANCH   1  19
ATOM     19  C   LIG    1       -1.184   2.230   0.020  0.00  0.00    +0.159 C 
BRANCH  19  25
ATOM     20  C   LIG    1        0.045   0.043   0.022  0.00  0.00    +0.112 A 
ATOM     21  N   LIG    1        1.288  -0.364   0.037  0.00  0.00    -0.220 NA
ATOM     22  C   LIG    1        2.108   0.688   0.054  0.00  0.00    +0.162 A 
ATOM     23 CL   LIG    1        3.843   0.635   0.079  0.00  0.00    -0.060 Cl
ATOM     24  C   LIG    1        1.327   1.824   0.048  0.00  0.00    +0.166 A 
ATOM     25  N   LIG    1        0.014   1.387   0.028  0.00  0.00    -0.317 N 
BRANCH  24  26
ATOM     26  C   LIG    1        1.792   3.212   0.062  0.00  0.00    +0.357 C 
ATOM     27  O   LIG    1        2.984   3.454   0.080  0.00  0.00    -0.243 OA
BRANCH  26  28
ATOM     28  O   LIG    1        0.899   4.223   0.055  0.00  0.00    -0.476 OA
ATOM     29  H   LIG    1       -0.019   4.037   0.041  0.00  0.00    +0.295 HD
ENDBRANCH  26  28
ENDBRANCH  24  26
BRANCH  20  30
ATOM     30  C   LIG    1       -1.165  -0.855   0.001  0.00  0.00    +0.074 C 
BRANCH  30  31
ATOM     31  C   LIG    1       -1.476  -1.258  -1.442  0.00  0.00    +0.007 C 
BRANCH  31  33
ATOM     32  C   LIG    1       -3.085  -2.471  -2.920  0.00  0.00    +0.004 C 
ATOM     33  C   LIG    1       -2.774  -2.068  -1.477  0.00  0.00    -0.003 C 
ENDBRANCH  31  33
ENDBRANCH  30  31
ENDBRANCH  20  30
ENDBRANCH  19  25
ENDBRANCH   1  19
TORSDOF 9
