REMARK  Name = ZINC66097792
REMARK                            x       y       z     vdW  Elec       q    Type
REMARK                         _______ _______ _______ _____ _____    ______ ____
ROOT
ATOM      1  C   LIG    1        0.035  -0.799  -3.628  0.00  0.00    +0.187 C 
ENDROOT
BRANCH   1   2
ATOM      2  C   LIG    1       -0.456   0.139  -4.701  0.00  0.00    +0.240 A 
ATOM      3  N   LIG    1       -0.133   1.395  -4.832  0.00  0.00    -0.110 NA
ATOM      4  N   LIG    1       -0.735   1.890  -5.856  0.00  0.00    -0.107 NA
ATOM      5  C   LIG    1       -1.470   0.958  -6.417  0.00  0.00    +0.248 A 
ATOM      6  O   LIG    1       -1.302  -0.171  -5.698  0.00  0.00    -0.418 OA
BRANCH   5   7
ATOM      7  C   LIG    1       -2.319   1.114  -7.616  0.00  0.00    +0.039 A 
ATOM      8  C   LIG    1       -3.054   0.028  -8.098  0.00  0.00    +0.014 A 
ATOM      9  C   LIG    1       -3.845   0.174  -9.215  0.00  0.00    +0.019 A 
ATOM     10  C   LIG    1       -3.913   1.409  -9.867  0.00  0.00    +0.052 A 
ATOM     11  C   LIG    1       -3.177   2.495  -9.384  0.00  0.00    +0.019 A 
ATOM     12  C   LIG    1       -2.391   2.350  -8.264  0.00  0.00    +0.014 A 
BRANCH  10  13
ATOM     13  C   LIG    1       -4.735   1.560 -11.029  0.00  0.00    +0.099 C 
ATOM     14  N   LIG    1       -5.387   1.681 -11.951  0.00  0.00    -0.191 NA
ENDBRANCH  10  13
ENDBRANCH   5   7
ENDBRANCH   1   2
BRANCH   1  15
ATOM     15  N   LIG    1       -0.034  -0.131  -2.326  0.00  0.00    -0.331 N 
ATOM     16  H   LIG    1        0.741   0.338  -1.980  0.00  0.00    +0.147 HD
BRANCH  15  19
ATOM     17  C   LIG    1        0.006   0.963   0.294  0.00  0.00    +0.047 C 
ATOM     18  C   LIG    1       -1.240   0.356  -0.298  0.00  0.00    -0.010 A 
ATOM     19  C   LIG    1       -1.212  -0.168  -1.586  0.00  0.00    +0.032 A 
ATOM     20  C   LIG    1       -2.361  -0.730  -2.137  0.00  0.00    +0.024 A 
ATOM     21  C   LIG    1       -3.528  -0.769  -1.409  0.00  0.00    +0.022 A 
ATOM     22  C   LIG    1       -3.561  -0.243  -0.114  0.00  0.00    +0.070 A 
ATOM     23  C   LIG    1       -2.403   0.316   0.440  0.00  0.00    +0.063 A 
ATOM     24 CL   LIG    1       -2.435   0.963   2.050  0.00  0.00    -0.082 Cl
BRANCH  22  25
ATOM     25  C   LIG    1       -4.774  -0.281   0.646  0.00  0.00    +0.101 C 
ATOM     26  N   LIG    1       -5.736  -0.312   1.249  0.00  0.00    -0.191 NA
ENDBRANCH  22  25
ENDBRANCH  15  19
ENDBRANCH   1  15
BRANCH   1  27
ATOM     27  C   LIG    1        1.483  -1.196  -3.921  0.00  0.00    +0.141 C 
ATOM     28  C   LIG    1        1.996  -2.111  -2.808  0.00  0.00    +0.040 C 
BRANCH  27  29
ATOM     29  O   LIG    1        2.295  -0.022  -3.985  0.00  0.00    -0.390 OA
ATOM     30  H   LIG    1        2.301   0.497  -3.169  0.00  0.00    +0.210 HD
ENDBRANCH  27  29
ENDBRANCH   1  27
TORSDOF 8
