REMARK  Name = ZINC45291242
REMARK                            x       y       z     vdW  Elec       q    Type
REMARK                         _______ _______ _______ _____ _____    ______ ____
ROOT
ATOM      1  C   LIG    1        5.017  -3.685  -0.191  0.00  0.00    +0.221 A 
ATOM      2  N   LIG    1        5.373  -3.376  -1.434  0.00  0.00    -0.181 NA
ATOM      3  C   LIG    1        6.313  -4.083  -2.052  0.00  0.00    +0.221 A 
ATOM      4  N   LIG    1        6.898  -5.101  -1.427  0.00  0.00    -0.181 NA
ATOM      5  C   LIG    1        6.542  -5.410  -0.184  0.00  0.00    +0.224 A 
ATOM      6  N   LIG    1        5.605  -4.699   0.436  0.00  0.00    -0.181 NA
ENDROOT
BRANCH   5   7
ATOM      7  N   LIG    1        7.148  -6.466   0.465  0.00  0.00    -0.303 N 
ATOM      8  C   LIG    1        6.766  -6.831   1.838  0.00  0.00    +0.089 C 
ATOM      9  C   LIG    1        6.478  -8.335   1.879  0.00  0.00    -0.063 C 
ATOM     10  N   LIG    1        7.638  -9.069   1.357  0.00  0.00    +0.381 N 
ATOM     11  H   LIG    1        7.478 -10.061   1.454  0.00  0.00    -0.086 HD
ATOM     12  H   LIG    1        8.461  -8.811   1.881  0.00  0.00    -0.086 HD
ATOM     13  C   LIG    1        7.840  -8.744  -0.060  0.00  0.00    -0.063 C 
ATOM     14  C   LIG    1        8.191  -7.264  -0.199  0.00  0.00    +0.089 C 
ENDBRANCH   5   7
BRANCH   1  15
ATOM     15  N   LIG    1        4.041  -2.950   0.451  0.00  0.00    -0.310 N 
ATOM     16  H   LIG    1        3.784  -3.173   1.359  0.00  0.00    +0.149 HD
BRANCH  15  23
ATOM     17  C   LIG    1        0.751   2.087   0.282  0.00  0.00    +0.000 A 
ATOM     18  C   LIG    1        1.982   2.695   0.111  0.00  0.00    +0.000 A 
ATOM     19  C   LIG    1        3.125   1.925   0.026  0.00  0.00    +0.004 A 
ATOM     20  C   LIG    1        3.044   0.545   0.111  0.00  0.00    -0.042 A 
ATOM     21  C   LIG    1        1.814  -0.063   0.282  0.00  0.00    -0.042 A 
ATOM     22  C   LIG    1        1.990  -1.565   0.345  0.00  0.00    +0.058 C 
ATOM     23  C   LIG    1        3.393  -1.832  -0.240  0.00  0.00    +0.082 C 
ATOM     24  C   LIG    1        4.130  -0.507   0.048  0.00  0.00    +0.058 C 
ATOM     25  C   LIG    1        0.668   0.711   0.367  0.00  0.00    +0.004 A 
ENDBRANCH  15  23
ENDBRANCH   1  15
BRANCH   3  26
ATOM     26  N   LIG    1        6.683  -3.762  -3.344  0.00  0.00    -0.310 N 
ATOM     27  H   LIG    1        7.423  -4.225  -3.766  0.00  0.00    +0.149 HD
BRANCH  26  28
ATOM     28  C   LIG    1        5.992  -2.772  -4.041  0.00  0.00    +0.076 C 
ATOM     29  C   LIG    1        6.646  -1.962  -4.970  0.00  0.00    +0.037 C 
ATOM     30  C   LIG    1        5.926  -0.994  -5.638  0.00  0.00    +0.082 C 
ATOM     31  N   LIG    1        4.637  -0.829  -5.407  0.00  0.00    -0.316 NA
ATOM     32  H   LIG    1        4.157  -0.139  -5.891  0.00  0.00    +0.122 HD
ATOM     33  C   LIG    1        3.983  -1.574  -4.536  0.00  0.00    +0.082 C 
ATOM     34  C   LIG    1        4.629  -2.568  -3.831  0.00  0.00    +0.037 C 
ENDBRANCH  26  28
ENDBRANCH   3  26
TORSDOF 5
