REMARK  Name = ZINC19808478
REMARK                            x       y       z     vdW  Elec       q    Type
REMARK                         _______ _______ _______ _____ _____    ______ ____
ROOT
ATOM      1  C   LIG    1        0.743  -4.856   0.957  0.00  0.00    +0.393 C 
ATOM      2  N   LIG    1        1.299  -4.209   1.942  0.00  0.00    -0.129 NA
ATOM      3  H   LIG    1        1.857  -4.681   2.579  0.00  0.00    +0.306 HD
ENDROOT
BRANCH   1   4
ATOM      4  N   LIG    1        0.037  -4.171  -0.005  0.00  0.00    -0.243 N 
ATOM      5  H   LIG    1       -0.438  -4.658  -0.697  0.00  0.00    +0.265 HD
BRANCH   4  10
ATOM      6  C   LIG    1       -0.100   1.500   0.071  0.00  0.00    +0.045 C 
ATOM      7  C   LIG    1       -0.064  -0.006   0.051  0.00  0.00    -0.032 A 
ATOM      8  C   LIG    1       -0.052  -0.680  -1.156  0.00  0.00    +0.008 A 
ATOM      9  C   LIG    1       -0.018  -2.061  -1.178  0.00  0.00    +0.042 A 
ATOM     10  C   LIG    1        0.003  -2.773   0.015  0.00  0.00    +0.101 A 
ATOM     11  C   LIG    1       -0.009  -2.094   1.226  0.00  0.00    +0.062 A 
ATOM     12  C   LIG    1       -0.037  -0.712   1.241  0.00  0.00    +0.047 A 
ATOM     13 CL   LIG    1       -0.045   0.138   2.755  0.00  0.00    -0.083 Cl
ENDBRANCH   4  10
ENDBRANCH   1   4
BRANCH   1  14
ATOM     14  N   LIG    1        0.862  -6.228   0.880  0.00  0.00    -0.186 N 
ATOM     15  H   LIG    1        1.424  -6.703   1.512  0.00  0.00    +0.271 HD
BRANCH  14  16
ATOM     16  C   LIG    1        0.183  -6.925  -0.098  0.00  0.00    +0.385 C 
ATOM     17  N   LIG    1       -0.478  -6.281  -1.016  0.00  0.00    -0.129 NA
ATOM     18  H   LIG    1       -0.956  -6.771  -1.704  0.00  0.00    +0.306 HD
BRANCH  16  19
ATOM     19  N   LIG    1        0.204  -8.300  -0.102  0.00  0.00    -0.289 N 
ATOM     20  H   LIG    1       -0.273  -8.790  -0.790  0.00  0.00    +0.255 HD
ATOM     21  H   LIG    1        0.697  -8.779   0.582  0.00  0.00    +0.255 HD
ENDBRANCH  16  19
ENDBRANCH  14  16
ENDBRANCH   1  14
TORSDOF 5
