REMARK  Name = ZINC71295347
REMARK                            x       y       z     vdW  Elec       q    Type
REMARK                         _______ _______ _______ _____ _____    ______ ____
ROOT
ATOM      1  C   LIG    1        0.015   1.503   0.010  0.00  0.00    +0.045 C 
ATOM      2  C   LIG    1        0.018  -0.004   0.002  0.00  0.00    -0.027 A 
ATOM      3  C   LIG    1        0.022  -0.703  -1.187  0.00  0.00    +0.048 A 
ATOM      4  C   LIG    1        0.025  -2.096  -1.163  0.00  0.00    +0.126 A 
ATOM      5  N   LIG    1        0.025  -2.760  -0.015  0.00  0.00    -0.216 NA
ATOM      6  C   LIG    1        0.022  -2.133   1.150  0.00  0.00    +0.139 A 
ATOM      7  C   LIG    1        0.024  -0.728   1.203  0.00  0.00    +0.094 A 
ENDROOT
BRANCH   4   8
ATOM      8  N   LIG    1        0.029  -2.800  -2.357  0.00  0.00    -0.283 N 
ATOM      9  H   LIG    1       -0.056  -2.326  -3.199  0.00  0.00    +0.155 HD
BRANCH   8  10
ATOM     10  C   LIG    1        0.153  -4.194  -2.348  0.00  0.00    +0.146 A 
ATOM     11  C   LIG    1        0.183  -5.013  -1.207  0.00  0.00    +0.068 A 
ATOM     12  C   LIG    1        0.313  -6.294  -1.619  0.00  0.00    +0.035 A 
ATOM     13  C   LIG    1        0.389  -7.509  -0.730  0.00  0.00    +0.065 C 
ATOM     14  N   LIG    1        0.364  -6.293  -2.968  0.00  0.00    -0.280 N 
ATOM     15  H   LIG    1        0.456  -7.074  -3.535  0.00  0.00    +0.189 HD
ATOM     16  N   LIG    1        0.257  -4.966  -3.405  0.00  0.00    -0.158 NA
ENDBRANCH   8  10
ENDBRANCH   4   8
BRANCH   6  17
ATOM     17  N   LIG    1        0.022  -2.865   2.325  0.00  0.00    -0.325 N 
ATOM     18  H   LIG    1        0.019  -2.409   3.180  0.00  0.00    +0.148 HD
BRANCH  17  19
ATOM     19  C   LIG    1        0.025  -4.329   2.275  0.00  0.00    +0.069 C 
ATOM     20  C   LIG    1        1.464  -4.831   2.135  0.00  0.00    +0.028 C 
BRANCH  19  21
ATOM     21  C   LIG    1       -0.585  -4.884   3.563  0.00  0.00    +0.022 C 
BRANCH  21  22
ATOM     22  C   LIG    1       -2.060  -4.486   3.642  0.00  0.00    +0.005 C 
BRANCH  22  23
ATOM     23  C   LIG    1       -2.671  -5.041   4.931  0.00  0.00    +0.034 C 
BRANCH  23  24
ATOM     24  C   LIG    1       -4.146  -4.642   5.009  0.00  0.00    +0.061 C 
ATOM     25  C   LIG    1       -4.756  -5.198   6.298  0.00  0.00    +0.041 C 
ATOM     26  C   LIG    1       -4.893  -5.214   3.803  0.00  0.00    +0.041 C 
BRANCH  24  27
ATOM     27  O   LIG    1       -4.255  -3.217   5.006  0.00  0.00    -0.389 OA
ATOM     28  H   LIG    1       -3.803  -2.787   5.745  0.00  0.00    +0.210 HD
ENDBRANCH  24  27
ENDBRANCH  23  24
ENDBRANCH  22  23
ENDBRANCH  21  22
ENDBRANCH  19  21
ENDBRANCH  17  19
ENDBRANCH   6  17
BRANCH   7  29
ATOM     29  C   LIG    1        0.027  -0.047   2.463  0.00  0.00    +0.103 C 
ATOM     30  N   LIG    1        0.029   0.493   3.462  0.00  0.00    -0.191 NA
ENDBRANCH   7  29
TORSDOF 10
