REMARK  Name = ZINC18098320
REMARK                            x       y       z     vdW  Elec       q    Type
REMARK                         _______ _______ _______ _____ _____    ______ ____
ROOT
ATOM      1  C   LIG    1        6.871   2.377   2.191  0.00  0.00    +0.003 C 
ENDROOT
BRANCH   1   2
ATOM      2  C   LIG    1        8.332   2.123   2.566  0.00  0.00    +0.003 C 
BRANCH   2   3
ATOM      3  C   LIG    1        8.550   0.624   2.782  0.00  0.00    +0.037 C 
BRANCH   3   4
ATOM      4  C   LIG    1       10.011   0.370   3.158  0.00  0.00    +0.196 C 
BRANCH   4   5
ATOM      5  N   LIG    1       10.219  -1.065   3.365  0.00  0.00    -0.276 N 
ATOM      6  H   LIG    1        9.480  -1.683   3.256  0.00  0.00    +0.258 HD
BRANCH   5   7
ATOM      7  C   LIG    1       11.463  -1.536   3.713  0.00  0.00    +0.388 C 
ATOM      8  N   LIG    1       12.457  -0.706   3.858  0.00  0.00    -0.129 NA
ATOM      9  H   LIG    1       13.321  -1.032   4.156  0.00  0.00    +0.306 HD
BRANCH   7  10
ATOM     10  N   LIG    1       11.659  -2.888   3.907  0.00  0.00    -0.186 N 
ATOM     11  H   LIG    1       11.052  -3.529   3.506  0.00  0.00    +0.271 HD
BRANCH  10  12
ATOM     12  C   LIG    1       12.717  -3.327   4.672  0.00  0.00    +0.394 C 
ATOM     13  N   LIG    1       12.983  -4.609   4.749  0.00  0.00    -0.073 NA
BRANCH  13  14
ATOM     14  C   LIG    1       12.126  -5.521   4.192  0.00  0.00    +0.142 A 
ATOM     15  C   LIG    1       10.794  -5.576   4.608  0.00  0.00    +0.047 A 
ATOM     16  C   LIG    1        9.936  -6.497   4.043  0.00  0.00    +0.023 A 
ATOM     17  C   LIG    1       10.392  -7.365   3.066  0.00  0.00    +0.041 A 
ATOM     18 CL   LIG    1        9.306  -8.520   2.360  0.00  0.00    -0.084 Cl
ATOM     19  C   LIG    1       11.712  -7.316   2.650  0.00  0.00    +0.023 A 
ATOM     20  C   LIG    1       12.579  -6.396   3.202  0.00  0.00    +0.047 A 
ENDBRANCH  13  14
BRANCH  12  21
ATOM     21  N   LIG    1       13.492  -2.423   5.354  0.00  0.00    -0.288 N 
ATOM     22  H   LIG    1       14.405  -2.650   5.594  0.00  0.00    +0.255 HD
ATOM     23  H   LIG    1       13.128  -1.557   5.596  0.00  0.00    +0.255 HD
ENDBRANCH  12  21
ENDBRANCH  10  12
ENDBRANCH   7  10
ENDBRANCH   5   7
ENDBRANCH   4   5
ENDBRANCH   3   4
ENDBRANCH   2   3
ENDBRANCH   1   2
BRANCH   1  24
ATOM     24  C   LIG    1        6.653   3.877   1.975  0.00  0.00    +0.041 C 
BRANCH  24  25
ATOM     25  C   LIG    1        5.192   4.131   1.599  0.00  0.00    +0.243 C 
BRANCH  25  27
ATOM     26  C   LIG    1        4.674   6.015   0.209  0.00  0.00    +0.388 C 
ATOM     27  N   LIG    1        4.984   5.566   1.392  0.00  0.00    -0.113 NA
BRANCH  26  28
ATOM     28  N   LIG    1        4.611   7.370  -0.016  0.00  0.00    -0.289 N 
ATOM     29  H   LIG    1        5.050   7.984   0.593  0.00  0.00    +0.255 HD
ATOM     30  H   LIG    1        4.128   7.712  -0.785  0.00  0.00    +0.255 HD
ENDBRANCH  26  28
BRANCH  26  31
ATOM     31  N   LIG    1        4.410   5.132  -0.817  0.00  0.00    -0.186 N 
ATOM     32  H   LIG    1        4.127   4.226  -0.616  0.00  0.00    +0.271 HD
BRANCH  31  34
ATOM     33  N   LIG    1        3.897   4.910  -3.077  0.00  0.00    -0.073 NA
ATOM     34  C   LIG    1        4.547   5.536  -2.126  0.00  0.00    +0.394 C 
BRANCH  33  36
ATOM     35  C   LIG    1        1.792   3.787  -2.837  0.00  0.00    +0.047 A 
ATOM     36  C   LIG    1        3.187   3.774  -2.789  0.00  0.00    +0.142 A 
ATOM     37  C   LIG    1        3.856   2.598  -2.446  0.00  0.00    +0.047 A 
ATOM     38  C   LIG    1        3.136   1.457  -2.157  0.00  0.00    +0.023 A 
ATOM     39  C   LIG    1        1.753   1.477  -2.207  0.00  0.00    +0.041 A 
ATOM     40 CL   LIG    1        0.854   0.037  -1.842  0.00  0.00    -0.084 Cl
ATOM     41  C   LIG    1        1.083   2.640  -2.547  0.00  0.00    +0.023 A 
ENDBRANCH  33  36
BRANCH  34  42
ATOM     42  N   LIG    1        5.365   6.594  -2.435  0.00  0.00    -0.288 N 
ATOM     43  H   LIG    1        5.944   6.974  -1.756  0.00  0.00    +0.255 HD
ATOM     44  H   LIG    1        5.364   6.962  -3.333  0.00  0.00    +0.255 HD
ENDBRANCH  34  42
ENDBRANCH  31  34
ENDBRANCH  26  31
ENDBRANCH  25  27
ENDBRANCH  24  25
ENDBRANCH   1  24
TORSDOF 17
