REMARK  Name = ZINC13803772
REMARK                            x       y       z     vdW  Elec       q    Type
REMARK                         _______ _______ _______ _____ _____    ______ ____
ROOT
ATOM      1  C   LIG    1        2.440   0.082  -0.123  0.00  0.00    +0.171 C 
ATOM      2  O   LIG    1        2.438   1.284   0.066  0.00  0.00    -0.292 OA
ENDROOT
BRANCH   1   3
ATOM      3  C   LIG    1        3.715  -0.625  -0.361  0.00  0.00    +0.019 A 
ATOM      4  C   LIG    1        4.919   0.083  -0.370  0.00  0.00    +0.014 A 
ATOM      5  C   LIG    1        6.106  -0.581  -0.592  0.00  0.00    +0.040 A 
ATOM      6  C   LIG    1        6.107  -1.951  -0.806  0.00  0.00    +0.142 A 
ATOM      7  F   LIG    1        7.273  -2.598  -1.023  0.00  0.00    -0.204 F 
ATOM      8  C   LIG    1        4.914  -2.661  -0.799  0.00  0.00    +0.077 A 
ATOM      9 CL   LIG    1        4.924  -4.376  -1.067  0.00  0.00    -0.081 Cl
ATOM     10  C   LIG    1        3.721  -2.006  -0.573  0.00  0.00    +0.034 A 
ENDBRANCH   1   3
BRANCH   1  11
ATOM     11  C   LIG    1        1.178  -0.664  -0.115  0.00  0.00    +0.166 C 
BRANCH  11  12
ATOM     12  C   LIG    1        0.024  -0.039   0.215  0.00  0.00    +0.247 C 
ATOM     13  O   LIG    1        0.053   1.227   0.692  0.00  0.00    -0.285 OA
BRANCH  12  14
ATOM     14  C   LIG    1       -1.271  -0.739   0.054  0.00  0.00    +0.375 C 
ATOM     15  O   LIG    1       -1.297  -1.875  -0.374  0.00  0.00    -0.242 OA
BRANCH  14  17
ATOM     16  C   LIG    1       -3.650  -0.864   0.198  0.00  0.00    +0.280 C 
ATOM     17  O   LIG    1       -2.419  -0.117   0.382  0.00  0.00    -0.462 OA
ENDBRANCH  14  17
ENDBRANCH  12  14
ENDBRANCH  11  12
ENDBRANCH   1  11
TORSDOF 5
