REMARK  Name = ZINC13782567
REMARK                            x       y       z     vdW  Elec       q    Type
REMARK                         _______ _______ _______ _____ _____    ______ ____
ROOT
ATOM      1  C   LIG    1        1.182   1.781   0.000  0.00  0.00    +0.002 A 
ATOM      2  C   LIG    1       -0.013   1.076   0.008  0.00  0.00    +0.002 A 
ATOM      3  C   LIG    1       -1.218   1.744   0.017  0.00  0.00    +0.028 A 
ATOM      4  C   LIG    1       -1.235   3.132   0.031  0.00  0.00    +0.073 A 
ATOM      5  C   LIG    1       -0.025   3.846   0.023  0.00  0.00    +0.089 A 
ATOM      6  N   LIG    1       -0.344   5.166   0.033  0.00  0.00    -0.235 NA
ATOM      7  C   LIG    1       -1.637   5.305   0.046  0.00  0.00    +0.205 A 
ATOM      8  N   LIG    1       -2.239   4.083   0.045  0.00  0.00    -0.298 N 
ATOM      9  C   LIG    1        1.185   3.147   0.008  0.00  0.00    +0.030 A 
ENDROOT
BRANCH   8  10
ATOM     10  C   LIG    1       -3.618   3.835   0.057  0.00  0.00    +0.050 A 
ATOM     11  C   LIG    1       -4.175   2.960  -0.867  0.00  0.00    +0.026 A 
ATOM     12  C   LIG    1       -5.534   2.711  -0.853  0.00  0.00    +0.004 A 
ATOM     13  C   LIG    1       -6.345   3.339   0.072  0.00  0.00    +0.023 A 
ATOM     14  C   LIG    1       -5.795   4.220   0.995  0.00  0.00    +0.027 A 
ATOM     15  C   LIG    1       -4.429   4.468   0.987  0.00  0.00    +0.049 A 
BRANCH  14  16
ATOM     16  N   LIG    1       -6.615   4.855   1.930  0.00  0.00    -0.358 N 
ATOM     17  H   LIG    1       -7.569   4.681   1.935  0.00  0.00    +0.142 HD
ATOM     18  H   LIG    1       -6.231   5.470   2.574  0.00  0.00    +0.142 HD
ENDBRANCH  14  16
ENDBRANCH   8  10
TORSDOF 2
