REMARK  Name = ZINC16004260
REMARK                            x       y       z     vdW  Elec       q    Type
REMARK                         _______ _______ _______ _____ _____    ______ ____
ROOT
ATOM      1  C   LIG    1        1.684   2.069  -0.003  0.00  0.00    +0.085 A 
ATOM      2  C   LIG    1        2.232   0.794  -0.015  0.00  0.00    +0.068 A 
ATOM      3  C   LIG    1        1.313  -0.332  -0.012  0.00  0.00    -0.023 A 
ATOM      4  C   LIG    1        0.002  -0.004   0.002  0.00  0.00    -0.004 A 
ATOM      5  C   LIG    1       -1.164  -0.944   0.007  0.00  0.00    +0.043 C 
ATOM      6  C   LIG    1       -0.660  -2.341  -0.383  0.00  0.00    +0.005 C 
ATOM      7  C   LIG    1        0.590  -2.663   0.440  0.00  0.00    +0.005 C 
ATOM      8  C   LIG    1        1.757  -1.789  -0.023  0.00  0.00    +0.037 C 
ATOM      9  S   LIG    1       -0.022   1.766   0.012  0.00  0.00    -0.077 S 
ENDROOT
BRANCH   2  10
ATOM     10  C   LIG    1        3.683   0.590  -0.030  0.00  0.00    +0.244 C 
ATOM     11  N   LIG    1        4.362   0.490   1.130  0.00  0.00    -0.325 N 
ATOM     12  H   LIG    1        5.322   0.355   1.120  0.00  0.00    +0.145 HD
ATOM     13  H   LIG    1        3.890   0.553   1.975  0.00  0.00    +0.145 HD
ATOM     14  O   LIG    1        4.276   0.510  -1.090  0.00  0.00    -0.270 OA
ENDBRANCH   2  10
BRANCH   1  16
ATOM     15  C   LIG    1        1.635   4.436   0.011  0.00  0.00    +0.267 C 
ATOM     16  N   LIG    1        2.342   3.288  -0.003  0.00  0.00    -0.274 N 
ATOM     17  H   LIG    1        3.311   3.316  -0.012  0.00  0.00    +0.156 HD
ATOM     18  O   LIG    1        0.420   4.400   0.023  0.00  0.00    -0.268 OA
BRANCH  15  23
ATOM     19  C   LIG    1        2.273   8.133   0.025  0.00  0.00    +0.004 A 
ATOM     20  C   LIG    1        3.659   8.121   0.011  0.00  0.00    +0.020 A 
ATOM     21  C   LIG    1        4.327   6.907  -0.002  0.00  0.00    +0.111 A 
ATOM     22  N   LIG    1        3.665   5.771  -0.002  0.00  0.00    -0.250 NA
ATOM     23  C   LIG    1        2.338   5.739   0.011  0.00  0.00    +0.126 A 
ATOM     24  C   LIG    1        1.601   6.922   0.019  0.00  0.00    +0.033 A 
ENDBRANCH  15  23
ENDBRANCH   1  16
TORSDOF 3
