REMARK  Name = ZINC26399714
REMARK                            x       y       z     vdW  Elec       q    Type
REMARK                         _______ _______ _______ _____ _____    ______ ____
ROOT
ATOM      1  C   LIG    1       -0.017   1.372   0.010  0.00  0.00    +0.146 A 
ATOM      2  C   LIG    1        0.002  -0.004   0.002  0.00  0.00    +0.048 A 
ATOM      3  C   LIG    1        1.207  -0.701  -0.013  0.00  0.00    +0.004 A 
ATOM      4  C   LIG    1        2.398  -0.040  -0.021  0.00  0.00    +0.010 A 
ATOM      5  C   LIG    1        2.419   1.364  -0.014  0.00  0.00    +0.004 A 
ATOM      6  C   LIG    1        3.636   2.076  -0.022  0.00  0.00    +0.013 A 
ATOM      7  C   LIG    1        3.588   3.437  -0.015  0.00  0.00    +0.044 A 
ATOM      8  C   LIG    1        2.348   4.092   0.001  0.00  0.00    +0.117 A 
ATOM      9  N   LIG    1        1.215   3.421   0.008  0.00  0.00    -0.229 NA
ATOM     10  C   LIG    1        1.200   2.084   0.002  0.00  0.00    +0.115 A 
ENDROOT
BRANCH   8  11
ATOM     11  N   LIG    1        2.314   5.480   0.008  0.00  0.00    -0.343 N 
ATOM     12  H   LIG    1        1.348   6.006   0.021  0.00  0.00    +0.144 HD
ATOM     13  H   LIG    1        3.253   6.053   0.002  0.00  0.00    +0.144 HD
ENDBRANCH   8  11
BRANCH   1  15
ATOM     14  C   LIG    1       -2.391   1.250   0.020  0.00  0.00    +0.277 C 
ATOM     15  O   LIG    1       -1.200   2.040   0.019  0.00  0.00    -0.493 OA
ENDBRANCH   1  15
TORSDOF 2
