REMARK  Name = ZINC28823615
REMARK                            x       y       z     vdW  Elec       q    Type
REMARK                         _______ _______ _______ _____ _____    ______ ____
ROOT
ATOM      1  C   LIG    1        0.727   3.217  -0.925  0.00  0.00    +0.247 C 
ATOM      2  N   LIG    1        0.464   2.034  -1.514  0.00  0.00    -0.296 N 
ATOM      3  O   LIG    1        0.028   3.610  -0.011  0.00  0.00    -0.270 OA
ENDROOT
BRANCH   2   4
ATOM      4  C   LIG    1       -0.733   1.278  -1.137  0.00  0.00    +0.058 C 
ATOM      5  C   LIG    1       -2.008   2.071  -1.502  0.00  0.00    +0.001 C 
ATOM      6  C   LIG    1       -2.382   2.760  -0.165  0.00  0.00    -0.081 C 
ATOM      7  N   LIG    1       -2.046   1.731   0.857  0.00  0.00    +0.380 N 
ATOM      8  H   LIG    1       -2.864   0.999   0.922  0.00  0.00    -0.086 HD
ATOM      9  H   LIG    1       -1.910   2.216   1.835  0.00  0.00    -0.086 HD
ATOM     10  C   LIG    1       -0.793   1.099   0.391  0.00  0.00    -0.060 C 
ENDBRANCH   2   4
BRANCH   1  14
ATOM     11  C   LIG    1        3.998   5.575  -2.261  0.00  0.00    -0.064 A 
ATOM     12  C   LIG    1        3.574   5.667  -0.947  0.00  0.00    +0.002 A 
ATOM     13  C   LIG    1        2.512   4.904  -0.507  0.00  0.00    +0.013 A 
ATOM     14  C   LIG    1        1.865   4.038  -1.390  0.00  0.00    +0.037 A 
ATOM     15  C   LIG    1        2.301   3.947  -2.713  0.00  0.00    +0.013 A 
ATOM     16  C   LIG    1        3.361   4.719  -3.141  0.00  0.00    +0.002 A 
BRANCH  11  17
ATOM     17  C   LIG    1        5.158   6.412  -2.735  0.00  0.00    -0.043 C 
BRANCH  17  18
ATOM     18  N   LIG    1        6.410   5.670  -2.535  0.00  0.00    +0.382 N 
ATOM     19  H   LIG    1        6.439   5.330  -1.490  0.00  0.00    -0.081 HD
BRANCH  18  21
ATOM     20  C   LIG    1        6.506   4.916  -4.864  0.00  0.00    -0.017 C 
ATOM     21  C   LIG    1        6.461   4.481  -3.397  0.00  0.00    -0.082 C 
ENDBRANCH  18  21
BRANCH  18  22
ATOM     22  C   LIG    1        7.576   6.534  -2.762  0.00  0.00    -0.082 C 
ATOM     23  C   LIG    1        8.853   5.773  -2.399  0.00  0.00    -0.017 C 
ENDBRANCH  18  22
ENDBRANCH  17  18
ENDBRANCH  11  17
ENDBRANCH   1  14
BRANCH   2  24
ATOM     24  C   LIG    1        1.376   1.504  -2.531  0.00  0.00    +0.113 C 
BRANCH  24  25
ATOM     25  C   LIG    1        0.688   1.534  -3.897  0.00  0.00    +0.058 C 
BRANCH  25  26
ATOM     26  C   LIG    1        1.625   0.988  -4.944  0.00  0.00    -0.004 A 
ATOM     27  C   LIG    1        2.408   1.850  -5.687  0.00  0.00    +0.007 A 
ATOM     28  C   LIG    1        3.269   1.351  -6.647  0.00  0.00    +0.000 A 
ATOM     29  C   LIG    1        3.349  -0.013  -6.865  0.00  0.00    +0.004 A 
ATOM     30  C   LIG    1        2.569  -0.879  -6.124  0.00  0.00    +0.046 A 
ATOM     31  C   LIG    1        1.708  -0.380  -5.157  0.00  0.00    +0.123 A 
BRANCH  31  32
ATOM     32  O   LIG    1        0.943  -1.230  -4.423  0.00  0.00    -0.495 OA
ATOM     33  C   LIG    1        1.079  -2.626  -4.697  0.00  0.00    +0.277 C 
ENDBRANCH  31  32
ENDBRANCH  25  26
ENDBRANCH  24  25
ENDBRANCH   2  24
TORSDOF 10
