REMARK  Name = ZINC00005947
REMARK                            x       y       z     vdW  Elec       q    Type
REMARK                         _______ _______ _______ _____ _____    ______ ____
ROOT
ATOM      1  C   LIG    1        3.736  -0.644   0.208  0.00  0.00    +0.067 C 
ATOM      2  N   LIG    1        3.704  -1.931   0.230  0.00  0.00    -0.181 NA
ATOM      3  N   LIG    1        4.868  -2.705   0.129  0.00  0.00    -0.189 N 
ATOM      4  C   LIG    1        4.843  -4.022   0.413  0.00  0.00    +0.266 C 
ATOM      5  O   LIG    1        5.879  -4.659   0.434  0.00  0.00    -0.268 OA
ATOM      6  C   LIG    1        6.117  -2.053  -0.293  0.00  0.00    +0.136 C 
ATOM      7  C   LIG    1        6.213  -0.712   0.450  0.00  0.00    +0.027 C 
ATOM      8  C   LIG    1        5.005   0.145   0.058  0.00  0.00    +0.059 C 
ENDROOT
BRANCH   4   9
ATOM      9  C   LIG    1        3.558  -4.692   0.699  0.00  0.00    +0.040 A 
ATOM     10  C   LIG    1        2.354  -4.011   0.507  0.00  0.00    +0.014 A 
ATOM     11  C   LIG    1        1.158  -4.643   0.770  0.00  0.00    +0.022 A 
ATOM     12  C   LIG    1        1.148  -5.948   1.235  0.00  0.00    +0.059 A 
ATOM     13 CL   LIG    1       -0.363  -6.735   1.571  0.00  0.00    -0.082 Cl
ATOM     14  C   LIG    1        2.339  -6.628   1.434  0.00  0.00    +0.060 A 
ATOM     15 CL   LIG    1        2.317  -8.263   2.017  0.00  0.00    -0.082 Cl
ATOM     16  C   LIG    1        3.543  -6.007   1.168  0.00  0.00    +0.034 A 
ENDBRANCH   4   9
BRANCH   1  20
ATOM     17  C   LIG    1        0.074   1.472   0.560  0.00  0.00    +0.000 A 
ATOM     18  C   LIG    1        1.271   2.166   0.544  0.00  0.00    +0.001 A 
ATOM     19  C   LIG    1        2.465   1.485   0.430  0.00  0.00    +0.010 A 
ATOM     20  C   LIG    1        2.463   0.091   0.330  0.00  0.00    -0.002 A 
ATOM     21  C   LIG    1        1.251  -0.602   0.347  0.00  0.00    +0.010 A 
ATOM     22  C   LIG    1        0.065   0.092   0.461  0.00  0.00    +0.001 A 
ENDBRANCH   1  20
TORSDOF 2
