REMARK  Name = ZINC13775912
REMARK                            x       y       z     vdW  Elec       q    Type
REMARK                         _______ _______ _______ _____ _____    ______ ____
ROOT
ATOM      1  C   LIG    1       -3.538   7.778   3.658  0.00  0.00    +0.016 C 
ATOM      2  C   LIG    1       -2.936   7.917   2.259  0.00  0.00    -0.010 C 
ATOM      3  C   LIG    1       -1.646   7.097   2.181  0.00  0.00    +0.016 C 
ATOM      4  C   LIG    1       -2.615   9.386   1.992  0.00  0.00    +0.012 C 
ATOM      5  C   LIG    1       -3.936  10.154   1.868  0.00  0.00    +0.012 C 
ATOM      6  C   LIG    1       -4.616   9.734   0.567  0.00  0.00    -0.010 C 
ATOM      7  C   LIG    1       -3.815  10.277  -0.619  0.00  0.00    +0.016 C 
ATOM      8  C   LIG    1       -6.031  10.316   0.527  0.00  0.00    +0.016 C 
ATOM      9  C   LIG    1       -4.694   8.233   0.467  0.00  0.00    -0.037 A 
ATOM     10  C   LIG    1       -5.587   7.691  -0.465  0.00  0.00    +0.020 A 
ATOM     11  C   LIG    1       -5.699   6.322  -0.611  0.00  0.00    +0.022 A 
ATOM     12  S   LIG    1       -6.823   5.639  -1.784  0.00  0.00    -0.087 S 
ATOM     13  C   LIG    1       -7.889   4.639  -0.797  0.00  0.00    +0.038 A 
ATOM     14  C   LIG    1       -9.246   4.909  -0.768  0.00  0.00    +0.017 A 
ATOM     15  C   LIG    1      -10.093   4.136   0.009  0.00  0.00    +0.001 A 
ATOM     16  C   LIG    1       -9.583   3.092   0.759  0.00  0.00    +0.002 A 
ATOM     17  C   LIG    1       -8.233   2.812   0.739  0.00  0.00    +0.029 A 
ATOM     18  C   LIG    1       -7.362   3.582  -0.045  0.00  0.00    +0.078 A 
ATOM     19  N   LIG    1       -6.046   3.275  -0.049  0.00  0.00    -0.246 NA
ATOM     20  C   LIG    1       -5.014   4.007   0.050  0.00  0.00    +0.080 C 
ATOM     21  C   LIG    1       -4.916   5.464   0.180  0.00  0.00    +0.015 A 
ATOM     22  C   LIG    1       -4.028   6.021   1.100  0.00  0.00    +0.015 A 
ATOM     23  C   LIG    1       -3.918   7.396   1.241  0.00  0.00    -0.037 A 
ENDROOT
BRANCH  20  24
ATOM     24  C   LIG    1       -3.724   3.286   0.039  0.00  0.00    +0.001 A 
ATOM     25  C   LIG    1       -2.558   3.946  -0.356  0.00  0.00    +0.011 A 
ATOM     26  C   LIG    1       -1.357   3.274  -0.367  0.00  0.00    +0.015 A 
ATOM     27  C   LIG    1       -1.304   1.931   0.018  0.00  0.00    +0.059 A 
ATOM     28  C   LIG    1       -2.471   1.270   0.408  0.00  0.00    +0.015 A 
ATOM     29  C   LIG    1       -3.671   1.944   0.424  0.00  0.00    +0.011 A 
BRANCH  27  30
ATOM     30  C   LIG    1       -0.015   1.210   0.006  0.00  0.00    +0.337 C 
ATOM     31  O   LIG    1        0.999   1.784  -0.338  0.00  0.00    -0.245 OA
BRANCH  30  32
ATOM     32  O   LIG    1        0.037  -0.083   0.382  0.00  0.00    -0.477 OA
ATOM     33  H   LIG    1       -0.745  -0.525   0.647  0.00  0.00    +0.295 HD
ENDBRANCH  30  32
ENDBRANCH  27  30
ENDBRANCH  20  24
TORSDOF 3
