REMARK  Name = ZINC35323148
REMARK                            x       y       z     vdW  Elec       q    Type
REMARK                         _______ _______ _______ _____ _____    ______ ____
ROOT
ATOM      1  N   LIG    1       -3.478  -5.078   0.119  0.00  0.00    -0.269 N 
ATOM      2  H   LIG    1       -4.296  -4.561   0.188  0.00  0.00    +0.156 HD
ATOM      3  C   LIG    1       -3.534  -6.423   0.048  0.00  0.00    +0.306 C 
ATOM      4  N   LIG    1       -4.723  -7.040  -0.105  0.00  0.00    -0.285 N 
ATOM      5  C   LIG    1       -5.941  -6.264  -0.374  0.00  0.00    +0.113 C 
ATOM      6  C   LIG    1       -6.614  -6.823  -1.632  0.00  0.00    +0.063 C 
ATOM      7  C   LIG    1       -6.851  -8.324  -1.454  0.00  0.00    +0.176 C 
ATOM      8  C   LIG    1       -5.510  -9.036  -1.266  0.00  0.00    +0.063 C 
ATOM      9  C   LIG    1       -4.823  -8.503  -0.011  0.00  0.00    +0.113 C 
ATOM     10  O   LIG    1       -2.513  -7.079   0.121  0.00  0.00    -0.252 OA
ENDROOT
BRANCH   1  15
ATOM     11  C   LIG    1       -0.922  -2.462  -0.342  0.00  0.00    +0.038 A 
ATOM     12  C   LIG    1        0.227  -3.152   0.050  0.00  0.00    +0.013 A 
ATOM     13  C   LIG    1        0.136  -4.466   0.459  0.00  0.00    +0.003 A 
ATOM     14  C   LIG    1       -1.090  -5.105   0.482  0.00  0.00    +0.023 A 
ATOM     15  C   LIG    1       -2.239  -4.427   0.094  0.00  0.00    +0.035 A 
ATOM     16  C   LIG    1       -2.159  -3.104  -0.313  0.00  0.00    +0.036 A 
BRANCH  11  20
ATOM     17  C   LIG    1        0.463   0.962  -1.243  0.00  0.00    +0.128 C 
ATOM     18  N   LIG    1        0.370  -0.434  -0.809  0.00  0.00    -0.314 N 
ATOM     19  H   LIG    1        1.169  -0.913  -0.541  0.00  0.00    +0.149 HD
ATOM     20  C   LIG    1       -0.828  -1.053  -0.781  0.00  0.00    +0.244 C 
ATOM     21  O   LIG    1       -1.830  -0.453  -1.117  0.00  0.00    -0.270 OA
ENDBRANCH  11  20
ENDBRANCH   1  15
BRANCH   7  22
ATOM     22  O   LIG    1       -7.508  -8.843  -2.612  0.00  0.00    -0.487 OA
BRANCH  22  23
ATOM     23  C   LIG    1       -8.158 -10.029  -2.474  0.00  0.00    +0.139 A 
ATOM     24  C   LIG    1       -8.188 -10.665  -1.242  0.00  0.00    +0.047 A 
ATOM     25  C   LIG    1       -8.849 -11.870  -1.103  0.00  0.00    +0.004 A 
ATOM     26  C   LIG    1       -9.479 -12.444  -2.193  0.00  0.00    +0.002 A 
ATOM     27  C   LIG    1       -9.450 -11.813  -3.422  0.00  0.00    +0.023 A 
ATOM     28  C   LIG    1       -8.796 -10.603  -3.565  0.00  0.00    +0.083 A 
ATOM     29 CL   LIG    1       -8.765  -9.808  -5.107  0.00  0.00    -0.080 Cl
ENDBRANCH  22  23
ENDBRANCH   7  22
TORSDOF 4
