REMARK  Name = ZINC15859008
REMARK                            x       y       z     vdW  Elec       q    Type
REMARK                         _______ _______ _______ _____ _____    ______ ____
ROOT
ATOM      1  C   LIG    1        0.950   4.278   0.009  0.00  0.00    +0.154 C 
ATOM      2  N   LIG    1        1.764   3.062   0.071  0.00  0.00    -0.294 N 
ATOM      3  C   LIG    1        1.175   1.789   0.110  0.00  0.00    +0.082 A 
ATOM      4  C   LIG    1        2.055   0.595   0.174  0.00  0.00    +0.089 A 
ATOM      5  C   LIG    1        3.509   0.777   0.193  0.00  0.00    +0.266 A 
ATOM      6  N   LIG    1        3.936   2.066   0.149  0.00  0.00    -0.263 N 
ATOM      7  C   LIG    1        5.379   2.317   0.165  0.00  0.00    +0.157 C 
ATOM      8  O   LIG    1        4.282  -0.161   0.243  0.00  0.00    -0.267 OA
ATOM      9  C   LIG    1        1.227  -0.500   0.205  0.00  0.00    +0.071 A 
ATOM     10  N   LIG    1       -0.055  -0.045   0.174  0.00  0.00    -0.306 N 
ATOM     11  C   LIG    1       -1.245  -0.786   0.223  0.00  0.00    +0.068 A 
ATOM     12  C   LIG    1       -1.250  -2.160   0.093  0.00  0.00    +0.028 A 
ATOM     13  C   LIG    1       -2.450  -2.850   0.131  0.00  0.00    +0.002 A 
ATOM     14  C   LIG    1       -3.639  -2.166   0.305  0.00  0.00    +0.002 A 
ATOM     15  C   LIG    1       -3.640  -0.791   0.454  0.00  0.00    +0.025 A 
ATOM     16  C   LIG    1       -2.443  -0.092   0.426  0.00  0.00    +0.052 A 
ATOM     17  N   LIG    1       -2.425   1.292   0.629  0.00  0.00    -0.330 N 
ATOM     18  H   LIG    1       -3.111   1.711   1.173  0.00  0.00    +0.147 HD
ATOM     19  C   LIG    1       -1.369   2.115   0.018  0.00  0.00    +0.150 C 
ATOM     20  C   LIG    1       -0.071   1.341   0.103  0.00  0.00    +0.073 A 
ATOM     21  C   LIG    1        3.115   3.119   0.094  0.00  0.00    +0.332 A 
ATOM     22  O   LIG    1        3.625   4.222   0.062  0.00  0.00    -0.246 OA
ENDROOT
BRANCH   9  23
ATOM     23  C   LIG    1        1.650  -1.912   0.261  0.00  0.00    +0.035 A 
ATOM     24  C   LIG    1        1.859  -2.630  -0.919  0.00  0.00    +0.013 A 
ATOM     25  C   LIG    1        2.258  -3.949  -0.859  0.00  0.00    +0.001 A 
ATOM     26  C   LIG    1        2.443  -4.566   0.366  0.00  0.00    +0.003 A 
ATOM     27  C   LIG    1        2.234  -3.865   1.540  0.00  0.00    +0.039 A 
ATOM     28  C   LIG    1        1.838  -2.541   1.496  0.00  0.00    +0.133 A 
ATOM     29  F   LIG    1        1.633  -1.857   2.643  0.00  0.00    -0.205 F 
ENDBRANCH   9  23
BRANCH  19  30
ATOM     30  C   LIG    1       -1.706   2.389  -1.425  0.00  0.00    -0.020 A 
ATOM     31  C   LIG    1       -1.990   1.340  -2.280  0.00  0.00    +0.006 A 
ATOM     32  C   LIG    1       -2.299   1.590  -3.603  0.00  0.00    +0.002 A 
ATOM     33  C   LIG    1       -2.325   2.890  -4.073  0.00  0.00    +0.020 A 
ATOM     34  C   LIG    1       -2.041   3.940  -3.219  0.00  0.00    +0.041 A 
ATOM     35 CL   LIG    1       -2.072   5.572  -3.809  0.00  0.00    -0.084 Cl
ATOM     36  C   LIG    1       -1.737   3.689  -1.892  0.00  0.00    +0.025 A 
ENDBRANCH  19  30
TORSDOF 2
