REMARK  Name = ZINC29130833
REMARK                            x       y       z     vdW  Elec       q    Type
REMARK                         _______ _______ _______ _____ _____    ______ ____
ROOT
ATOM      1  C   LIG    1       -0.018   1.503   0.010  0.00  0.00    +0.044 C 
ATOM      2  C   LIG    1        0.002  -0.004   0.002  0.00  0.00    -0.043 A 
ATOM      3  C   LIG    1        0.006  -0.687  -1.198  0.00  0.00    +0.004 A 
ATOM      4  C   LIG    1        0.025  -2.067  -1.214  0.00  0.00    +0.012 A 
ATOM      5  C   LIG    1        0.040  -2.781  -0.015  0.00  0.00    +0.021 A 
ATOM      6  C   LIG    1        0.037  -2.099   1.197  0.00  0.00    +0.020 A 
ATOM      7  C   LIG    1        0.023  -0.707   1.206  0.00  0.00    -0.014 A 
ENDROOT
BRANCH   5   8
ATOM      8  C   LIG    1        0.060  -4.264  -0.034  0.00  0.00    +0.181 A 
ATOM      9  N   LIG    1        0.081  -5.044   1.025  0.00  0.00    -0.152 NA
ATOM     10  N   LIG    1        0.092  -6.366   0.553  0.00  0.00    -0.262 N 
ATOM     11  C   LIG    1        0.084  -6.293  -0.790  0.00  0.00    +0.122 A 
ATOM     12  C   LIG    1        0.094  -7.465  -1.738  0.00  0.00    +0.087 C 
ATOM     13  H   LIG    1        0.106  -7.174   1.090  0.00  0.00    +0.190 HD
ATOM     14  N   LIG    1        0.064  -5.032  -1.132  0.00  0.00    -0.212 NA
ENDBRANCH   5   8
BRANCH   7  15
ATOM     15  C   LIG    1        0.025   0.028   2.495  0.00  0.00    -0.018 A 
ATOM     16  C   LIG    1        0.935   1.064   2.705  0.00  0.00    +0.009 A 
ATOM     17  C   LIG    1        0.938   1.746   3.901  0.00  0.00    +0.013 A 
ATOM     18  C   LIG    1        0.029   1.401   4.904  0.00  0.00    +0.037 A 
ATOM     19  C   LIG    1       -0.882   0.363   4.692  0.00  0.00    +0.013 A 
ATOM     20  C   LIG    1       -0.886  -0.315   3.494  0.00  0.00    +0.009 A 
BRANCH  18  21
ATOM     21  C   LIG    1        0.032   2.132   6.187  0.00  0.00    +0.244 C 
ATOM     22  N   LIG    1       -0.846   1.798   7.154  0.00  0.00    -0.311 N 
ATOM     23  H   LIG    1       -1.478   1.078   7.008  0.00  0.00    +0.149 HD
ATOM     24  O   LIG    1        0.825   3.034   6.371  0.00  0.00    -0.270 OA
BRANCH  22  25
ATOM     25  C   LIG    1       -0.843   2.523   8.428  0.00  0.00    +0.108 C 
BRANCH  25  26
ATOM     26  C   LIG    1       -1.928   1.951   9.342  0.00  0.00    +0.006 C 
ATOM     27  C   LIG    1       -3.077   2.879   9.742  0.00  0.00    +0.005 C 
ATOM     28  C   LIG    1       -2.009   2.498  10.769  0.00  0.00    +0.005 C 
ENDBRANCH  25  26
ENDBRANCH  22  25
ENDBRANCH  18  21
ENDBRANCH   7  15
TORSDOF 5
