REMARK  Name = ZINC40973758
REMARK                            x       y       z     vdW  Elec       q    Type
REMARK                         _______ _______ _______ _____ _____    ______ ____
ROOT
ATOM      1  C   LIG    1       -0.017   1.370   0.010  0.00  0.00    +0.063 A 
ATOM      2  C   LIG    1        1.330   1.831  -0.001  0.00  0.00    +0.097 A 
ATOM      3  C   LIG    1        2.115   0.669  -0.015  0.00  0.00    +0.105 A 
ATOM      4  S   LIG    1        3.762   1.337  -0.027  0.00  0.00    -0.058 S 
ATOM      5  C   LIG    1        3.306   3.064  -0.013  0.00  0.00    +0.158 A 
ATOM      6  N   LIG    1        1.323  -0.421  -0.013  0.00  0.00    -0.342 N 
ATOM      7  H   LIG    1        1.627  -1.343  -0.020  0.00  0.00    +0.167 HD
ATOM      8  N   LIG    1        2.003   3.005  -0.001  0.00  0.00    -0.246 NA
ATOM      9  CA  LIG    1        0.002  -0.004   0.002  0.00  0.00    +0.127 A 
ENDROOT
BRANCH   9  10
ATOM     10  C   LIG    1       -1.135  -0.849   0.009  0.00  0.00    +0.353 C 
ATOM     11  O   LIG    1       -0.993  -2.066   0.001  0.00  0.00    -0.243 OA
BRANCH  10  12
ATOM     12  OXT LIG    1       -2.260  -0.363   0.023  0.00  0.00    -0.476 OA
ATOM     13  HXT LIG    1       -2.368   0.568   0.029  0.00  0.00    +0.295 HD
ENDBRANCH  10  12
ENDBRANCH   9  10
TORSDOF 2
