REMARK  Name = ZINC36222118
REMARK                            x       y       z     vdW  Elec       q    Type
REMARK                         _______ _______ _______ _____ _____    ______ ____
ROOT
ATOM      1  C   LIG    1        3.155  -1.855   0.511  0.00  0.00    +0.010 A 
ATOM      2  C   LIG    1        3.993  -2.902   0.296  0.00  0.00    +0.013 A 
ATOM      3  C   LIG    1        3.935  -3.992   1.135  0.00  0.00    +0.016 A 
ATOM      4  C   LIG    1        3.029  -3.983   2.164  0.00  0.00    +0.020 A 
ATOM      5  S   LIG    1        2.243  -2.395   1.948  0.00  0.00    -0.091 S 
ENDROOT
BRANCH   4   6
ATOM      6  C   LIG    1        2.774  -5.015   3.188  0.00  0.00    -0.001 A 
ATOM      7  C   LIG    1        2.579  -6.344   2.811  0.00  0.00    +0.010 A 
ATOM      8  C   LIG    1        2.341  -7.304   3.772  0.00  0.00    +0.001 A 
ATOM      9  C   LIG    1        2.294  -6.960   5.113  0.00  0.00    +0.001 A 
ATOM     10  C   LIG    1        2.484  -5.651   5.505  0.00  0.00    +0.012 A 
ATOM     11  C   LIG    1        2.732  -4.666   4.551  0.00  0.00    +0.029 A 
BRANCH  11  12
ATOM     12  C   LIG    1        2.943  -3.264   4.966  0.00  0.00    +0.180 A 
ATOM     13  N   LIG    1        3.189  -2.222   4.168  0.00  0.00    -0.108 NA
ATOM     14  N   LIG    1        3.308  -1.180   4.918  0.00  0.00    -0.023 NA
ATOM     15  N   LIG    1        3.156  -1.522   6.149  0.00  0.00    -0.046 NA
ATOM     16  N   LIG    1        2.931  -2.789   6.214  0.00  0.00    -0.239 N 
ATOM     17  H   LIG    1        2.779  -3.312   7.034  0.00  0.00    +0.192 HD
ENDBRANCH  11  12
ENDBRANCH   4   6
BRANCH   1  18
ATOM     18  C   LIG    1        3.031  -0.567  -0.261  0.00  0.00    +0.167 C 
BRANCH  18  29
ATOM     19  C   LIG    1        0.707  -0.490  -1.238  0.00  0.00    +0.112 A 
ATOM     20  N   LIG    1        0.129  -0.735  -2.377  0.00  0.00    -0.230 NA
ATOM     21  C   LIG    1        1.056  -1.154  -3.275  0.00  0.00    +0.111 A 
ATOM     22  C   LIG    1        0.998  -1.545  -4.616  0.00  0.00    -0.020 A 
ATOM     23  C   LIG    1       -0.310  -1.554  -5.365  0.00  0.00    +0.046 C 
ATOM     24  C   LIG    1        2.174  -1.922  -5.236  0.00  0.00    +0.028 A 
ATOM     25  C   LIG    1        3.361  -1.903  -4.521  0.00  0.00    +0.041 A 
ATOM     26  C   LIG    1        4.640  -2.316  -5.202  0.00  0.00    +0.065 C 
ATOM     27  N   LIG    1        3.394  -1.533  -3.258  0.00  0.00    -0.233 NA
ATOM     28  C   LIG    1        2.298  -1.161  -2.616  0.00  0.00    +0.161 A 
ATOM     29  N   LIG    1        2.044  -0.731  -1.331  0.00  0.00    -0.308 N 
BRANCH  19  31
ATOM     30  C   LIG    1       -0.019   1.526   0.010  0.00  0.00    +0.012 C 
ATOM     31  C   LIG    1        0.002  -0.004   0.002  0.00  0.00    +0.071 C 
ENDBRANCH  19  31
ENDBRANCH  18  29
ENDBRANCH   1  18
TORSDOF 5
