REMARK  Name = ZINC19943127
REMARK                            x       y       z     vdW  Elec       q    Type
REMARK                         _______ _______ _______ _____ _____    ______ ____
ROOT
ATOM      1  C   LIG    1       -0.019   1.526   0.010  0.00  0.00    +0.108 C 
ENDROOT
BRANCH   1   2
ATOM      2  C   LIG    1       -0.748   2.025  -1.210  0.00  0.00    +0.154 A 
ATOM      3  O   LIG    1       -0.202   2.214  -2.418  0.00  0.00    -0.380 OA
ATOM      4  N   LIG    1       -1.212   2.687  -3.292  0.00  0.00    -0.183 N 
ATOM      5  H   LIG    1       -1.103   2.906  -4.231  0.00  0.00    +0.211 HD
ATOM      6  C   LIG    1       -2.351   2.777  -2.575  0.00  0.00    +0.294 A 
ATOM      7  O   LIG    1       -3.438   3.152  -2.985  0.00  0.00    -0.264 OA
ATOM      8  C   LIG    1       -2.051   2.358  -1.261  0.00  0.00    +0.125 A 
ATOM      9 BR   LIG    1       -3.272   2.278   0.181  0.00  0.00    -0.041 Br
ENDBRANCH   1   2
BRANCH   1  10
ATOM     10  CA  LIG    1        0.002  -0.004   0.002  0.00  0.00    +0.168 C 
BRANCH  10  11
ATOM     11  N   LIG    1       -1.370  -0.513   0.133  0.00  0.00    -0.318 NA
ATOM     12  H1  LIG    1       -1.932  -0.247  -0.661  0.00  0.00    +0.119 HD
ATOM     13  H2  LIG    1       -1.791  -0.200   0.995  0.00  0.00    +0.119 HD
ENDBRANCH  10  11
BRANCH  10  14
ATOM     14  C   LIG    1        0.835  -0.501   1.155  0.00  0.00    +0.322 C 
ATOM     15  O   LIG    1        0.299  -1.058   2.099  0.00  0.00    -0.249 OA
BRANCH  14  16
ATOM     16  OXT LIG    1        2.044  -0.348   1.145  0.00  0.00    -0.480 OA
ATOM     17  HXT LIG    1        2.456   0.080   0.420  0.00  0.00    +0.295 HD
ENDBRANCH  14  16
ENDBRANCH  10  14
ENDBRANCH   1  10
TORSDOF 5
