REMARK  Name = ZINC34635639
REMARK                            x       y       z     vdW  Elec       q    Type
REMARK                         _______ _______ _______ _____ _____    ______ ____
ROOT
ATOM      1  C   LIG    1        4.925  -0.419  -3.727  0.00  0.00    +0.046 A 
ATOM      2  C   LIG    1        5.528   0.483  -4.588  0.00  0.00    +0.051 A 
ATOM      3  C   LIG    1        6.171  -0.012  -5.727  0.00  0.00    +0.076 A 
ATOM      4  N   LIG    1        6.182  -1.324  -5.942  0.00  0.00    -0.218 NA
ATOM      5  C   LIG    1        5.592  -2.152  -5.092  0.00  0.00    +0.233 A 
ATOM      6  N   LIG    1        4.979  -1.711  -4.001  0.00  0.00    -0.223 NA
ENDROOT
BRANCH   3   7
ATOM      7  C   LIG    1        6.832   0.912  -6.680  0.00  0.00    +0.001 A 
ATOM      8  C   LIG    1        6.821   2.286  -6.444  0.00  0.00    +0.010 A 
ATOM      9  C   LIG    1        7.438   3.141  -7.334  0.00  0.00    +0.001 A 
ATOM     10  C   LIG    1        8.066   2.638  -8.460  0.00  0.00    +0.012 A 
ATOM     11  C   LIG    1        8.080   1.276  -8.699  0.00  0.00    +0.055 A 
ATOM     12  C   LIG    1        7.471   0.410  -7.813  0.00  0.00    +0.022 A 
BRANCH  11  13
ATOM     13  C   LIG    1        8.766   0.735  -9.927  0.00  0.00    +0.417 C 
ATOM     14  F   LIG    1        7.837   0.047 -10.715  0.00  0.00    -0.166 F 
ATOM     15  F   LIG    1        9.789  -0.139  -9.543  0.00  0.00    -0.166 F 
ATOM     16  F   LIG    1        9.309   1.794 -10.662  0.00  0.00    -0.166 F 
ENDBRANCH  11  13
ENDBRANCH   3   7
BRANCH   5  17
ATOM     17  C   LIG    1        5.622  -3.559  -5.355  0.00  0.00    +0.140 C 
ATOM     18  N   LIG    1        5.645  -4.676  -5.563  0.00  0.00    -0.188 NA
ENDBRANCH   5  17
BRANCH   1  19
ATOM     19  C   LIG    1        4.219   0.067  -2.487  0.00  0.00    +0.054 C 
BRANCH  19  20
ATOM     20  C   LIG    1        2.784  -0.463  -2.476  0.00  0.00    -0.013 C 
BRANCH  20  21
ATOM     21  C   LIG    1        2.068   0.031  -1.217  0.00  0.00    -0.081 C 
BRANCH  21  22
ATOM     22  N   LIG    1        0.690  -0.478  -1.207  0.00  0.00    +0.388 N 
ATOM     23  H   LIG    1        0.202  -0.144  -2.024  0.00  0.00    -0.084 HD
ATOM     24  H   LIG    1        0.703  -1.487  -1.212  0.00  0.00    -0.084 HD
BRANCH  22  26
ATOM     25  C   LIG    1       -0.019   1.526   0.010  0.00  0.00    -0.001 C 
ATOM     26  C   LIG    1        0.002  -0.004   0.002  0.00  0.00    +0.004 C 
ATOM     27  C   LIG    1        0.742  -0.511   1.242  0.00  0.00    -0.001 C 
BRANCH  26  28
ATOM     28  C   LIG    1       -1.412  -0.526   0.013  0.00  0.00    +0.199 C 
ATOM     29  N   LIG    1       -2.090  -0.657  -1.144  0.00  0.00    -0.330 N 
ATOM     30  H   LIG    1       -3.000  -0.993  -1.137  0.00  0.00    +0.145 HD
ATOM     31  H   LIG    1       -1.669  -0.416  -1.984  0.00  0.00    +0.145 HD
ATOM     32  O   LIG    1       -1.939  -0.827   1.062  0.00  0.00    -0.278 OA
ENDBRANCH  26  28
ENDBRANCH  22  26
ENDBRANCH  21  22
ENDBRANCH  20  21
ENDBRANCH  19  20
ENDBRANCH   1  19
TORSDOF 9
