REMARK  Name = ZINC29136213
REMARK                            x       y       z     vdW  Elec       q    Type
REMARK                         _______ _______ _______ _____ _____    ______ ____
ROOT
ATOM      1  C   LIG    1       -2.850  11.121  -0.152  0.00  0.00    +0.001 A 
ATOM      2  C   LIG    1       -3.550   9.923  -0.214  0.00  0.00    +0.001 A 
ATOM      3  C   LIG    1       -2.894   8.727  -0.169  0.00  0.00    +0.010 A 
ATOM      4  C   LIG    1       -1.498   8.699  -0.060  0.00  0.00    +0.008 A 
ATOM      5  C   LIG    1       -0.783   9.914   0.004  0.00  0.00    -0.008 A 
ATOM      6  C   LIG    1        0.681   9.893   0.118  0.00  0.00    -0.007 A 
ATOM      7  C   LIG    1        1.408  11.085   0.182  0.00  0.00    +0.029 A 
ATOM      8  C   LIG    1        2.780  11.042   0.289  0.00  0.00    +0.042 A 
ATOM      9 CL   LIG    1        3.685  12.522   0.368  0.00  0.00    -0.084 Cl
ATOM     10  C   LIG    1        3.447   9.824   0.334  0.00  0.00    +0.020 A 
ATOM     11  C   LIG    1        2.756   8.648   0.273  0.00  0.00    +0.012 A 
ATOM     12  C   LIG    1        1.362   8.661   0.164  0.00  0.00    +0.010 A 
ATOM     13  C   LIG    1        0.607   7.402   0.098  0.00  0.00    +0.098 A 
ATOM     14  N   LIG    1        0.987   6.113   0.119  0.00  0.00    -0.227 NA
ATOM     15  C   LIG    1       -0.070   5.339   0.031  0.00  0.00    +0.142 A 
ATOM     16  N   LIG    1       -1.193   6.116  -0.057  0.00  0.00    -0.337 N 
ATOM     17  H   LIG    1       -2.263   5.879  -0.149  0.00  0.00    +0.167 HD
ATOM     18  C   LIG    1       -0.781   7.427  -0.011  0.00  0.00    +0.075 A 
ATOM     19  C   LIG    1       -1.478  11.125  -0.044  0.00  0.00    +0.009 A 
ENDROOT
BRANCH  15  20
ATOM     20  C   LIG    1       -0.050   3.865   0.023  0.00  0.00    +0.052 A 
ATOM     21  C   LIG    1        1.173   3.172  -0.040  0.00  0.00    +0.064 A 
ATOM     22  C   LIG    1        1.177   1.776  -0.046  0.00  0.00    +0.019 A 
ATOM     23  C   LIG    1       -0.013   1.076   0.008  0.00  0.00    +0.003 A 
ATOM     24  C   LIG    1       -1.221   1.743   0.064  0.00  0.00    +0.019 A 
ATOM     25  C   LIG    1       -1.254   3.138   0.077  0.00  0.00    +0.064 A 
BRANCH  21  26
ATOM     26  C   LIG    1        2.408   3.895  -0.095  0.00  0.00    +0.100 C 
ATOM     27  N   LIG    1        3.387   4.468  -0.139  0.00  0.00    -0.191 NA
ENDBRANCH  21  26
BRANCH  25  28
ATOM     28  C   LIG    1       -2.508   3.827   0.141  0.00  0.00    +0.100 C 
ATOM     29  N   LIG    1       -3.503   4.373   0.191  0.00  0.00    -0.191 NA
ENDBRANCH  25  28
ENDBRANCH  15  20
TORSDOF 3
