REMARK  Name = ZINC28645388
REMARK                            x       y       z     vdW  Elec       q    Type
REMARK                         _______ _______ _______ _____ _____    ______ ____
ROOT
ATOM      1  C   LIG    1        3.663   2.087  -0.021  0.00  0.00    +0.048 A 
ATOM      2  C   LIG    1        4.903   1.520  -0.036  0.00  0.00    +0.041 A 
ATOM      3  C   LIG    1        5.828   2.572  -0.040  0.00  0.00    +0.058 A 
ATOM      4  C   LIG    1        5.106   3.762  -0.025  0.00  0.00    +0.030 A 
ATOM      5  C   LIG    1        5.807   5.096  -0.022  0.00  0.00    +0.072 C 
ATOM      6  C   LIG    1        7.163   4.939   0.668  0.00  0.00    +0.110 C 
ATOM      7  N   LIG    1        7.901   3.770   0.208  0.00  0.00    -0.311 N 
ATOM      8  H   LIG    1        8.990   3.828   0.066  0.00  0.00    +0.149 HD
ATOM      9  C   LIG    1        7.301   2.586  -0.059  0.00  0.00    +0.246 C 
ATOM     10  O   LIG    1        7.946   1.583  -0.302  0.00  0.00    -0.270 OA
ATOM     11  N   LIG    1        3.807   3.458  -0.021  0.00  0.00    -0.357 N 
ATOM     12  H   LIG    1        2.917   4.105  -0.017  0.00  0.00    +0.166 HD
ENDROOT
BRANCH   1  19
ATOM     13  C   LIG    1        2.349  -0.045  -0.020  0.00  0.00    +0.030 A 
ATOM     14  C   LIG    1        1.130  -0.689  -0.012  0.00  0.00    +0.113 A 
ATOM     15  N   LIG    1        0.002  -0.004   0.002  0.00  0.00    -0.244 NA
ATOM     16  C   LIG    1       -0.016   1.317   0.009  0.00  0.00    +0.130 A 
ATOM     17 CL   LIG    1       -1.537   2.153   0.021  0.00  0.00    -0.062 Cl
ATOM     18  C   LIG    1        1.159   2.041   0.002  0.00  0.00    +0.050 A 
ATOM     19  C   LIG    1        2.379   1.354  -0.013  0.00  0.00    +0.003 A 
ENDBRANCH   1  19
TORSDOF 1
