REMARK  Name = ZINC28108493
REMARK                            x       y       z     vdW  Elec       q    Type
REMARK                         _______ _______ _______ _____ _____    ______ ____
ROOT
ATOM      1  C   LIG    1        2.340   1.413  -0.013  0.00  0.00    +0.128 A 
ATOM      2  C   LIG    1        2.388   0.064  -0.021  0.00  0.00    +0.199 A 
ATOM      3  C   LIG    1        1.176  -0.668  -0.013  0.00  0.00    +0.249 A 
ATOM      4  N   LIG    1        0.002  -0.004   0.002  0.00  0.00    -0.156 NA
ATOM      5  C   LIG    1       -0.016   1.342   0.009  0.00  0.00    +0.352 A 
ATOM      6  O   LIG    1       -1.082   1.927   0.018  0.00  0.00    -0.244 OA
ATOM      7  N   LIG    1        1.128   2.049   0.002  0.00  0.00    -0.298 N 
ENDROOT
BRANCH   2   8
ATOM      8  N   LIG    1        3.689  -0.640  -0.037  0.00  0.00    +0.013 N 
ATOM      9  O   LIG    1        4.727  -0.003  -0.044  0.00  0.00    -0.130 OA
BRANCH   8  10
ATOM     10  O   LIG    1        3.723  -1.858  -0.044  0.00  0.00    -0.396 OA
ATOM     11  H   LIG    1        2.924  -2.349  -0.039  0.00  0.00    +0.329 HD
ENDBRANCH   8  10
ENDBRANCH   2   8
BRANCH   3  12
ATOM     12  O   LIG    1        1.193  -1.885  -0.020  0.00  0.00    -0.491 OA
ATOM     13  H   LIG    1        2.011  -2.342  -0.030  0.00  0.00    +0.294 HD
ENDBRANCH   3  12
BRANCH   7  14
ATOM     14  C   LIG    1        1.077   3.513   0.011  0.00  0.00    +0.121 C 
BRANCH  14  15
ATOM     15  CA  LIG    1        1.073   4.015   1.456  0.00  0.00    +0.056 C 
BRANCH  15  16
ATOM     16  N   LIG    1        2.234   3.466   2.168  0.00  0.00    +0.388 N 
ATOM     17  H1  LIG    1        2.182   2.367   2.162  0.00  0.00    -0.089 HD
ATOM     18  H2  LIG    1        3.158   3.792   1.670  0.00  0.00    -0.089 HD
ATOM     19  H3  LIG    1        2.231   3.826   3.208  0.00  0.00    -0.089 HD
ENDBRANCH  15  16
BRANCH  15  20
ATOM     20  C   LIG    1        1.143   5.520   1.465  0.00  0.00    +0.292 C 
ATOM     21  O   LIG    1        2.197   6.074   1.671  0.00  0.00    -0.253 OA
BRANCH  20  22
ATOM     22  OXT LIG    1        0.036   6.246   1.246  0.00  0.00    -0.482 OA
ATOM     23  HXT LIG    1       -0.782   5.816   1.086  0.00  0.00    +0.295 HD
ENDBRANCH  20  22
ENDBRANCH  15  20
ENDBRANCH  14  15
ENDBRANCH   7  14
TORSDOF 8
