REMARK  Name = ZINC35636073
REMARK                            x       y       z     vdW  Elec       q    Type
REMARK                         _______ _______ _______ _____ _____    ______ ____
ROOT
ATOM      1  C   LIG    1        6.411   0.262  -2.921  0.00  0.00    +0.136 A 
ATOM      2  C   LIG    1        7.010   1.390  -3.486  0.00  0.00    +0.113 A 
ATOM      3  C   LIG    1        8.369   1.363  -3.729  0.00  0.00    +0.130 A 
ATOM      4  N   LIG    1        9.061   0.276  -3.420  0.00  0.00    -0.222 NA
ATOM      5  C   LIG    1        8.467  -0.780  -2.884  0.00  0.00    +0.221 A 
ATOM      6  N   LIG    1        7.167  -0.792  -2.631  0.00  0.00    -0.199 NA
ENDROOT
BRANCH   2   7
ATOM      7  C   LIG    1        6.191   2.609  -3.825  0.00  0.00    +0.422 C 
ATOM      8  F   LIG    1        5.589   3.104  -2.663  0.00  0.00    -0.166 F 
ATOM      9  F   LIG    1        5.201   2.263  -4.751  0.00  0.00    -0.166 F 
ATOM     10  F   LIG    1        7.021   3.591  -4.375  0.00  0.00    -0.166 F 
ENDBRANCH   2   7
BRANCH   1  11
ATOM     11  N   LIG    1        5.051   0.244  -2.660  0.00  0.00    -0.324 N 
ATOM     12  H   LIG    1        4.506   1.018  -2.874  0.00  0.00    +0.148 HD
BRANCH  11  13
ATOM     13  C   LIG    1        4.435  -0.942  -2.061  0.00  0.00    +0.138 C 
BRANCH  13  18
ATOM     14  C   LIG    1        1.128   0.064  -0.543  0.00  0.00    +0.088 A 
ATOM     15  C   LIG    1        0.247  -0.273  -1.554  0.00  0.00    +0.027 A 
ATOM     16  C   LIG    1        0.721  -0.827  -2.728  0.00  0.00    +0.002 A 
ATOM     17  C   LIG    1        2.076  -1.043  -2.892  0.00  0.00    +0.005 A 
ATOM     18  C   LIG    1        2.957  -0.706  -1.882  0.00  0.00    -0.029 A 
ATOM     19  C   LIG    1        2.483  -0.148  -0.709  0.00  0.00    +0.032 A 
BRANCH  14  21
ATOM     20  C   LIG    1        0.529   2.560   0.661  0.00  0.00    +0.200 C 
ATOM     21  S   LIG    1        0.523   0.769   0.954  0.00  0.00    -0.006 S 
ATOM     22  O   LIG    1       -0.812   0.296   1.064  0.00  0.00    -0.170 OA
ATOM     23  O   LIG    1        1.495   0.430   1.933  0.00  0.00    -0.170 OA
ENDBRANCH  14  21
ENDBRANCH  13  18
ENDBRANCH  11  13
ENDBRANCH   1  11
BRANCH   5  24
ATOM     24  N   LIG    1        9.226  -1.897  -2.576  0.00  0.00    -0.284 N 
ATOM     25  H   LIG    1        8.792  -2.705  -2.259  0.00  0.00    +0.155 HD
BRANCH  24  26
ATOM     26  C   LIG    1       10.617  -1.861  -2.723  0.00  0.00    +0.034 A 
ATOM     27  C   LIG    1       11.322  -0.715  -2.375  0.00  0.00    +0.025 A 
ATOM     28  C   LIG    1       12.695  -0.679  -2.520  0.00  0.00    +0.025 A 
ATOM     29  C   LIG    1       13.370  -1.787  -3.013  0.00  0.00    +0.037 A 
ATOM     30  C   LIG    1       12.665  -2.932  -3.360  0.00  0.00    -0.024 A 
ATOM     31  C   LIG    1       13.402  -4.133  -3.894  0.00  0.00    +0.046 C 
ATOM     32  C   LIG    1       14.601  -3.671  -4.723  0.00  0.00    +0.101 C 
ATOM     33  C   LIG    1       15.385  -2.639  -3.960  0.00  0.00    +0.218 C 
ATOM     34  O   LIG    1       16.593  -2.605  -4.065  0.00  0.00    -0.275 OA
ATOM     35  N   LIG    1       14.763  -1.753  -3.161  0.00  0.00    -0.285 N 
ATOM     36  H   LIG    1       15.281  -1.086  -2.684  0.00  0.00    +0.155 HD
ATOM     37  C   LIG    1       11.294  -2.971  -3.211  0.00  0.00    +0.028 A 
ENDBRANCH  24  26
ENDBRANCH   5  24
TORSDOF 7
