REMARK  Name = ZINC13818508
REMARK                            x       y       z     vdW  Elec       q    Type
REMARK                         _______ _______ _______ _____ _____    ______ ____
ROOT
ATOM      1  C   LIG    1       -0.013   1.086   0.008  0.00  0.00    +0.047 C 
ATOM      2  C   LIG    1       -0.540   1.631   1.364  0.00  0.00    +0.044 C 
ATOM      3  C   LIG    1        0.729   1.613   2.238  0.00  0.00    +0.062 C 
ATOM      4  O   LIG    1        1.862   1.608   1.365  0.00  0.00    -0.374 OA
ATOM      5  C   LIG    1        0.732   0.354   3.106  0.00  0.00    +0.032 C 
ATOM      6  C   LIG    1        1.962   0.376   4.019  0.00  0.00    -0.016 C 
ATOM      7  C   LIG    1        1.942   1.653   4.862  0.00  0.00    -0.082 C 
ATOM      8  N   LIG    1        1.960   2.834   3.978  0.00  0.00    +0.385 N 
ATOM      9  H   LIG    1        1.984   3.685   4.552  0.00  0.00    -0.085 HD
ATOM     10  H   LIG    1        2.796   2.799   3.383  0.00  0.00    -0.085 HD
ATOM     11  C   LIG    1        0.756   2.857   3.125  0.00  0.00    -0.008 C 
ATOM     12  C   LIG    1        1.425   1.664  -0.003  0.00  0.00    +0.168 C 
ENDROOT
BRANCH   1  16
ATOM     13  C   LIG    1       -2.306   2.603  -3.261  0.00  0.00    +0.000 A 
ATOM     14  C   LIG    1       -2.176   1.238  -3.083  0.00  0.00    +0.000 A 
ATOM     15  C   LIG    1       -1.434   0.747  -2.025  0.00  0.00    +0.004 A 
ATOM     16  C   LIG    1       -0.822   1.621  -1.145  0.00  0.00    -0.042 A 
ATOM     17  C   LIG    1       -0.956   2.986  -1.321  0.00  0.00    +0.004 A 
ATOM     18  C   LIG    1       -1.695   3.476  -2.381  0.00  0.00    +0.000 A 
ENDBRANCH   1  16
BRANCH  11  19
ATOM     19  C   LIG    1        0.789   4.090   2.259  0.00  0.00    -0.059 A 
ATOM     20  C   LIG    1        1.981   4.511   1.701  0.00  0.00    +0.002 A 
ATOM     21  C   LIG    1        2.011   5.639   0.903  0.00  0.00    +0.000 A 
ATOM     22  C   LIG    1        0.850   6.353   0.671  0.00  0.00    +0.000 A 
ATOM     23  C   LIG    1       -0.342   5.935   1.234  0.00  0.00    +0.000 A 
ATOM     24  C   LIG    1       -0.372   4.803   2.028  0.00  0.00    +0.002 A 
ENDBRANCH  11  19
TORSDOF 2
