REMARK  Name = ZINC28640034
REMARK                            x       y       z     vdW  Elec       q    Type
REMARK                         _______ _______ _______ _____ _____    ______ ____
ROOT
ATOM      1  S   LIG    1        1.968  -2.811   1.830  0.00  0.00    +0.059 S 
ATOM      2  O   LIG    1        3.190  -2.111   1.641  0.00  0.00    -0.153 OA
ATOM      3  O   LIG    1        1.798  -4.167   1.440  0.00  0.00    -0.153 OA
ENDROOT
BRANCH   1   4
ATOM      4  C   LIG    1        1.604  -2.733   3.553  0.00  0.00    +0.105 A 
ATOM      5  C   LIG    1        2.211  -1.777   4.345  0.00  0.00    +0.029 A 
ATOM      6  C   LIG    1        1.926  -1.716   5.696  0.00  0.00    +0.005 A 
ATOM      7  C   LIG    1        1.033  -2.611   6.255  0.00  0.00    -0.047 A 
ATOM      8  C   LIG    1        0.426  -3.567   5.463  0.00  0.00    +0.005 A 
ATOM      9  C   LIG    1        0.708  -3.625   4.111  0.00  0.00    +0.029 A 
BRANCH   7  10
ATOM     10  C   LIG    1        0.723  -2.546   7.728  0.00  0.00    +0.040 C 
BRANCH  10  11
ATOM     11  C   LIG    1       -0.466  -1.611   7.958  0.00  0.00    +0.040 C 
BRANCH  11  12
ATOM     12  C   LIG    1       -0.776  -1.545   9.431  0.00  0.00    -0.047 A 
ATOM     13  C   LIG    1       -1.665  -2.444   9.991  0.00  0.00    +0.003 A 
ATOM     14  C   LIG    1       -1.949  -2.384  11.342  0.00  0.00    +0.000 A 
ATOM     15  C   LIG    1       -1.345  -1.425  12.134  0.00  0.00    +0.000 A 
ATOM     16  C   LIG    1       -0.456  -0.526  11.574  0.00  0.00    +0.000 A 
ATOM     17  C   LIG    1       -0.168  -0.589  10.223  0.00  0.00    +0.003 A 
ENDBRANCH  11  12
ENDBRANCH  10  11
ENDBRANCH   7  10
ENDBRANCH   1   4
BRANCH   1  18
ATOM     18  N   LIG    1        0.798  -1.942   1.043  0.00  0.00    -0.175 NA
ATOM     19  H   LIG    1        0.201  -2.385   0.421  0.00  0.00    +0.149 HD
BRANCH  18  20
ATOM     20  C   LIG    1        0.667  -0.503   1.286  0.00  0.00    +0.192 C 
BRANCH  20  22
ATOM     21  C   LIG    1        1.305   1.770   0.470  0.00  0.00    +0.009 C 
ATOM     22  C   LIG    1        1.443   0.268   0.216  0.00  0.00    +0.013 C 
ATOM     23  C   LIG    1        0.879  -0.070  -1.165  0.00  0.00    +0.009 C 
ENDBRANCH  20  22
BRANCH  20  24
ATOM     24  P   LIG    1       -1.093  -0.034   1.217  0.00  0.00    +0.346 P 
ATOM     25  O   LIG    1       -1.234   1.506   1.473  0.00  0.00    -0.257 OA
BRANCH  24  26
ATOM     26  O   LIG    1       -1.887  -0.820   2.315  0.00  0.00    -0.323 OA
ATOM     27  H   LIG    1       -1.529  -0.604   3.190  0.00  0.00    +0.220 HD
ENDBRANCH  24  26
BRANCH  24  28
ATOM     28  O   LIG    1       -1.672  -0.383  -0.197  0.00  0.00    -0.323 OA
ATOM     29  H   LIG    1       -1.180   0.104  -0.876  0.00  0.00    +0.220 HD
ENDBRANCH  24  28
ENDBRANCH  20  24
ENDBRANCH  18  20
ENDBRANCH   1  18
TORSDOF 10
