REMARK  Name = ZINC20114433
REMARK                            x       y       z     vdW  Elec       q    Type
REMARK                         _______ _______ _______ _____ _____    ______ ____
ROOT
ATOM      1  C   LIG    1       -7.558   3.087  -1.996  0.00  0.00    +0.008 C 
ATOM      2  C   LIG    1       -7.880   2.066  -0.935  0.00  0.00    -0.007 C 
ATOM      3  C   LIG    1       -9.158   1.635  -0.746  0.00  0.00    +0.038 C 
ATOM      4  C   LIG    1       -9.434   0.684   0.247  0.00  0.00    +0.125 C 
ATOM      5  N   LIG    1       -8.483   0.190   1.012  0.00  0.00    -0.298 NA
ATOM      6  H   LIG    1       -8.728  -0.554   1.784  0.00  0.00    +0.124 HD
ATOM      7  C   LIG    1       -7.209   0.576   0.872  0.00  0.00    +0.059 C 
ATOM      8  C   LIG    1       -6.200   0.042   1.693  0.00  0.00    +0.021 C 
ATOM      9  C   LIG    1       -4.911   0.446   1.536  0.00  0.00    +0.024 C 
ATOM     10  C   LIG    1       -4.566   1.391   0.565  0.00  0.00    +0.073 C 
ATOM     11  C   LIG    1       -5.530   1.938  -0.253  0.00  0.00    +0.027 C 
ATOM     12  C   LIG    1       -6.866   1.533  -0.113  0.00  0.00    +0.011 C 
ENDROOT
BRANCH   4  13
ATOM     13  N   LIG    1      -10.741   0.254   0.428  0.00  0.00    -0.285 NA
ATOM     14  C   LIG    1      -11.638   1.389   0.688  0.00  0.00    +0.101 C 
ATOM     15  C   LIG    1      -13.078   0.881   0.803  0.00  0.00    +0.099 C 
ATOM     16  N   LIG    1      -13.160  -0.110   1.885  0.00  0.00    -0.303 NA
ATOM     17  C   LIG    1      -14.543  -0.565   2.077  0.00  0.00    +0.105 C 
ATOM     18  C   LIG    1      -12.263  -1.244   1.625  0.00  0.00    +0.099 C 
ATOM     19  C   LIG    1      -10.824  -0.737   1.510  0.00  0.00    +0.101 C 
ENDBRANCH   4  13
BRANCH  10  20
ATOM     20  N   LIG    1       -3.231   1.788   0.426  0.00  0.00    -0.309 N 
ATOM     21  H   LIG    1       -2.992   2.821   0.134  0.00  0.00    +0.149 HD
ATOM     22  C   LIG    1       -2.238   0.904   0.650  0.00  0.00    +0.254 C 
ATOM     23  O   LIG    1       -2.501  -0.257   0.881  0.00  0.00    -0.272 OA
BRANCH  22  24
ATOM     24  C   LIG    1       -0.802   1.359   0.615  0.00  0.00    +0.256 C 
ATOM     25  C   LIG    1       -0.446   1.816  -0.802  0.00  0.00    +0.062 C 
BRANCH  24  26
ATOM     26  O   LIG    1        0.050   0.277   0.994  0.00  0.00    -0.478 OA
BRANCH  26  27
ATOM     27  C   LIG    1        1.274   0.600   1.492  0.00  0.00    +0.140 A 
ATOM     28  C   LIG    1        1.625   1.931   1.663  0.00  0.00    +0.048 A 
ATOM     29  C   LIG    1        2.866   2.257   2.173  0.00  0.00    +0.023 A 
ATOM     30  C   LIG    1        3.764   1.258   2.506  0.00  0.00    +0.043 A 
ATOM     31 CL   LIG    1        5.325   1.671   3.141  0.00  0.00    -0.083 Cl
ATOM     32  C   LIG    1        3.418  -0.071   2.332  0.00  0.00    +0.043 A 
ATOM     33  C   LIG    1        2.175  -0.402   1.826  0.00  0.00    +0.084 A 
ATOM     34 CL   LIG    1        1.741  -2.068   1.607  0.00  0.00    -0.080 Cl
ENDBRANCH  26  27
ENDBRANCH  24  26
ENDBRANCH  22  24
ENDBRANCH  10  20
TORSDOF 5
