REMARK  Name = ZINC14607248
REMARK                            x       y       z     vdW  Elec       q    Type
REMARK                         _______ _______ _______ _____ _____    ______ ____
ROOT
ATOM      1  C   LIG    1       -1.085   1.131   0.116  0.00  0.00    +0.028 C 
ATOM      2  C   LIG    1       -0.049   0.142  -0.423  0.00  0.00    +0.081 C 
ATOM      3  C   LIG    1       -0.732  -1.187  -0.774  0.00  0.00    +0.051 C 
ATOM      4  C   LIG    1        0.308  -2.133  -1.374  0.00  0.00    +0.131 C 
ATOM      5  C   LIG    1        1.516  -2.225  -0.480  0.00  0.00    -0.004 A 
ATOM      6  C   LIG    1        2.358  -3.317  -0.602  0.00  0.00    +0.007 A 
ATOM      7  C   LIG    1        3.476  -3.429   0.202  0.00  0.00    +0.000 A 
ATOM      8  C   LIG    1        3.762  -2.448   1.134  0.00  0.00    +0.002 A 
ATOM      9  C   LIG    1        2.928  -1.356   1.262  0.00  0.00    +0.024 A 
ATOM     10  C   LIG    1        1.801  -1.243   0.456  0.00  0.00    +0.042 A 
ATOM     11  N   LIG    1        0.963  -0.130   0.607  0.00  0.00    -0.264 N 
ATOM     12  C   LIG    1        1.082   0.676   1.681  0.00  0.00    +0.251 C 
ATOM     13  O   LIG    1        0.471   1.727   1.722  0.00  0.00    -0.270 OA
ENDROOT
BRANCH  12  14
ATOM     14  C   LIG    1        1.954   0.284   2.807  0.00  0.00    +0.037 A 
ATOM     15  C   LIG    1        1.964  -1.036   3.259  0.00  0.00    +0.013 A 
ATOM     16  C   LIG    1        2.781  -1.396   4.311  0.00  0.00    +0.001 A 
ATOM     17  C   LIG    1        3.591  -0.451   4.917  0.00  0.00    +0.000 A 
ATOM     18  C   LIG    1        3.586   0.859   4.473  0.00  0.00    +0.001 A 
ATOM     19  C   LIG    1        2.777   1.231   3.419  0.00  0.00    +0.013 A 
ENDBRANCH  12  14
BRANCH   4  20
ATOM     20  N   LIG    1       -0.282  -3.465  -1.527  0.00  0.00    -0.196 N 
BRANCH  20  21
ATOM     21  C   LIG    1       -0.874  -4.097  -0.431  0.00  0.00    +0.052 A 
ATOM     22  C   LIG    1       -0.137  -4.319   0.726  0.00  0.00    +0.025 A 
ATOM     23  C   LIG    1       -0.725  -4.943   1.808  0.00  0.00    +0.002 A 
ATOM     24  C   LIG    1       -2.046  -5.348   1.741  0.00  0.00    +0.000 A 
ATOM     25  C   LIG    1       -2.782  -5.128   0.591  0.00  0.00    +0.002 A 
ATOM     26  C   LIG    1       -2.202  -4.499  -0.492  0.00  0.00    +0.025 A 
ENDBRANCH  20  21
BRANCH  20  27
ATOM     27  S   LIG    1       -0.248  -4.222  -2.999  0.00  0.00    +0.075 S 
ATOM     28  O   LIG    1       -0.013  -3.211  -3.970  0.00  0.00    -0.150 OA
ATOM     29  O   LIG    1       -1.385  -5.073  -3.046  0.00  0.00    -0.150 OA
BRANCH  27  30
ATOM     30  C   LIG    1        1.167  -5.271  -3.013  0.00  0.00    +0.109 A 
ATOM     31  C   LIG    1        2.383  -4.787  -3.457  0.00  0.00    +0.029 A 
ATOM     32  C   LIG    1        3.494  -5.610  -3.468  0.00  0.00    +0.002 A 
ATOM     33  C   LIG    1        3.388  -6.918  -3.033  0.00  0.00    +0.000 A 
ATOM     34  C   LIG    1        2.172  -7.403  -2.588  0.00  0.00    +0.002 A 
ATOM     35  C   LIG    1        1.063  -6.578  -2.574  0.00  0.00    +0.029 A 
ENDBRANCH  27  30
ENDBRANCH  20  27
ENDBRANCH   4  20
TORSDOF 5
