REMARK  Name = ZINC16051336
REMARK                            x       y       z     vdW  Elec       q    Type
REMARK                         _______ _______ _______ _____ _____    ______ ____
ROOT
ATOM      1  C   LIG    1       -1.766   2.531  -0.476  0.00  0.00    +0.328 C 
ATOM      2  N   LIG    1       -0.707   1.903  -0.880  0.00  0.00    -0.069 NA
ATOM      3  C   LIG    1       -0.034   1.267   0.260  0.00  0.00    +0.303 C 
ATOM      4  C   LIG    1       -0.907   1.639   1.474  0.00  0.00    +0.261 C 
ATOM      5  N   LIG    1       -1.986   2.448   0.882  0.00  0.00    -0.128 N 
ATOM      6  C   LIG    1       -3.011   3.010   1.552  0.00  0.00    +0.398 C 
ATOM      7  N   LIG    1       -3.127   2.828   2.882  0.00  0.00    -0.255 N 
ATOM      8  C   LIG    1       -4.257   3.395   3.638  0.00  0.00    +0.130 C 
ATOM      9  C   LIG    1       -5.043   2.241   4.261  0.00  0.00    +0.123 C 
ATOM     10  N   LIG    1       -4.144   1.291   4.904  0.00  0.00    -0.313 N 
ATOM     11  H   LIG    1       -4.524   0.619   5.688  0.00  0.00    +0.149 HD
ATOM     12  C   LIG    1       -2.849   1.159   4.614  0.00  0.00    +0.231 C 
ATOM     13  O   LIG    1       -2.221   0.278   5.161  0.00  0.00    -0.274 OA
ATOM     14  C   LIG    1       -2.135   2.047   3.637  0.00  0.00    +0.207 C 
ATOM     15  O   LIG    1       -3.830   3.683   0.957  0.00  0.00    -0.223 OA
ENDROOT
BRANCH   3  16
ATOM     16  C   LIG    1        1.359   1.817   0.424  0.00  0.00    +0.005 A 
ATOM     17  C   LIG    1        1.608   3.153   0.172  0.00  0.00    +0.009 A 
ATOM     18  C   LIG    1        2.885   3.660   0.328  0.00  0.00    +0.020 A 
ATOM     19  C   LIG    1        3.916   2.827   0.725  0.00  0.00    +0.041 A 
ATOM     20 CL   LIG    1        5.521   3.461   0.915  0.00  0.00    -0.084 Cl
ATOM     21  C   LIG    1        3.667   1.488   0.972  0.00  0.00    +0.020 A 
ATOM     22  C   LIG    1        2.389   0.984   0.821  0.00  0.00    +0.009 A 
ENDBRANCH   3  16
BRANCH   4  23
ATOM     23  C   LIG    1       -0.117   2.448   2.470  0.00  0.00    +0.000 A 
ATOM     24  C   LIG    1        0.086   3.799   2.257  0.00  0.00    +0.009 A 
ATOM     25  C   LIG    1        0.806   4.543   3.172  0.00  0.00    +0.020 A 
ATOM     26  C   LIG    1        1.334   3.933   4.296  0.00  0.00    +0.041 A 
ATOM     27 CL   LIG    1        2.245   4.865   5.443  0.00  0.00    -0.084 Cl
ATOM     28  C   LIG    1        1.136   2.579   4.506  0.00  0.00    +0.020 A 
ATOM     29  C   LIG    1        0.411   1.838   3.593  0.00  0.00    +0.009 A 
ENDBRANCH   4  23
BRANCH   1  35
ATOM     30  C   LIG    1       -4.012   2.923  -1.487  0.00  0.00    +0.139 A 
ATOM     31  C   LIG    1       -4.843   3.625  -2.343  0.00  0.00    +0.092 A 
ATOM     32  C   LIG    1       -4.333   4.662  -3.110  0.00  0.00    +0.124 A 
ATOM     33  C   LIG    1       -2.989   5.006  -3.018  0.00  0.00    +0.047 A 
ATOM     34  C   LIG    1       -2.154   4.318  -2.166  0.00  0.00    +0.023 A 
ATOM     35  C   LIG    1       -2.658   3.271  -1.390  0.00  0.00    +0.107 A 
BRANCH  32  36
ATOM     36  O   LIG    1       -5.149   5.345  -3.953  0.00  0.00    -0.495 OA
ATOM     37  C   LIG    1       -4.560   6.402  -4.713  0.00  0.00    +0.277 C 
ENDBRANCH  32  36
BRANCH  30  38
ATOM     38  O   LIG    1       -4.508   1.905  -0.740  0.00  0.00    -0.488 OA
BRANCH  38  40
ATOM     39  C   LIG    1       -6.046   0.041  -0.677  0.00  0.00    +0.051 C 
ATOM     40  C   LIG    1       -5.868   1.532  -0.972  0.00  0.00    +0.167 C 
ATOM     41  C   LIG    1       -6.784   2.346  -0.056  0.00  0.00    +0.051 C 
ENDBRANCH  38  40
ENDBRANCH  30  38
ENDBRANCH   1  35
TORSDOF 6
