REMARK  Name = ZINC38407010
REMARK                            x       y       z     vdW  Elec       q    Type
REMARK                         _______ _______ _______ _____ _____    ______ ____
ROOT
ATOM      1  C   LIG    1        0.648   1.722  -2.512  0.00  0.00    +0.012 C 
ATOM      2  C   LIG    1        0.656   0.191  -2.597  0.00  0.00    -0.025 C 
ATOM      3  C   LIG    1       -0.683  -0.251  -3.189  0.00  0.00    +0.008 C 
ATOM      4  C   LIG    1       -0.793  -1.771  -3.211  0.00  0.00    +0.018 C 
ATOM      5  C   LIG    1       -0.637  -2.345  -1.803  0.00  0.00    +0.065 C 
ATOM      6  C   LIG    1       -0.652  -3.879  -1.894  0.00  0.00    +0.023 C 
ATOM      7  C   LIG    1        0.701  -1.905  -1.210  0.00  0.00    +0.026 C 
ATOM      8  C   LIG    1        1.808  -0.273  -3.481  0.00  0.00    +0.008 C 
ATOM      9  C   LIG    1        3.134   0.297  -2.986  0.00  0.00    +0.012 C 
ATOM     10  C   LIG    1        3.417  -0.050  -1.532  0.00  0.00    -0.004 C 
ATOM     11  C   LIG    1        3.949  -1.490  -1.504  0.00  0.00    +0.016 C 
ATOM     12  C   LIG    1        4.520   0.864  -0.974  0.00  0.00    -0.013 C 
ATOM     13  C   LIG    1        3.965   2.294  -1.070  0.00  0.00    +0.013 C 
ATOM     14  C   LIG    1        5.771   0.783  -1.832  0.00  0.00    +0.008 C 
ATOM     15  C   LIG    1        6.933   1.549  -1.181  0.00  0.00    +0.005 C 
ATOM     16  C   LIG    1        7.190   0.934   0.193  0.00  0.00    +0.005 C 
ATOM     17  C   LIG    1        8.547   1.290   0.754  0.00  0.00    +0.006 C 
ATOM     18  C   LIG    1        9.625   0.587  -0.109  0.00  0.00    +0.015 C 
ATOM     19  C   LIG    1        8.838   2.789   0.697  0.00  0.00    +0.015 C 
ATOM     20  C   LIG    1        8.739   0.775   2.181  0.00  0.00    +0.182 C 
ATOM     21  C   LIG    1        7.546   1.098   3.071  0.00  0.00    +0.046 C 
ATOM     22  C   LIG    1        6.268   0.525   2.464  0.00  0.00    +0.011 C 
ATOM     23  C   LIG    1        5.996   1.195   1.105  0.00  0.00    -0.018 C 
ATOM     24  C   LIG    1        5.763   2.681   1.349  0.00  0.00    +0.012 C 
ATOM     25  C   LIG    1        4.776   0.518   0.484  0.00  0.00    +0.073 C 
ATOM     26  C   LIG    1        3.506   0.784   1.258  0.00  0.00    +0.160 C 
ATOM     27  O   LIG    1        3.491   1.286   2.365  0.00  0.00    -0.292 OA
ATOM     28  C   LIG    1        2.245   0.377   0.621  0.00  0.00    +0.046 C 
ATOM     29  C   LIG    1        2.199  -0.000  -0.663  0.00  0.00    -0.056 C 
ATOM     30  C   LIG    1        0.832  -0.387  -1.196  0.00  0.00    +0.023 C 
ENDROOT
BRANCH   5  31
ATOM     31  C   LIG    1       -1.774  -1.904  -0.923  0.00  0.00    +0.311 C 
ATOM     32  O   LIG    1       -2.921  -2.193  -1.218  0.00  0.00    -0.250 OA
BRANCH  31  33
ATOM     33  O   LIG    1       -1.549  -1.257   0.085  0.00  0.00    -0.480 OA
ATOM     34  H   LIG    1       -0.668  -1.034   0.312  0.00  0.00    +0.295 HD
ENDBRANCH  31  33
ENDBRANCH   5  31
BRANCH  20  35
ATOM     35  O   LIG    1        9.919   1.368   2.736  0.00  0.00    -0.461 OA
BRANCH  35  36
ATOM     36  C   LIG    1       10.624   0.625   3.604  0.00  0.00    +0.308 C 
ATOM     37  O   LIG    1       10.253  -0.490   3.885  0.00  0.00    -0.251 OA
BRANCH  36  38
ATOM     38  C   LIG    1       11.877   1.182   4.229  0.00  0.00    +0.132 C 
BRANCH  38  39
ATOM     39  C   LIG    1       12.483   0.141   5.172  0.00  0.00    +0.131 C 
BRANCH  39  40
ATOM     40  C   LIG    1       13.736   0.698   5.797  0.00  0.00    +0.305 C 
ATOM     41  O   LIG    1       14.110   1.824   5.514  0.00  0.00    -0.251 OA
BRANCH  40  42
ATOM     42  O   LIG    1       14.376   0.024   6.586  0.00  0.00    -0.481 OA
ATOM     43  H   LIG    1       14.088  -0.841   6.803  0.00  0.00    +0.295 HD
ENDBRANCH  40  42
ENDBRANCH  39  40
ENDBRANCH  38  39
ENDBRANCH  36  38
ENDBRANCH  35  36
ENDBRANCH  20  35
TORSDOF 8
