REMARK  Name = ZINC36242168
REMARK                            x       y       z     vdW  Elec       q    Type
REMARK                         _______ _______ _______ _____ _____    ______ ____
ROOT
ATOM      1  C   LIG    1        4.036   0.624   1.388  0.00  0.00    +0.010 A 
ATOM      2  C   LIG    1        4.312  -0.458   2.164  0.00  0.00    +0.017 A 
ATOM      3  C   LIG    1        4.782  -0.274   3.442  0.00  0.00    -0.033 A 
ATOM      4  C   LIG    1        4.931   1.071   3.806  0.00  0.00    +0.016 A 
ATOM      5  C   LIG    1        5.409   1.503   5.045  0.00  0.00    +0.026 C 
ATOM      6  C   LIG    1        6.019   0.567   5.835  0.00  0.00    +0.038 C 
ATOM      7  C   LIG    1        6.256  -0.834   5.353  0.00  0.00    +0.047 C 
ATOM      8  C   LIG    1        5.132  -1.350   4.457  0.00  0.00    +0.041 C 
ATOM      9  S   LIG    1        4.409   1.943   2.365  0.00  0.00    -0.092 S 
ENDROOT
BRANCH   6  10
ATOM     10  C   LIG    1        6.434   0.928   7.131  0.00  0.00    +0.333 C 
ATOM     11  O   LIG    1        6.231   2.168   7.574  0.00  0.00    -0.245 OA
BRANCH  10  12
ATOM     12  O   LIG    1        7.030   0.029   7.914  0.00  0.00    -0.477 OA
ATOM     13  H   LIG    1        7.173  -0.843   7.602  0.00  0.00    +0.295 HD
ENDBRANCH  10  12
ENDBRANCH   6  10
BRANCH   1  14
ATOM     14  C   LIG    1        3.521   0.638  -0.028  0.00  0.00    +0.165 C 
BRANCH  14  17
ATOM     15  C   LIG    1       -0.016   1.337   0.009  0.00  0.00    +0.101 A 
ATOM     16  C   LIG    1        1.259   1.771  -0.000  0.00  0.00    +0.105 A 
ATOM     17  N   LIG    1        2.056   0.658  -0.014  0.00  0.00    -0.334 N 
ATOM     18  C   LIG    1        1.240  -0.418  -0.012  0.00  0.00    +0.174 A 
ATOM     19  N   LIG    1        0.002  -0.004   0.002  0.00  0.00    -0.352 N 
ATOM     20  H   LIG    1       -0.781  -0.576   0.007  0.00  0.00    +0.166 HD
ENDBRANCH  14  17
ENDBRANCH   1  14
TORSDOF 4
