REMARK  Name = ZINC00056472
REMARK                            x       y       z     vdW  Elec       q    Type
REMARK                         _______ _______ _______ _____ _____    ______ ____
ROOT
ATOM      1  C   LIG    1       -0.019   1.526   0.010  0.00  0.00    +0.008 C 
ATOM      2  C   LIG    1        0.002  -0.004   0.002  0.00  0.00    -0.007 C 
ENDROOT
BRANCH   2   3
ATOM      3  C   LIG    1        0.718  -0.497  -1.257  0.00  0.00    -0.007 C 
ATOM      4  C   LIG    1        2.154   0.032  -1.268  0.00  0.00    +0.008 C 
BRANCH   3   5
ATOM      5  C   LIG    1        0.739  -2.027  -1.265  0.00  0.00    +0.038 C 
BRANCH   5   6
ATOM      6  C   LIG    1        1.334  -2.514  -2.561  0.00  0.00    -0.043 A 
ATOM      7  C   LIG    1        0.516  -2.744  -3.652  0.00  0.00    +0.007 A 
ATOM      8  C   LIG    1        1.057  -3.191  -4.843  0.00  0.00    +0.049 A 
ATOM      9  C   LIG    1        2.422  -3.409  -4.946  0.00  0.00    +0.158 A 
ATOM     10  C   LIG    1        3.245  -3.178  -3.848  0.00  0.00    +0.158 A 
ATOM     11  C   LIG    1        2.697  -2.725  -2.658  0.00  0.00    +0.052 A 
BRANCH   9  12
ATOM     12  O   LIG    1        2.955  -3.850  -6.117  0.00  0.00    -0.503 OA
ATOM     13  H   LIG    1        3.224  -3.141  -6.718  0.00  0.00    +0.292 HD
ENDBRANCH   9  12
BRANCH  10  14
ATOM     14  O   LIG    1        4.584  -3.391  -3.944  0.00  0.00    -0.503 OA
ATOM     15  H   LIG    1        5.086  -2.616  -4.233  0.00  0.00    +0.292 HD
ENDBRANCH  10  14
ENDBRANCH   5   6
ENDBRANCH   3   5
ENDBRANCH   2   3
BRANCH   2  16
ATOM     16  C   LIG    1       -1.433  -0.534   0.013  0.00  0.00    +0.038 C 
BRANCH  16  17
ATOM     17  C   LIG    1       -2.100  -0.151   1.309  0.00  0.00    -0.043 A 
ATOM     18  C   LIG    1       -2.020  -0.995   2.401  0.00  0.00    +0.007 A 
ATOM     19  C   LIG    1       -2.630  -0.648   3.592  0.00  0.00    +0.049 A 
ATOM     20  C   LIG    1       -3.323   0.547   3.694  0.00  0.00    +0.158 A 
ATOM     21  C   LIG    1       -3.404   1.396   2.595  0.00  0.00    +0.158 A 
ATOM     22  C   LIG    1       -2.786   1.045   1.405  0.00  0.00    +0.052 A 
BRANCH  20  23
ATOM     23  O   LIG    1       -3.924   0.889   4.865  0.00  0.00    -0.503 OA
ATOM     24  H   LIG    1       -3.358   1.395   5.464  0.00  0.00    +0.292 HD
ENDBRANCH  20  23
BRANCH  21  25
ATOM     25  O   LIG    1       -4.083   2.571   2.689  0.00  0.00    -0.503 OA
ATOM     26  H   LIG    1       -3.540   3.317   2.977  0.00  0.00    +0.292 HD
ENDBRANCH  21  25
ENDBRANCH  16  17
ENDBRANCH   2  16
TORSDOF 9
