REMARK  Name = ZINC29324836
REMARK                            x       y       z     vdW  Elec       q    Type
REMARK                         _______ _______ _______ _____ _____    ______ ____
ROOT
ATOM      1  C   LIG    1       -0.019   1.527   0.010  0.00  0.00    -0.016 C 
ATOM      2  C   LIG    1        1.419   2.051  -0.001  0.00  0.00    -0.081 C 
ATOM      3  N   LIG    1        2.107   1.577  -1.207  0.00  0.00    +0.388 N 
ATOM      4  H1  LIG    1        3.037   1.967  -1.238  0.00  0.00    -0.085 HD
ATOM      5  H2  LIG    1        1.594   1.871  -2.024  0.00  0.00    -0.085 HD
ATOM      6  CA  LIG    1        2.195   0.112  -1.186  0.00  0.00    +0.039 C 
ATOM      7  C   LIG    1        0.787  -0.487  -1.221  0.00  0.00    -0.001 C 
ATOM      8  C   LIG    1        0.002  -0.004   0.002  0.00  0.00    -0.014 C 
ENDROOT
BRANCH   6   9
ATOM      9  C   LIG    1        2.970  -0.362  -2.389  0.00  0.00    +0.291 C 
ATOM     10  O   LIG    1        3.409   0.447  -3.188  0.00  0.00    -0.253 OA
BRANCH   9  11
ATOM     11  OXT LIG    1        3.159  -1.554  -2.562  0.00  0.00    -0.482 OA
ATOM     12  HXT LIG    1        2.821  -2.176  -1.948  0.00  0.00    +0.295 HD
ENDBRANCH   9  11
ENDBRANCH   6   9
BRANCH   8  13
ATOM     13  C   LIG    1       -1.431  -0.535  -0.067  0.00  0.00    +0.004 C 
BRANCH  13  14
ATOM     14  C   LIG    1       -2.181  -0.148   1.209  0.00  0.00    +0.012 C 
BRANCH  14  15
ATOM     15  C   LIG    1       -3.614  -0.679   1.140  0.00  0.00    +0.127 C 
BRANCH  15  16
ATOM     16  P   LIG    1       -4.507  -0.218   2.661  0.00  0.00    +0.328 P 
ATOM     17  O   LIG    1       -3.722  -0.723   3.892  0.00  0.00    -0.259 OA
BRANCH  16  18
ATOM     18  O   LIG    1       -5.971  -0.886   2.647  0.00  0.00    -0.324 OA
ATOM     19  H   LIG    1       -6.504  -0.683   3.428  0.00  0.00    +0.220 HD
ENDBRANCH  16  18
BRANCH  16  20
ATOM     20  O   LIG    1       -4.643   1.320   2.732  0.00  0.00    -0.324 OA
ATOM     21  H   LIG    1       -3.761   1.722   2.741  0.00  0.00    +0.220 HD
ENDBRANCH  16  20
ENDBRANCH  15  16
ENDBRANCH  14  15
ENDBRANCH  13  14
ENDBRANCH   8  13
TORSDOF 8
