REMARK  Name = ZINC20621755
REMARK                            x       y       z     vdW  Elec       q    Type
REMARK                         _______ _______ _______ _____ _____    ______ ____
ROOT
ATOM      1  C   LIG    1       -2.508   1.294   0.021  0.00  0.00    +0.248 C 
ATOM      2  N   LIG    1       -3.681   1.958   0.030  0.00  0.00    -0.309 N 
ATOM      3  H   LIG    1       -3.690   3.058   0.036  0.00  0.00    +0.149 HD
ATOM      4  O   LIG    1       -2.497   0.078   0.014  0.00  0.00    -0.270 OA
ENDROOT
BRANCH   1  11
ATOM      5  C   LIG    1       -0.016   1.353   0.009  0.00  0.00    +0.134 A 
ATOM      6  C   LIG    1        1.171   2.064   0.002  0.00  0.00    +0.070 A 
ATOM      7  C   LIG    1        1.146   3.453   0.010  0.00  0.00    +0.047 A 
ATOM      8  C   LIG    1       -0.072   4.133   0.025  0.00  0.00    +0.062 A 
ATOM      9 CL   LIG    1       -0.091   5.869   0.035  0.00  0.00    -0.082 Cl
ATOM     10  C   LIG    1       -1.249   3.440   0.033  0.00  0.00    +0.038 A 
ATOM     11  C   LIG    1       -1.239   2.041   0.019  0.00  0.00    +0.080 A 
BRANCH   7  12
ATOM     12  N   LIG    1        2.339   4.168   0.003  0.00  0.00    -0.357 N 
ATOM     13  H   LIG    1        3.300   3.633  -0.009  0.00  0.00    +0.142 HD
ATOM     14  H   LIG    1        2.321   5.268   0.009  0.00  0.00    +0.142 HD
ENDBRANCH   7  12
BRANCH   5  15
ATOM     15  O   LIG    1        0.002  -0.004   0.002  0.00  0.00    -0.491 OA
BRANCH  15  17
ATOM     16  C   LIG    1        1.104  -2.155  -0.020  0.00  0.00    +0.048 C 
ATOM     17  C   LIG    1        1.284  -0.635  -0.014  0.00  0.00    +0.226 C 
ENDBRANCH  15  17
ENDBRANCH   5  15
ENDBRANCH   1  11
BRANCH   2  18
ATOM     18  C   LIG    1       -4.943   1.214   0.032  0.00  0.00    +0.137 C 
BRANCH  18  19
ATOM     19  C   LIG    1       -6.114   2.198   0.043  0.00  0.00    +0.149 C 
ATOM     20  C   LIG    1       -7.430   1.425   0.165  0.00  0.00    +0.118 C 
ATOM     21  N   LIG    1       -8.555   2.369   0.098  0.00  0.00    -0.293 NA
ATOM     22  C   LIG    1       -8.528   3.122  -1.165  0.00  0.00    +0.113 C 
ATOM     23  C   LIG    1       -7.202   3.878  -1.274  0.00  0.00    +0.175 C 
ATOM     24  O   LIG    1       -6.120   2.948  -1.175  0.00  0.00    -0.372 OA
BRANCH  21  25
ATOM     25  C   LIG    1       -9.838   1.673   0.268  0.00  0.00    +0.119 C 
BRANCH  25  26
ATOM     26  C   LIG    1      -10.941   2.686   0.431  0.00  0.00    -0.033 A 
ATOM     27  C   LIG    1      -11.287   3.134   1.693  0.00  0.00    +0.008 A 
ATOM     28  C   LIG    1      -12.295   4.067   1.843  0.00  0.00    +0.038 A 
ATOM     29  C   LIG    1      -12.967   4.544   0.731  0.00  0.00    +0.123 A 
ATOM     30  F   LIG    1      -13.957   5.452   0.877  0.00  0.00    -0.205 F 
ATOM     31  C   LIG    1      -12.624   4.090  -0.531  0.00  0.00    +0.038 A 
ATOM     32  C   LIG    1      -11.612   3.162  -0.680  0.00  0.00    +0.008 A 
ENDBRANCH  25  26
ENDBRANCH  21  25
ENDBRANCH  18  19
ENDBRANCH   2  18
TORSDOF 8
