REMARK  Name = ZINC24975985
REMARK                            x       y       z     vdW  Elec       q    Type
REMARK                         _______ _______ _______ _____ _____    ______ ____
ROOT
ATOM      1  N   LIG    1        1.143   1.901   0.001  0.00  0.00    -0.297 N 
ATOM      2  H   LIG    1        1.129   3.001   0.007  0.00  0.00    +0.151 HD
ATOM      3  C   LIG    1       -0.014   1.212   0.009  0.00  0.00    +0.300 C 
ATOM      4  N   LIG    1       -1.191   1.870   0.018  0.00  0.00    -0.297 N 
ATOM      5  H   LIG    1       -1.206   2.970   0.024  0.00  0.00    +0.151 HD
ATOM      6  O   LIG    1        0.002  -0.004   0.002  0.00  0.00    -0.253 OA
ENDROOT
BRANCH   1  12
ATOM      7  C   LIG    1        2.819   0.820   1.417  0.00  0.00    +0.025 C 
ATOM      8  C   LIG    1        4.155   0.073   1.400  0.00  0.00    +0.033 C 
ATOM      9  C   LIG    1        5.232   0.968   0.785  0.00  0.00    +0.115 C 
ATOM     10  C   LIG    1        4.835   1.335  -0.647  0.00  0.00    +0.033 C 
ATOM     11  C   LIG    1        3.499   2.082  -0.630  0.00  0.00    +0.025 C 
ATOM     12  C   LIG    1        2.422   1.186  -0.015  0.00  0.00    +0.075 C 
BRANCH   9  13
ATOM     13  O   LIG    1        6.479   0.271   0.769  0.00  0.00    -0.392 OA
ATOM     14  H   LIG    1        7.377   0.758   0.360  0.00  0.00    +0.210 HD
ENDBRANCH   9  13
ENDBRANCH   1  12
BRANCH   4  15
ATOM     15  C   LIG    1       -2.449   1.120   0.020  0.00  0.00    +0.075 C 
ATOM     16  C   LIG    1       -2.830   0.759  -1.417  0.00  0.00    +0.025 C 
ATOM     17  C   LIG    1       -4.144  -0.024  -1.415  0.00  0.00    +0.033 C 
ATOM     18  C   LIG    1       -5.249   0.835  -0.796  0.00  0.00    +0.115 C 
ATOM     19  C   LIG    1       -4.868   1.196   0.641  0.00  0.00    +0.033 C 
ATOM     20  C   LIG    1       -3.554   1.979   0.639  0.00  0.00    +0.025 C 
BRANCH  18  21
ATOM     21  O   LIG    1       -6.476   0.103  -0.794  0.00  0.00    -0.392 OA
ATOM     22  H   LIG    1       -7.389   0.562  -0.385  0.00  0.00    +0.210 HD
ENDBRANCH  18  21
ENDBRANCH   4  15
TORSDOF 4
