REMARK  Name = ZINC20148998
REMARK                            x       y       z     vdW  Elec       q    Type
REMARK                         _______ _______ _______ _____ _____    ______ ____
ROOT
ATOM      1  C   LIG    1        2.336   0.909  -0.613  0.00  0.00    +0.254 C 
ATOM      2  N   LIG    1        2.363  -0.294  -0.007  0.00  0.00    -0.281 N 
ATOM      3  H   LIG    1        1.554  -0.660   0.383  0.00  0.00    +0.155 HD
ATOM      4  O   LIG    1        3.312   1.307  -1.221  0.00  0.00    -0.270 OA
ENDROOT
BRANCH   1   7
ATOM      5  C   LIG    1       -0.041   3.798  -0.965  0.00  0.00    +0.019 A 
ATOM      6  C   LIG    1        1.125   3.038  -1.054  0.00  0.00    +0.020 A 
ATOM      7  C   LIG    1        1.127   1.742  -0.538  0.00  0.00    +0.102 A 
ATOM      8  C   LIG    1       -0.059   1.242   0.059  0.00  0.00    +0.268 A 
ATOM      9  N   LIG    1       -1.159   2.017   0.114  0.00  0.00    -0.284 N 
ATOM     10  O   LIG    1       -0.083   0.113   0.517  0.00  0.00    -0.267 OA
ATOM     11  C   LIG    1       -1.152   3.277  -0.385  0.00  0.00    +0.095 A 
BRANCH   9  12
ATOM     12  C   LIG    1       -2.327   1.514   0.701  0.00  0.00    +0.050 A 
ATOM     13  C   LIG    1       -3.454   1.286  -0.078  0.00  0.00    +0.029 A 
ATOM     14  C   LIG    1       -4.603   0.785   0.501  0.00  0.00    +0.040 A 
ATOM     15  C   LIG    1       -4.636   0.520   1.860  0.00  0.00    +0.124 A 
ATOM     16  F   LIG    1       -5.762   0.034   2.426  0.00  0.00    -0.205 F 
ATOM     17  C   LIG    1       -3.515   0.752   2.640  0.00  0.00    +0.040 A 
ATOM     18  C   LIG    1       -2.362   1.248   2.063  0.00  0.00    +0.029 A 
ENDBRANCH   9  12
ENDBRANCH   1   7
BRANCH   2  19
ATOM     19  C   LIG    1        3.560  -1.018   0.058  0.00  0.00    +0.037 A 
ATOM     20  C   LIG    1        4.774  -0.347   0.127  0.00  0.00    +0.027 A 
ATOM     21  C   LIG    1        5.955  -1.061   0.197  0.00  0.00    +0.051 A 
ATOM     22  C   LIG    1        5.930  -2.447   0.187  0.00  0.00    +0.164 A 
ATOM     23  C   LIG    1        4.716  -3.120   0.112  0.00  0.00    +0.167 A 
ATOM     24  F   LIG    1        4.692  -4.471   0.102  0.00  0.00    -0.202 F 
ATOM     25  C   LIG    1        3.534  -2.406   0.048  0.00  0.00    +0.065 A 
BRANCH  22  26
ATOM     26  O   LIG    1        7.093  -3.149   0.250  0.00  0.00    -0.452 OA
BRANCH  26  27
ATOM     27  C   LIG    1        7.615  -3.623  -0.909  0.00  0.00    +0.141 A 
ATOM     28  C   LIG    1        7.043  -3.305  -2.135  0.00  0.00    +0.066 A 
ATOM     29  C   LIG    1        7.604  -3.808  -3.295  0.00  0.00    +0.117 A 
ATOM     30  N   LIG    1        8.670  -4.582  -3.269  0.00  0.00    -0.237 NA
ATOM     31  C   LIG    1        9.261  -4.920  -2.128  0.00  0.00    +0.142 A 
ATOM     32  N   LIG    1       10.356  -5.695  -1.832  0.00  0.00    -0.346 N 
ATOM     33  H   LIG    1       10.909  -6.151  -2.486  0.00  0.00    +0.167 HD
ATOM     34  C   LIG    1       10.553  -5.730  -0.477  0.00  0.00    +0.085 A 
ATOM     35  C   LIG    1        9.613  -4.995   0.139  0.00  0.00    +0.032 A 
ATOM     36  C   LIG    1        8.752  -4.444  -0.908  0.00  0.00    +0.061 A 
ENDBRANCH  26  27
ENDBRANCH  22  26
ENDBRANCH   2  19
TORSDOF 5
