REMARK  Name = ZINC14628736
REMARK                            x       y       z     vdW  Elec       q    Type
REMARK                         _______ _______ _______ _____ _____    ______ ____
ROOT
ATOM      1  C   LIG    1       -0.044   1.113   0.412  0.00  0.00    +0.001 A 
ATOM      2  C   LIG    1       -1.242   1.801   0.413  0.00  0.00    +0.001 A 
ATOM      3  C   LIG    1       -1.258   3.183   0.291  0.00  0.00    +0.012 A 
ATOM      4  C   LIG    1       -0.064   3.878   0.158  0.00  0.00    +0.034 A 
ATOM      5  C   LIG    1        1.155   3.177   0.151  0.00  0.00    +0.034 A 
ATOM      6  C   LIG    1        2.425   3.925   0.008  0.00  0.00    +0.201 C 
ATOM      7  C   LIG    1        2.400   5.389  -0.127  0.00  0.00    +0.073 C 
ATOM      8  C   LIG    1        1.219   6.068  -0.121  0.00  0.00    +0.073 C 
ATOM      9  O   LIG    1        3.485   3.330   0.001  0.00  0.00    -0.286 OA
ATOM     10  C   LIG    1       -0.058   5.352   0.021  0.00  0.00    +0.201 C 
ATOM     11  O   LIG    1       -1.105   5.969   0.025  0.00  0.00    -0.286 OA
ATOM     12  C   LIG    1        1.156   1.794   0.279  0.00  0.00    +0.012 A 
ENDROOT
BRANCH   7  13
ATOM     13  S   LIG    1        3.914   6.275  -0.297  0.00  0.00    -0.109 S 
BRANCH  13  14
ATOM     14  C   LIG    1        4.770   5.988   1.276  0.00  0.00    +0.194 C 
BRANCH  14  15
ATOM     15  C   LIG    1        6.038   6.801   1.314  0.00  0.00    +0.315 C 
ATOM     16  O   LIG    1        6.286   7.575   0.420  0.00  0.00    -0.250 OA
BRANCH  15  17
ATOM     17  O   LIG    1        6.892   6.665   2.340  0.00  0.00    -0.480 OA
ATOM     18  H   LIG    1        6.700   6.064   3.033  0.00  0.00    +0.295 HD
ENDBRANCH  15  17
ENDBRANCH  14  15
ENDBRANCH  13  14
ENDBRANCH   7  13
BRANCH   8  19
ATOM     19  S   LIG    1        1.221   7.823  -0.284  0.00  0.00    -0.109 S 
BRANCH  19  20
ATOM     20  C   LIG    1        0.404   8.116  -1.877  0.00  0.00    +0.194 C 
BRANCH  20  21
ATOM     21  C   LIG    1        0.449   9.587  -2.201  0.00  0.00    +0.315 C 
ATOM     22  O   LIG    1        0.891  10.371  -1.394  0.00  0.00    -0.250 OA
BRANCH  21  23
ATOM     23  O   LIG    1       -0.000  10.027  -3.387  0.00  0.00    -0.480 OA
ATOM     24  H   LIG    1       -0.343   9.420  -4.013  0.00  0.00    +0.295 HD
ENDBRANCH  21  23
ENDBRANCH  20  21
ENDBRANCH  19  20
ENDBRANCH   8  19
TORSDOF 8
