REMARK  Name = ZINC28570580
REMARK                            x       y       z     vdW  Elec       q    Type
REMARK                         _______ _______ _______ _____ _____    ______ ____
ROOT
ATOM      1  C   UNK    1        0.127   0.993   2.862  0.00  0.00    +0.068 C 
ENDROOT
BRANCH   1   2
ATOM      2  S   UNK    1       -0.862   1.671   1.500  0.00  0.00    -0.156 S 
BRANCH   2   3
ATOM      3  C   UNK    1       -0.013   1.086   0.008  0.00  0.00    +0.104 C 
BRANCH   3   8
ATOM      4  C   UNK    1       -1.069   3.259  -2.897  0.00  0.00    +0.120 A 
ATOM      5  C   UNK    1       -2.084   2.496  -3.456  0.00  0.00    +0.045 A 
ATOM      6  C   UNK    1       -2.424   1.282  -2.892  0.00  0.00    +0.004 A 
ATOM      7  C   UNK    1       -1.750   0.824  -1.775  0.00  0.00    +0.004 A 
ATOM      8  C   UNK    1       -0.742   1.585  -1.213  0.00  0.00    -0.034 A 
ATOM      9  C   UNK    1       -0.398   2.800  -1.773  0.00  0.00    +0.050 A 
BRANCH   4  11
ATOM     10  C   UNK    1       -1.465   4.863  -4.607  0.00  0.00    +0.277 C 
ATOM     11  O   UNK    1       -0.732   4.454  -3.451  0.00  0.00    -0.495 OA
ENDBRANCH   4  11
ENDBRANCH   3   8
ENDBRANCH   2   3
ENDBRANCH   1   2
BRANCH   1  12
ATOM     12  C   UNK    1       -0.487   1.417   4.198  0.00  0.00    +0.005 C 
BRANCH  12  13
ATOM     13  C   UNK    1        0.347   0.845   5.346  0.00  0.00    +0.036 C 
BRANCH  13  14
ATOM     14  N   UNK    1        1.687   1.448   5.326  0.00  0.00    +0.387 N 
ATOM     15  H   UNK    1        2.177   1.220   4.368  0.00  0.00    -0.089 HD
ATOM     16  H   UNK    1        1.600   2.538   5.443  0.00  0.00    -0.089 HD
ATOM     17  H   UNK    1        2.286   1.037   6.152  0.00  0.00    -0.089 HD
ENDBRANCH  13  14
BRANCH  13  18
ATOM     18  C   UNK    1       -0.324   1.157   6.659  0.00  0.00    +0.290 C 
ATOM     19  O   UNK    1        0.066   2.082   7.332  0.00  0.00    -0.253 OA
BRANCH  18  20
ATOM     20  O   UNK    1       -1.356   0.409   7.080  0.00  0.00    -0.482 OA
ATOM     21  H   UNK    1       -1.658  -0.308   6.558  0.00  0.00    +0.295 HD
ENDBRANCH  18  20
ENDBRANCH  13  18
ENDBRANCH  12  13
ENDBRANCH   1  12
TORSDOF 9
