REMARK  Name = ZINC29345122
REMARK                            x       y       z     vdW  Elec       q    Type
REMARK                         _______ _______ _______ _____ _____    ______ ____
ROOT
ATOM      1  C   LIG    1       -3.595   3.571   1.215  0.00  0.00    +0.012 C 
ATOM      2  C   LIG    1       -2.911   2.207   1.098  0.00  0.00    -0.018 C 
ATOM      3  C   LIG    1       -1.637   2.308   0.302  0.00  0.00    +0.008 C 
ATOM      4  C   LIG    1       -1.885   2.046  -1.192  0.00  0.00    +0.005 C 
ATOM      5  C   LIG    1       -3.324   2.351  -1.569  0.00  0.00    +0.003 C 
ATOM      6  C   LIG    1       -4.271   1.373  -0.872  0.00  0.00    +0.000 C 
ATOM      7  C   LIG    1       -5.696   1.902  -1.054  0.00  0.00    +0.031 C 
ATOM      8  C   LIG    1       -5.963   1.793  -2.541  0.00  0.00    -0.023 C 
ATOM      9  C   LIG    1       -4.987   1.980  -3.421  0.00  0.00    -0.045 C 
ATOM     10  C   LIG    1       -5.277   1.792  -4.853  0.00  0.00    +0.014 C 
ATOM     11  C   LIG    1       -4.264   1.661  -5.728  0.00  0.00    +0.037 C 
ATOM     12  C   LIG    1       -2.818   1.668  -5.342  0.00  0.00    +0.043 C 
ATOM     13  C   LIG    1       -2.606   1.493  -3.841  0.00  0.00    +0.016 C 
ATOM     14  C   LIG    1       -3.579   2.366  -3.060  0.00  0.00    -0.004 C 
ATOM     15  C   LIG    1       -3.383   3.819  -3.514  0.00  0.00    +0.016 C 
ATOM     16  C   LIG    1       -2.727   1.683   2.541  0.00  0.00    +0.081 C 
ATOM     17  C   LIG    1       -4.149   1.210   2.936  0.00  0.00    +0.013 C 
ATOM     18  C   LIG    1       -4.950   1.072   1.611  0.00  0.00    +0.005 C 
ATOM     19  C   LIG    1       -3.853   1.122   0.537  0.00  0.00    -0.001 C 
ENDROOT
BRANCH  16  20
ATOM     20  C   LIG    1       -2.271   2.800   3.436  0.00  0.00    +0.217 C 
ATOM     21  N   LIG    1       -2.565   2.773   4.751  0.00  0.00    -0.310 N 
ATOM     22  H   LIG    1       -3.139   1.933   5.169  0.00  0.00    +0.149 HD
ATOM     23  O   LIG    1       -1.638   3.726   2.975  0.00  0.00    -0.275 OA
BRANCH  21  24
ATOM     24  C   LIG    1       -2.120   3.862   5.623  0.00  0.00    +0.026 C 
ATOM     25  C   LIG    1       -0.593   3.953   5.588  0.00  0.00    +0.031 C 
ATOM     26  C   LIG    1       -2.582   3.588   7.056  0.00  0.00    +0.031 C 
ATOM     27  C   LIG    1       -2.720   5.183   5.138  0.00  0.00    +0.031 C 
ENDBRANCH  21  24
ENDBRANCH  16  20
BRANCH  11  28
ATOM     28  C   LIG    1       -4.587   1.506  -7.101  0.00  0.00    +0.333 C 
ATOM     29  O   LIG    1       -5.750   1.496  -7.455  0.00  0.00    -0.245 OA
BRANCH  28  30
ATOM     30  O   LIG    1       -3.602   1.370  -8.014  0.00  0.00    -0.477 OA
ATOM     31  H   LIG    1       -2.706   1.378  -7.741  0.00  0.00    +0.295 HD
ENDBRANCH  28  30
ENDBRANCH  11  28
TORSDOF 4
