REMARK  Name = ZINC16123955
REMARK                            x       y       z     vdW  Elec       q    Type
REMARK                         _______ _______ _______ _____ _____    ______ ____
ROOT
ATOM      1  C   LIG    1        1.364  -2.647   2.235  0.00  0.00    -0.023 C 
ATOM      2  N   LIG    1        0.739  -2.069   3.440  0.00  0.00    +0.385 N 
ATOM      3  H   LIG    1        0.770  -1.044   3.379  0.00  0.00    -0.085 HD
ATOM      4  H   LIG    1       -0.238  -2.379   3.495  0.00  0.00    -0.085 HD
ATOM      5  C   LIG    1        1.457  -2.506   4.652  0.00  0.00    -0.048 C 
ATOM      6  C   LIG    1        1.374  -4.029   4.781  0.00  0.00    +0.128 C 
ATOM      7  C   LIG    1        2.003  -4.675   3.544  0.00  0.00    +0.168 C 
ATOM      8  C   LIG    1        1.279  -4.174   2.291  0.00  0.00    +0.133 C 
ENDROOT
BRANCH   6   9
ATOM      9  O   LIG    1        2.081  -4.448   5.950  0.00  0.00    -0.391 OA
ATOM     10  H   LIG    1        1.737  -4.074   6.772  0.00  0.00    +0.210 HD
ENDBRANCH   6   9
BRANCH   7  11
ATOM     11  O   LIG    1        1.878  -6.096   3.631  0.00  0.00    -0.387 OA
ATOM     12  H   LIG    1        2.310  -6.482   4.405  0.00  0.00    +0.210 HD
ENDBRANCH   7  11
BRANCH   8  13
ATOM     13  O   LIG    1        1.896  -4.730   1.128  0.00  0.00    -0.391 OA
ATOM     14  H   LIG    1        1.878  -5.696   1.097  0.00  0.00    +0.210 HD
ENDBRANCH   8  13
BRANCH   1  15
ATOM     15  C   LIG    1        0.624  -2.140   0.996  0.00  0.00    +0.091 C 
BRANCH  15  18
ATOM     16  C   LIG    1       -0.018   1.503   0.010  0.00  0.00    +0.109 C 
ATOM     17  C   LIG    1        0.002  -0.004   0.002  0.00  0.00    +0.210 C 
ATOM     18  N   LIG    1        0.604  -0.675   1.004  0.00  0.00    -0.317 N 
ATOM     19  H   LIG    1        1.025  -0.189   1.730  0.00  0.00    +0.149 HD
ATOM     20  O   LIG    1       -0.523  -0.613  -0.906  0.00  0.00    -0.276 OA
ENDBRANCH  15  18
ENDBRANCH   1  15
TORSDOF 5
