REMARK  Name = ZINC22779407
REMARK                            x       y       z     vdW  Elec       q    Type
REMARK                         _______ _______ _______ _____ _____    ______ ____
ROOT
ATOM      1  C   LIG    1       -2.554   3.867   0.046  0.00  0.00    +0.121 C 
ENDROOT
BRANCH   1   2
ATOM      2  C   LIG    1       -1.239   3.133   0.030  0.00  0.00    -0.002 A 
ATOM      3  C   LIG    1       -0.052   3.841   0.022  0.00  0.00    +0.027 A 
ATOM      4  C   LIG    1        1.156   3.167   0.008  0.00  0.00    +0.041 A 
ATOM      5 CL   LIG    1        2.647   4.055  -0.003  0.00  0.00    -0.084 Cl
ATOM      6  C   LIG    1        1.175   1.783   0.000  0.00  0.00    +0.022 A 
ATOM      7  C   LIG    1       -0.013   1.076   0.008  0.00  0.00    +0.034 A 
ATOM      8  C   LIG    1       -1.219   1.751   0.017  0.00  0.00    +0.126 A 
BRANCH   8   9
ATOM      9  N   LIG    1       -2.491   0.993   0.019  0.00  0.00    +0.006 N 
ATOM     10  O   LIG    1       -2.474  -0.225   0.013  0.00  0.00    -0.130 OA
BRANCH   9  11
ATOM     11  O   LIG    1       -3.554   1.587   0.028  0.00  0.00    -0.396 OA
ATOM     12  H   LIG    1       -3.567   2.524   0.033  0.00  0.00    +0.329 HD
ENDBRANCH   9  11
ENDBRANCH   8   9
ENDBRANCH   1   2
BRANCH   1  13
ATOM     13  N   LIG    1       -3.086   3.889   1.415  0.00  0.00    -0.298 NA
ATOM     14  C   LIG    1       -2.229   4.688   2.301  0.00  0.00    +0.105 C 
BRANCH  13  20
ATOM     15  C   LIG    1       -7.743   6.874   2.601  0.00  0.00    -0.096 C 
ATOM     16  N   LIG    1       -6.421   6.252   2.455  0.00  0.00    +0.378 N 
ATOM     17  H   LIG    1       -5.719   6.788   3.111  0.00  0.00    -0.082 HD
ATOM     18  C   LIG    1       -6.450   4.848   2.883  0.00  0.00    -0.078 C 
ATOM     19  C   LIG    1       -5.031   4.275   2.856  0.00  0.00    +0.000 C 
ATOM     20  C   LIG    1       -4.469   4.383   1.435  0.00  0.00    +0.053 C 
ATOM     21  C   LIG    1       -4.495   5.850   0.996  0.00  0.00    +0.000 C 
ATOM     22  C   LIG    1       -5.929   6.377   1.077  0.00  0.00    -0.078 C 
ENDBRANCH  13  20
ENDBRANCH   1  13
TORSDOF 5
