REMARK  Name = ZINC00003189
REMARK                            x       y       z     vdW  Elec       q    Type
REMARK                         _______ _______ _______ _____ _____    ______ ____
ROOT
ATOM      1  C   LIG    1        2.378   1.412  -0.013  0.00  0.00    +0.005 A 
ATOM      2  C   LIG    1        1.172   2.088   0.002  0.00  0.00    +0.022 A 
ATOM      3  C   LIG    1       -0.017   1.381   0.010  0.00  0.00    +0.059 A 
ATOM      4 CL   LIG    1       -1.532   2.229   0.021  0.00  0.00    -0.082 Cl
ATOM      5  C   LIG    1        0.002  -0.004   0.002  0.00  0.00    +0.060 A 
ATOM      6 CL   LIG    1       -1.489  -0.893   0.011  0.00  0.00    -0.082 Cl
ATOM      7  C   LIG    1        1.210  -0.678  -0.013  0.00  0.00    +0.025 A 
ATOM      8  C   LIG    1        2.397   0.030  -0.021  0.00  0.00    -0.041 A 
ENDROOT
BRANCH   8   9
ATOM      9  C   LIG    1        3.712  -0.705  -0.037  0.00  0.00    -0.018 C 
ATOM     10  C   LIG    1        4.573  -0.682  -1.302  0.00  0.00    +0.012 C 
ATOM     11  C   LIG    1        3.900  -1.859   0.972  0.00  0.00    -0.071 C 
ATOM     12  N   LIG    1        5.356  -2.066   0.979  0.00  0.00    +0.380 N 
ATOM     13  H   LIG    1        5.642  -2.610   0.156  0.00  0.00    -0.086 HD
ATOM     14  H   LIG    1        5.640  -2.562   1.832  0.00  0.00    -0.086 HD
ATOM     15  C   LIG    1        5.958  -0.735   0.941  0.00  0.00    -0.078 C 
ATOM     16  C   LIG    1        5.061   0.043  -0.046  0.00  0.00    -0.019 C 
ENDBRANCH   8   9
TORSDOF 1
