REMARK  Name = ZINC15974495
REMARK                            x       y       z     vdW  Elec       q    Type
REMARK                         _______ _______ _______ _____ _____    ______ ____
ROOT
ATOM      1  C   LIG    1       -0.013   1.086   0.008  0.00  0.00    +0.155 C 
ATOM      2  N   LIG    1       -0.721   1.571  -1.179  0.00  0.00    -0.280 N 
ATOM      3  C   LIG    1       -0.041   1.816  -2.314  0.00  0.00    +0.333 A 
ATOM      4  O   LIG    1        1.160   1.629  -2.338  0.00  0.00    -0.246 OA
ATOM      5  N   LIG    1       -0.657   2.257  -3.425  0.00  0.00    -0.262 N 
ATOM      6  C   LIG    1        0.130   2.502  -4.636  0.00  0.00    +0.157 C 
ATOM      7  C   LIG    1       -1.987   2.482  -3.439  0.00  0.00    +0.282 A 
ATOM      8  O   LIG    1       -2.532   2.887  -4.451  0.00  0.00    -0.265 OA
ATOM      9  C   LIG    1       -2.739   2.245  -2.271  0.00  0.00    +0.149 A 
ATOM     10  N   LIG    1       -4.076   2.364  -1.940  0.00  0.00    -0.332 N 
ATOM     11  C   LIG    1       -4.195   1.980  -0.639  0.00  0.00    +0.145 A 
ATOM     12  N   LIG    1       -3.009   1.639  -0.174  0.00  0.00    -0.210 NA
ATOM     13  H   LIG    1       -4.791   2.664  -2.523  0.00  0.00    +0.168 HD
ATOM     14  C   LIG    1       -2.091   1.783  -1.129  0.00  0.00    +0.168 A 
ENDROOT
BRANCH  11  15
ATOM     15  C   LIG    1       -5.455   1.950   0.131  0.00  0.00    +0.059 A 
ATOM     16  C   LIG    1       -6.655   2.330  -0.472  0.00  0.00    +0.015 A 
ATOM     17  C   LIG    1       -7.828   2.299   0.252  0.00  0.00    +0.001 A 
ATOM     18  C   LIG    1       -7.821   1.893   1.576  0.00  0.00    +0.004 A 
ATOM     19  C   LIG    1       -6.640   1.516   2.184  0.00  0.00    +0.046 A 
ATOM     20  C   LIG    1       -5.453   1.535   1.469  0.00  0.00    +0.127 A 
BRANCH  20  21
ATOM     21  O   LIG    1       -4.292   1.158   2.064  0.00  0.00    -0.506 OA
ATOM     22  H   LIG    1       -3.491   1.172   1.579  0.00  0.00    +0.292 HD
ENDBRANCH  20  21
ENDBRANCH  11  15
TORSDOF 2
