REMARK  Name = ZINC26391399
REMARK                            x       y       z     vdW  Elec       q    Type
REMARK                         _______ _______ _______ _____ _____    ______ ____
ROOT
ATOM      1  C   LIG    1       -0.942   3.946  -2.349  0.00  0.00    +0.039 C 
ATOM      2  C   LIG    1       -0.979   3.074  -1.121  0.00  0.00    -0.061 C 
ATOM      3  C   LIG    1       -1.218   3.606   0.074  0.00  0.00    +0.093 C 
ATOM      4  C   LIG    1       -1.248   2.729   1.260  0.00  0.00    +0.261 C 
ATOM      5  N   LIG    1       -0.691   1.554   1.216  0.00  0.00    -0.276 N 
ATOM      6  H   LIG    1       -0.725   0.895   2.096  0.00  0.00    +0.304 HD
ATOM      7  C   LIG    1       -0.013   1.086   0.008  0.00  0.00    +0.238 C 
ATOM      8  C   LIG    1       -0.745   1.589  -1.235  0.00  0.00    +0.076 C 
ENDROOT
BRANCH   4   9
ATOM      9  N   LIG    1       -1.871   3.153   2.415  0.00  0.00    -0.250 N 
ATOM     10  H   LIG    1       -2.345   4.145   2.452  0.00  0.00    +0.288 HD
ATOM     11  H   LIG    1       -1.894   2.500   3.300  0.00  0.00    +0.288 HD
ENDBRANCH   4   9
TORSDOF 1
