REMARK  Name = ZINC43121559
REMARK                            x       y       z     vdW  Elec       q    Type
REMARK                         _______ _______ _______ _____ _____    ______ ____
ROOT
ATOM      1  C   LIG    1        3.699  -0.689  -0.037  0.00  0.00    +0.001 A 
ATOM      2  C   LIG    1        3.732  -2.083  -0.051  0.00  0.00    +0.022 A 
ATOM      3  C   LIG    1        4.976  -2.707  -0.066  0.00  0.00    +0.027 A 
ATOM      4  C   LIG    1        5.419  -4.110  -0.083  0.00  0.00    +0.009 A 
ATOM      5  C   LIG    1        6.775  -4.086  -0.093  0.00  0.00    +0.093 A 
ATOM      6  N   LIG    1        7.214  -2.794  -0.084  0.00  0.00    -0.345 N 
ATOM      7  H   LIG    1        8.146  -2.525  -0.088  0.00  0.00    +0.167 HD
ATOM      8  C   LIG    1        6.147  -1.926  -0.068  0.00  0.00    +0.139 A 
ATOM      9  N   LIG    1        6.062  -0.602  -0.054  0.00  0.00    -0.237 NA
ATOM     10  C   LIG    1        4.903   0.019  -0.045  0.00  0.00    +0.121 A 
ENDROOT
BRANCH   1  14
ATOM     11  C   LIG    1       -0.017   1.379   0.010  0.00  0.00    +0.000 A 
ATOM     12  C   LIG    1        1.169   2.092   0.002  0.00  0.00    +0.001 A 
ATOM     13  C   LIG    1        2.377   1.426  -0.013  0.00  0.00    +0.008 A 
ATOM     14  C   LIG    1        2.402   0.033  -0.021  0.00  0.00    -0.016 A 
ATOM     15  C   LIG    1        1.205  -0.680  -0.013  0.00  0.00    +0.008 A 
ATOM     16  C   LIG    1        0.002  -0.004   0.002  0.00  0.00    +0.001 A 
ENDBRANCH   1  14
BRANCH   4  17
ATOM     17  C   LIG    1        4.554  -5.312  -0.087  0.00  0.00    -0.016 A 
ATOM     18  C   LIG    1        3.520  -5.431   0.843  0.00  0.00    +0.009 A 
ATOM     19  C   LIG    1        2.716  -6.548   0.839  0.00  0.00    +0.012 A 
ATOM     20  C   LIG    1        2.935  -7.562  -0.095  0.00  0.00    +0.021 A 
ATOM     21  C   LIG    1        3.970  -7.443  -1.025  0.00  0.00    +0.012 A 
ATOM     22  C   LIG    1        4.770  -6.324  -1.024  0.00  0.00    +0.009 A 
BRANCH  20  23
ATOM     23  C   LIG    1        2.072  -8.763  -0.098  0.00  0.00    +0.179 A 
ATOM     24  N   LIG    1        1.048  -9.013   0.720  0.00  0.00    -0.239 N 
ATOM     25  H   LIG    1        0.725  -8.429   1.444  0.00  0.00    +0.192 HD
ATOM     26  N   LIG    1        0.559 -10.160   0.390  0.00  0.00    -0.046 NA
ATOM     27  N   LIG    1        1.230 -10.639  -0.598  0.00  0.00    -0.023 NA
ATOM     28  N   LIG    1        2.160  -9.808  -0.925  0.00  0.00    -0.108 NA
ENDBRANCH  20  23
ENDBRANCH   4  17
TORSDOF 3
