REMARK  Name = ZINC20509316
REMARK                            x       y       z     vdW  Elec       q    Type
REMARK                         _______ _______ _______ _____ _____    ______ ____
ROOT
ATOM      1  C   LIG    1        1.207   4.808   1.243  0.00  0.00    +0.217 C 
ATOM      2  N   LIG    1        0.327   4.267   0.378  0.00  0.00    -0.299 N 
ATOM      3  C   LIG    1        0.236   2.809   0.205  0.00  0.00    +0.123 C 
ATOM      4  C   LIG    1        0.324   2.490  -1.291  0.00  0.00    +0.104 C 
ATOM      5  N   LIG    1       -0.692   3.265  -2.015  0.00  0.00    -0.289 NA
ATOM      6  C   LIG    1       -0.448   4.709  -1.891  0.00  0.00    +0.104 C 
ATOM      7  C   LIG    1       -0.568   5.120  -0.420  0.00  0.00    +0.123 C 
ATOM      8  O   LIG    1        1.269   6.012   1.372  0.00  0.00    -0.276 OA
ENDROOT
BRANCH   1   9
ATOM      9  C   LIG    1        2.115   3.915   2.050  0.00  0.00    +0.108 C 
BRANCH   9  10
ATOM     10  C   LIG    1        3.009   4.774   2.947  0.00  0.00    +0.058 C 
BRANCH  10  14
ATOM     11  C   LIG    1        0.598   6.826   5.815  0.00  0.00    +0.000 A 
ATOM     12  C   LIG    1        0.484   5.456   5.670  0.00  0.00    +0.000 A 
ATOM     13  C   LIG    1        1.264   4.792   4.741  0.00  0.00    +0.004 A 
ATOM     14  C   LIG    1        2.158   5.498   3.958  0.00  0.00    -0.040 A 
ATOM     15  C   LIG    1        2.276   6.867   4.108  0.00  0.00    +0.004 A 
ATOM     16  C   LIG    1        1.493   7.532   5.032  0.00  0.00    +0.000 A 
ENDBRANCH  10  14
BRANCH  10  17
ATOM     17  C   LIG    1        3.999   3.892   3.662  0.00  0.00    -0.040 A 
ATOM     18  C   LIG    1        3.557   2.789   4.369  0.00  0.00    +0.004 A 
ATOM     19  C   LIG    1        4.466   1.976   5.021  0.00  0.00    +0.000 A 
ATOM     20  C   LIG    1        5.815   2.273   4.975  0.00  0.00    +0.000 A 
ATOM     21  C   LIG    1        6.256   3.379   4.273  0.00  0.00    +0.000 A 
ATOM     22  C   LIG    1        5.348   4.188   3.616  0.00  0.00    +0.004 A 
ENDBRANCH  10  17
ENDBRANCH   9  10
ENDBRANCH   1   9
BRANCH   5  23
ATOM     23  C   LIG    1       -0.756   2.861  -3.426  0.00  0.00    +0.117 C 
BRANCH  23  24
ATOM     24  C   LIG    1       -1.810   3.673  -4.133  0.00  0.00    -0.026 A 
ATOM     25  C   LIG    1       -3.050   3.855  -3.550  0.00  0.00    +0.005 A 
ATOM     26  C   LIG    1       -4.016   4.604  -4.197  0.00  0.00    +0.000 A 
ATOM     27  C   LIG    1       -3.744   5.162  -5.432  0.00  0.00    +0.000 A 
ATOM     28  C   LIG    1       -2.507   4.976  -6.018  0.00  0.00    +0.000 A 
ATOM     29  C   LIG    1       -1.539   4.231  -5.369  0.00  0.00    +0.005 A 
ENDBRANCH  23  24
BRANCH  23  30
ATOM     30  C   LIG    1       -1.106   1.398  -3.514  0.00  0.00    -0.026 A 
ATOM     31  C   LIG    1       -2.136   0.886  -2.748  0.00  0.00    +0.005 A 
ATOM     32  C   LIG    1       -2.460  -0.455  -2.832  0.00  0.00    +0.000 A 
ATOM     33  C   LIG    1       -1.747  -1.286  -3.675  0.00  0.00    +0.000 A 
ATOM     34  C   LIG    1       -0.713  -0.776  -4.438  0.00  0.00    +0.000 A 
ATOM     35  C   LIG    1       -0.393   0.567  -4.357  0.00  0.00    +0.005 A 
ENDBRANCH  23  30
ENDBRANCH   5  23
TORSDOF 7
