REMARK  Name = ZINC34894468
REMARK                            x       y       z     vdW  Elec       q    Type
REMARK                         _______ _______ _______ _____ _____    ______ ____
ROOT
ATOM      1  N   LIG    1        0.688  -0.476  -1.203  0.00  0.00    -0.319 N 
ATOM      2  C   LIG    1        0.108  -0.745  -2.422  0.00  0.00    +0.116 A 
ATOM      3  C   LIG    1       -1.188  -0.685  -2.933  0.00  0.00    +0.164 A 
ATOM      4  C   LIG    1       -1.407  -1.042  -4.253  0.00  0.00    +0.160 A 
ATOM      5  N   LIG    1       -0.416  -1.437  -5.031  0.00  0.00    -0.241 NA
ATOM      6  C   LIG    1        0.836  -1.514  -4.600  0.00  0.00    +0.141 A 
ATOM      7  C   LIG    1        1.149  -1.169  -3.269  0.00  0.00    +0.127 A 
ATOM      8  N   LIG    1        2.285  -1.140  -2.550  0.00  0.00    -0.223 NA
ATOM      9  C   LIG    1        2.028  -0.729  -1.332  0.00  0.00    +0.167 A 
ENDROOT
BRANCH   9  10
ATOM     10  C   LIG    1        3.032  -0.566  -0.258  0.00  0.00    +0.190 A 
ATOM     11  C   LIG    1        4.472  -0.825  -0.380  0.00  0.00    +0.191 A 
ATOM     12  N   LIG    1        5.034  -0.571   0.770  0.00  0.00    -0.033 NA
ATOM     13  O   LIG    1        4.021  -0.147   1.665  0.00  0.00    -0.240 OA
ATOM     14  N   LIG    1        2.792  -0.159   0.962  0.00  0.00    -0.044 NA
BRANCH  11  15
ATOM     15  N   LIG    1        5.125  -1.267  -1.524  0.00  0.00    -0.339 N 
ATOM     16  H   LIG    1        6.084  -1.412  -1.509  0.00  0.00    +0.144 HD
ATOM     17  H   LIG    1        4.622  -1.431  -2.337  0.00  0.00    +0.144 HD
ENDBRANCH  11  15
ENDBRANCH   9  10
BRANCH   1  19
ATOM     18  C   LIG    1       -0.019   1.526   0.010  0.00  0.00    +0.027 C 
ATOM     19  C   LIG    1        0.002  -0.004   0.002  0.00  0.00    +0.120 C 
ENDBRANCH   1  19
BRANCH   6  20
ATOM     20  C   LIG    1        1.872  -1.950  -5.488  0.00  0.00    -0.041 C 
ATOM     21  C   LIG    1        2.721  -2.307  -6.216  0.00  0.00    -0.061 C 
BRANCH  21  22
ATOM     22  C   LIG    1        3.786  -2.755  -7.128  0.00  0.00    +0.121 C 
ATOM     23  C   LIG    1        3.475  -4.170  -7.619  0.00  0.00    +0.055 C 
ATOM     24  C   LIG    1        5.125  -2.754  -6.389  0.00  0.00    +0.055 C 
BRANCH  22  25
ATOM     25  O   LIG    1        3.858  -1.868  -8.247  0.00  0.00    -0.377 OA
ATOM     26  H   LIG    1        4.540  -2.103  -8.891  0.00  0.00    +0.211 HD
ENDBRANCH  22  25
ENDBRANCH  21  22
ENDBRANCH   6  20
BRANCH   3  27
ATOM     27  O   LIG    1       -2.222  -0.281  -2.148  0.00  0.00    -0.488 OA
BRANCH  27  28
ATOM     28  C   LIG    1       -3.518  -0.247  -2.748  0.00  0.00    +0.231 C 
BRANCH  28  29
ATOM     29  C   LIG    1       -4.545   0.228  -1.718  0.00  0.00    +0.009 C 
ATOM     30  C   LIG    1       -4.651  -0.802  -0.589  0.00  0.00    +0.003 C 
ATOM     31  C   LIG    1       -5.736  -0.356   0.396  0.00  0.00    -0.019 C 
ATOM     32  C   LIG    1       -7.057  -0.181  -0.355  0.00  0.00    -0.083 C 
ATOM     33  N   LIG    1       -6.898   0.834  -1.404  0.00  0.00    +0.379 N 
ATOM     34  H   LIG    1       -6.585   1.698  -0.988  0.00  0.00    -0.086 HD
ATOM     35  H   LIG    1       -7.785   0.985  -1.861  0.00  0.00    -0.086 HD
ATOM     36  C   LIG    1       -5.911   0.381  -2.391  0.00  0.00    -0.076 C 
ENDBRANCH  28  29
ENDBRANCH  27  28
ENDBRANCH   3  27
TORSDOF 9
