REMARK  Name = ZINC26920281
REMARK                            x       y       z     vdW  Elec       q    Type
REMARK                         _______ _______ _______ _____ _____    ______ ____
ROOT
ATOM      1  N   LIG    1        7.255   4.629   2.629  0.00  0.00    -0.224 N 
ATOM      2  C   LIG    1        6.926   4.396   1.369  0.00  0.00    +0.261 C 
ATOM      3  C   LIG    1        5.656   3.680   1.139  0.00  0.00    +0.080 C 
ATOM      4  S   LIG    1        5.095   3.443   2.820  0.00  0.00    -0.026 S 
ATOM      5  C   LIG    1        5.072   3.309  -0.029  0.00  0.00    +0.028 C 
ATOM      6  O   LIG    1        7.635   4.755   0.447  0.00  0.00    -0.269 OA
ATOM      7  C   LIG    1        6.468   4.230   3.648  0.00  0.00    +0.286 C 
ATOM      8  O   LIG    1        6.646   4.376   4.842  0.00  0.00    -0.262 OA
ENDROOT
BRANCH   5   9
ATOM      9  C   LIG    1        3.892   2.434  -0.014  0.00  0.00    -0.024 A 
ATOM     10  C   LIG    1        3.178   2.197  -1.195  0.00  0.00    +0.011 A 
ATOM     11  C   LIG    1        2.073   1.376  -1.175  0.00  0.00    +0.046 A 
ATOM     12  C   LIG    1        1.666   0.783   0.014  0.00  0.00    +0.117 A 
ATOM     13  C   LIG    1        2.367   1.020   1.191  0.00  0.00    +0.046 A 
ATOM     14  C   LIG    1        3.477   1.834   1.182  0.00  0.00    +0.011 A 
BRANCH  12  15
ATOM     15  O   LIG    1        0.575  -0.025   0.028  0.00  0.00    -0.507 OA
ATOM     16  H   LIG    1        0.251  -0.496   0.968  0.00  0.00    +0.292 HD
ENDBRANCH  12  15
ENDBRANCH   5   9
BRANCH   1  17
ATOM     17  C   LIG    1        8.504   5.335   2.924  0.00  0.00    +0.152 C 
BRANCH  17  23
ATOM     18  C   LIG    1        8.358   7.580   1.826  0.00  0.00    +0.006 A 
ATOM     19  C   LIG    1        8.114   8.937   1.866  0.00  0.00    +0.015 A 
ATOM     20  C   LIG    1        7.761   9.544   3.073  0.00  0.00    +0.059 A 
ATOM     21  C   LIG    1        7.650   8.771   4.230  0.00  0.00    +0.015 A 
ATOM     22  C   LIG    1        7.891   7.414   4.175  0.00  0.00    +0.006 A 
ATOM     23  C   LIG    1        8.242   6.819   2.976  0.00  0.00    -0.030 A 
BRANCH  20  24
ATOM     24  C   LIG    1        7.505  10.998   3.124  0.00  0.00    +0.337 C 
ATOM     25  O   LIG    1        7.198  11.524   4.175  0.00  0.00    -0.245 OA
BRANCH  24  26
ATOM     26  O   LIG    1        7.612  11.741   2.006  0.00  0.00    -0.477 OA
ATOM     27  H   LIG    1        7.849  11.336   1.195  0.00  0.00    +0.295 HD
ENDBRANCH  24  26
ENDBRANCH  20  24
ENDBRANCH  17  23
ENDBRANCH   1  17
TORSDOF 6
