REMARK  Name = ZINC29485680
REMARK                            x       y       z     vdW  Elec       q    Type
REMARK                         _______ _______ _______ _____ _____    ______ ____
ROOT
ATOM      1  C   LIG    1        0.739  -2.004  -1.265  0.00  0.00    +0.062 A 
ATOM      2  N   LIG    1        1.736  -2.794  -0.827  0.00  0.00    -0.279 N 
ATOM      3  H   LIG    1        2.566  -2.462  -0.451  0.00  0.00    +0.189 HD
ATOM      4  N   LIG    1        1.456  -4.042  -0.963  0.00  0.00    -0.167 NA
ATOM      5  C   LIG    1        0.269  -4.196  -1.504  0.00  0.00    +0.172 A 
ATOM      6  C   LIG    1       -0.584  -5.313  -1.905  0.00  0.00    +0.244 A 
ATOM      7  N   LIG    1       -1.760  -5.027  -2.436  0.00  0.00    -0.191 NA
ATOM      8  C   LIG    1       -2.176  -3.772  -2.611  0.00  0.00    +0.168 A 
ATOM      9  N   LIG    1       -1.474  -2.709  -2.279  0.00  0.00    -0.224 NA
ATOM     10  C   LIG    1       -0.258  -2.836  -1.728  0.00  0.00    +0.119 A 
ENDROOT
BRANCH   8  11
ATOM     11  C   LIG    1       -3.511  -3.561  -3.216  0.00  0.00    +0.061 A 
ATOM     12  C   LIG    1       -3.989  -2.268  -3.424  0.00  0.00    +0.015 A 
ATOM     13  C   LIG    1       -5.234  -2.077  -3.988  0.00  0.00    +0.001 A 
ATOM     14  C   LIG    1       -6.011  -3.165  -4.347  0.00  0.00    +0.004 A 
ATOM     15  C   LIG    1       -5.548  -4.451  -4.145  0.00  0.00    +0.046 A 
ATOM     16  C   LIG    1       -4.296  -4.658  -3.586  0.00  0.00    +0.128 A 
BRANCH  16  17
ATOM     17  O   LIG    1       -3.837  -5.921  -3.392  0.00  0.00    -0.506 OA
ATOM     18  H   LIG    1       -4.070  -6.296  -2.531  0.00  0.00    +0.292 HD
ENDBRANCH  16  17
ENDBRANCH   8  11
BRANCH   6  19
ATOM     19  O   LIG    1       -0.184  -6.594  -1.738  0.00  0.00    -0.491 OA
ATOM     20  H   LIG    1        0.653  -6.778  -1.360  0.00  0.00    +0.294 HD
ENDBRANCH   6  19
BRANCH   1  21
ATOM     21  C   LIG    1        0.718  -0.497  -1.257  0.00  0.00    +0.057 C 
BRANCH  21  23
ATOM     22  C   LIG    1       -0.019   1.526   0.010  0.00  0.00    +0.004 C 
ATOM     23  C   LIG    1        0.002  -0.004   0.002  0.00  0.00    +0.003 C 
ENDBRANCH  21  23
ENDBRANCH   1  21
TORSDOF 5
