REMARK  Name = ZINC16052730
REMARK                            x       y       z     vdW  Elec       q    Type
REMARK                         _______ _______ _______ _____ _____    ______ ____
ROOT
ATOM      1  C   LIG    1        2.016   4.967   0.006  0.00  0.00    +0.129 A 
ATOM      2  C   LIG    1        0.676   5.363   0.034  0.00  0.00    +0.047 A 
ATOM      3  C   LIG    1       -0.325   4.441   0.089  0.00  0.00    +0.013 A 
ATOM      4  C   LIG    1       -0.011   3.075   0.118  0.00  0.00    -0.006 A 
ATOM      5  C   LIG    1        1.346   2.669   0.089  0.00  0.00    -0.014 A 
ATOM      6  C   LIG    1        1.660   1.298   0.118  0.00  0.00    +0.008 A 
ATOM      7  C   LIG    1        0.664   0.369   0.172  0.00  0.00    +0.001 A 
ATOM      8  C   LIG    1       -0.672   0.748   0.195  0.00  0.00    +0.014 A 
ATOM      9  C   LIG    1       -1.028   2.089   0.175  0.00  0.00    +0.045 A 
ATOM     10  C   LIG    1        2.356   3.644   0.033  0.00  0.00    +0.054 A 
ENDROOT
BRANCH   9  11
ATOM     11  C   LIG    1       -2.448   2.484   0.205  0.00  0.00    +0.249 C 
ATOM     12  N   LIG    1       -3.404   1.548   0.365  0.00  0.00    -0.281 N 
ATOM     13  H   LIG    1       -3.167   0.608   0.372  0.00  0.00    +0.155 HD
ATOM     14  O   LIG    1       -2.756   3.654   0.085  0.00  0.00    -0.270 OA
BRANCH  12  15
ATOM     15  C   LIG    1       -4.740   1.933   0.521  0.00  0.00    +0.034 A 
ATOM     16  C   LIG    1       -5.048   3.178   1.053  0.00  0.00    +0.025 A 
ATOM     17  C   LIG    1       -6.368   3.558   1.201  0.00  0.00    +0.022 A 
ATOM     18  C   LIG    1       -7.383   2.693   0.830  0.00  0.00    +0.041 A 
ATOM     19 CL   LIG    1       -9.041   3.171   1.024  0.00  0.00    -0.084 Cl
ATOM     20  C   LIG    1       -7.079   1.450   0.305  0.00  0.00    +0.022 A 
ATOM     21  C   LIG    1       -5.761   1.068   0.149  0.00  0.00    +0.025 A 
ENDBRANCH  12  15
ENDBRANCH   9  11
BRANCH   1  22
ATOM     22  O   LIG    1        2.993   5.909  -0.049  0.00  0.00    -0.455 OA
BRANCH  22  26
ATOM     23  C   LIG    1        2.190   8.282   3.327  0.00  0.00    +0.162 A 
ATOM     24  C   LIG    1        2.459   7.483   2.254  0.00  0.00    +0.063 A 
ATOM     25  C   LIG    1        2.350   8.004   0.956  0.00  0.00    +0.046 A 
ATOM     26  C   LIG    1        2.620   7.207  -0.179  0.00  0.00    +0.139 A 
ATOM     27  C   LIG    1        2.486   7.788  -1.427  0.00  0.00    +0.066 A 
ATOM     28  C   LIG    1        2.101   9.119  -1.529  0.00  0.00    +0.115 A 
ATOM     29  N   LIG    1        1.858   9.852  -0.469  0.00  0.00    -0.255 NA
ATOM     30  C   LIG    1        1.968   9.355   0.769  0.00  0.00    +0.078 A 
ATOM     31  C   LIG    1        1.703  10.154   1.894  0.00  0.00    +0.077 A 
ATOM     32  C   LIG    1        1.806   9.618   3.145  0.00  0.00    +0.164 A 
BRANCH  23  34
ATOM     33  C   LIG    1        2.689   6.409   4.705  0.00  0.00    +0.277 C 
ATOM     34  O   LIG    1        2.295   7.777   4.585  0.00  0.00    -0.491 OA
ENDBRANCH  23  34
BRANCH  32  35
ATOM     35  O   LIG    1        1.544  10.394   4.230  0.00  0.00    -0.491 OA
ATOM     36  C   LIG    1        1.158  11.748   3.981  0.00  0.00    +0.277 C 
ENDBRANCH  32  35
ENDBRANCH  22  26
ENDBRANCH   1  22
TORSDOF 6
