REMARK  Name = ZINC13813331
REMARK                            x       y       z     vdW  Elec       q    Type
REMARK                         _______ _______ _______ _____ _____    ______ ____
ROOT
ATOM      1  C   LIG    1        4.960   1.731   0.397  0.00  0.00    +0.048 C 
ATOM      2  C   LIG    1        4.790   0.822  -0.821  0.00  0.00    +0.016 C 
ATOM      3  C   LIG    1        3.558  -0.065  -0.627  0.00  0.00    +0.001 C 
ATOM      4  C   LIG    1        3.739  -0.921   0.628  0.00  0.00    +0.000 C 
ATOM      5  C   LIG    1        3.909  -0.012   1.846  0.00  0.00    +0.001 C 
ATOM      6  C   LIG    1        5.141   0.875   1.652  0.00  0.00    +0.016 C 
ENDROOT
BRANCH   1   7
ATOM      7  C   LIG    1        3.737   2.598   0.553  0.00  0.00    +0.223 C 
ATOM      8  N   LIG    1        3.617   3.408   1.623  0.00  0.00    -0.284 N 
ATOM      9  H   LIG    1        4.335   3.463   2.272  0.00  0.00    +0.155 HD
ATOM     10  O   LIG    1        2.861   2.566  -0.286  0.00  0.00    -0.275 OA
BRANCH   8  11
ATOM     11  C   LIG    1        2.454   4.170   1.797  0.00  0.00    +0.047 A 
ATOM     12  C   LIG    1        1.671   4.504   0.703  0.00  0.00    +0.024 A 
ATOM     13  C   LIG    1        0.524   5.256   0.877  0.00  0.00    +0.002 A 
ATOM     14  C   LIG    1        0.153   5.677   2.142  0.00  0.00    +0.001 A 
ATOM     15  C   LIG    1        0.924   5.344   3.239  0.00  0.00    +0.016 A 
ATOM     16  C   LIG    1        2.080   4.595   3.073  0.00  0.00    +0.026 A 
BRANCH  16  17
ATOM     17  S   LIG    1        3.070   4.175   4.469  0.00  0.00    -0.141 S 
ATOM     18  H   LIG    1        4.142   3.444   4.062  0.00  0.00    +0.107 HD
ENDBRANCH  16  17
ENDBRANCH   8  11
ENDBRANCH   1   7
BRANCH   1  19
ATOM     19  C   LIG    1        6.192   2.618   0.203  0.00  0.00    +0.019 C 
BRANCH  19  20
ATOM     20  C   LIG    1        6.094   3.340  -1.142  0.00  0.00    -0.011 C 
BRANCH  20  22
ATOM     21  C   LIG    1        5.242   5.330   0.106  0.00  0.00    +0.004 C 
ATOM     22  C   LIG    1        4.986   4.393  -1.076  0.00  0.00    +0.000 C 
ENDBRANCH  20  22
BRANCH  20  23
ATOM     23  C   LIG    1        7.428   4.023  -1.453  0.00  0.00    +0.000 C 
ATOM     24  C   LIG    1        7.366   4.652  -2.846  0.00  0.00    +0.004 C 
ENDBRANCH  20  23
ENDBRANCH  19  20
ENDBRANCH   1  19
TORSDOF 7
