REMARK  Name = ZINC35183160
REMARK                            x       y       z     vdW  Elec       q    Type
REMARK                         _______ _______ _______ _____ _____    ______ ____
ROOT
ATOM      1  C   LIG    1        0.886  -1.930   0.962  0.00  0.00    +0.169 C 
ATOM      2  C   LIG    1       -0.362  -2.707   1.401  0.00  0.00    +0.067 C 
ATOM      3  C   LIG    1       -0.480  -2.592   2.900  0.00  0.00    -0.015 A 
ATOM      4  C   LIG    1       -1.613  -2.869   3.754  0.00  0.00    +0.003 A 
ATOM      5  C   LIG    1       -2.912  -3.316   3.495  0.00  0.00    +0.010 A 
ATOM      6  C   LIG    1       -3.743  -3.472   4.577  0.00  0.00    +0.001 A 
ATOM      7  C   LIG    1       -3.325  -3.204   5.870  0.00  0.00    +0.002 A 
ATOM      8  C   LIG    1       -2.045  -2.762   6.156  0.00  0.00    +0.026 A 
ATOM      9  C   LIG    1       -1.180  -2.593   5.077  0.00  0.00    +0.047 A 
ATOM     10  N   LIG    1        0.120  -2.180   5.003  0.00  0.00    -0.356 N 
ATOM     11  H   LIG    1        0.669  -1.925   5.761  0.00  0.00    +0.166 HD
ATOM     12  C   LIG    1        0.532  -2.182   3.698  0.00  0.00    +0.042 A 
ATOM     13  C   LIG    1        1.894  -1.800   3.169  0.00  0.00    +0.133 C 
ATOM     14  N   LIG    1        2.027  -2.323   1.800  0.00  0.00    -0.292 NA
ATOM     15  H   LIG    1        2.143  -3.325   1.805  0.00  0.00    +0.124 HD
ENDROOT
BRANCH  13  16
ATOM     16  C   LIG    1        2.964  -2.393   4.048  0.00  0.00    -0.006 A 
ATOM     17  C   LIG    1        3.510  -3.625   3.738  0.00  0.00    +0.008 A 
ATOM     18  C   LIG    1        4.491  -4.170   4.544  0.00  0.00    +0.020 A 
ATOM     19  C   LIG    1        4.929  -3.483   5.662  0.00  0.00    +0.042 A 
ATOM     20 CL   LIG    1        6.161  -4.168   6.675  0.00  0.00    -0.083 Cl
ATOM     21  C   LIG    1        4.384  -2.250   5.973  0.00  0.00    +0.040 A 
ATOM     22  C   LIG    1        3.405  -1.703   5.163  0.00  0.00    +0.047 A 
ATOM     23 CL   LIG    1        2.724  -0.153   5.550  0.00  0.00    -0.083 Cl
ENDBRANCH  13  16
BRANCH   1  24
ATOM     24  C   LIG    1        0.636  -0.451   1.114  0.00  0.00    +0.324 C 
ATOM     25  O   LIG    1       -0.468  -0.002   0.917  0.00  0.00    -0.249 OA
BRANCH  24  27
ATOM     26  C   LIG    1        1.333   1.755   1.595  0.00  0.00    +0.280 C 
ATOM     27  O   LIG    1        1.641   0.366   1.469  0.00  0.00    -0.467 OA
ENDBRANCH  24  27
ENDBRANCH   1  24
TORSDOF 3
