REMARK  Name = ZINC13905555
REMARK                            x       y       z     vdW  Elec       q    Type
REMARK                         _______ _______ _______ _____ _____    ______ ____
ROOT
ATOM      1  C   LIG    1       -0.640   2.311  -0.157  0.00  0.00    -0.000 C 
ATOM      2  C   LIG    1        0.411   1.529  -0.168  0.00  0.00    -0.025 C 
ENDROOT
BRANCH   2   3
ATOM      3  C   LIG    1        0.239   0.034  -0.089  0.00  0.00    +0.014 C 
ATOM      4  C   LIG    1        0.833  -0.614  -1.341  0.00  0.00    +0.008 C 
ATOM      5  C   LIG    1        0.658  -2.132  -1.261  0.00  0.00    +0.003 C 
ATOM      6  C   LIG    1        1.378  -2.664  -0.020  0.00  0.00    +0.035 C 
ATOM      7  C   LIG    1        0.783  -2.016   1.232  0.00  0.00    +0.077 C 
ATOM      8  C   LIG    1        0.958  -0.498   1.152  0.00  0.00    +0.043 C 
BRANCH   7   9
ATOM      9  O   LIG    1       -0.608  -2.331   1.316  0.00  0.00    -0.388 OA
ATOM     10  H   LIG    1       -0.794  -3.278   1.370  0.00  0.00    +0.210 HD
ENDBRANCH   7   9
BRANCH   7  11
ATOM     11  C   LIG    1        1.503  -2.548   2.473  0.00  0.00    +0.155 C 
BRANCH  11  12
ATOM     12  C   LIG    1        0.871  -1.962   3.709  0.00  0.00    +0.307 C 
ATOM     13  O   LIG    1       -0.128  -1.289   3.616  0.00  0.00    -0.251 OA
BRANCH  12  14
ATOM     14  O   LIG    1        1.419  -2.188   4.914  0.00  0.00    -0.481 OA
ATOM     15  H   LIG    1        2.193  -2.710   4.986  0.00  0.00    +0.295 HD
ENDBRANCH  12  14
ENDBRANCH  11  12
ENDBRANCH   7  11
ENDBRANCH   2   3
BRANCH   1  16
ATOM     16  C   LIG    1       -0.467   3.806  -0.236  0.00  0.00    +0.137 C 
BRANCH  16  17
ATOM     17  O   LIG    1        0.914   4.117  -0.430  0.00  0.00    -0.388 OA
ATOM     18  H   LIG    1        1.291   3.743  -1.239  0.00  0.00    +0.210 HD
ENDBRANCH  16  17
BRANCH  16  19
ATOM     19  C   LIG    1       -1.284   4.353  -1.409  0.00  0.00    +0.035 C 
BRANCH  19  20
ATOM     20  C   LIG    1       -1.209   5.881  -1.414  0.00  0.00    +0.003 C 
BRANCH  20  21
ATOM     21  C   LIG    1       -2.025   6.428  -2.587  0.00  0.00    +0.005 C 
BRANCH  21  22
ATOM     22  C   LIG    1       -1.951   7.956  -2.592  0.00  0.00    +0.035 C 
BRANCH  22  26
ATOM     23  C   LIG    1       -4.229   9.482  -5.867  0.00  0.00    +0.000 A 
ATOM     24  C   LIG    1       -4.832   9.284  -4.638  0.00  0.00    +0.000 A 
ATOM     25  C   LIG    1       -4.094   8.791  -3.578  0.00  0.00    +0.003 A 
ATOM     26  C   LIG    1       -2.755   8.494  -3.747  0.00  0.00    -0.047 A 
ATOM     27  C   LIG    1       -2.151   8.697  -4.974  0.00  0.00    +0.003 A 
ATOM     28  C   LIG    1       -2.889   9.187  -6.035  0.00  0.00    +0.000 A 
ENDBRANCH  22  26
ENDBRANCH  21  22
ENDBRANCH  20  21
ENDBRANCH  19  20
ENDBRANCH  16  19
ENDBRANCH   1  16
TORSDOF 12
