REMARK  Name = ZINC17131234
REMARK                            x       y       z     vdW  Elec       q    Type
REMARK                         _______ _______ _______ _____ _____    ______ ____
ROOT
ATOM      1  C   LIG    1       -0.017   1.382   0.010  0.00  0.00    +0.027 A 
ATOM      2  C   LIG    1        1.190   2.082   0.002  0.00  0.00    +0.020 A 
ATOM      3  C   LIG    1        1.528   3.504   0.006  0.00  0.00    +0.142 A 
ATOM      4  N   LIG    1        2.825   3.604  -0.006  0.00  0.00    -0.181 NA
ATOM      5  N   LIG    1        3.408   2.333  -0.018  0.00  0.00    -0.277 N 
ATOM      6  H   LIG    1        4.361   2.151  -0.028  0.00  0.00    +0.189 HD
ATOM      7  C   LIG    1        2.418   1.384  -0.014  0.00  0.00    +0.068 A 
ATOM      8  C   LIG    1        2.433  -0.005  -0.021  0.00  0.00    +0.056 A 
ATOM      9  C   LIG    1        1.235  -0.707  -0.013  0.00  0.00    +0.080 A 
ATOM     10  N   LIG    1        1.215  -2.066  -0.021  0.00  0.00    -0.237 NA
ATOM     11  C   LIG    1        0.101  -2.731  -0.014  0.00  0.00    +0.199 A 
ATOM     12  N   LIG    1       -1.124  -2.140   0.001  0.00  0.00    -0.313 N 
ATOM     13  H   LIG    1       -1.923  -2.691   0.005  0.00  0.00    +0.170 HD
ATOM     14  C   LIG    1       -1.241  -0.792   0.009  0.00  0.00    +0.259 A 
ATOM     15  O   LIG    1       -2.331  -0.252   0.022  0.00  0.00    -0.267 OA
ATOM     16  C   LIG    1        0.002  -0.004   0.002  0.00  0.00    +0.065 A 
ENDROOT
TORSDOF 0
