REMARK  Name = ZINC19203131
REMARK                            x       y       z     vdW  Elec       q    Type
REMARK                         _______ _______ _______ _____ _____    ______ ____
ROOT
ATOM      1  C   LIG    1        0.473   1.264  -2.537  0.00  0.00    +0.012 C 
ATOM      2  C   LIG    1        0.566  -0.260  -2.569  0.00  0.00    -0.025 C 
ATOM      3  C   LIG    1       -0.727  -0.840  -3.141  0.00  0.00    +0.008 C 
ATOM      4  C   LIG    1       -1.908  -0.524  -2.227  0.00  0.00    +0.018 C 
ATOM      5  C   LIG    1       -1.674  -1.049  -0.814  0.00  0.00    +0.065 C 
ATOM      6  C   LIG    1       -1.654  -2.578  -0.816  0.00  0.00    +0.023 C 
ATOM      7  C   LIG    1       -0.363  -0.504  -0.244  0.00  0.00    +0.026 C 
ATOM      8  C   LIG    1        1.750  -0.685  -3.442  0.00  0.00    +0.008 C 
ATOM      9  C   LIG    1        3.039  -0.030  -2.954  0.00  0.00    +0.012 C 
ATOM     10  C   LIG    1        3.329  -0.299  -1.485  0.00  0.00    -0.004 C 
ATOM     11  C   LIG    1        3.861  -1.737  -1.387  0.00  0.00    +0.016 C 
ATOM     12  C   LIG    1        4.416   0.649  -0.969  0.00  0.00    -0.013 C 
ATOM     13  C   LIG    1        3.888   2.074  -1.211  0.00  0.00    +0.013 C 
ATOM     14  C   LIG    1        5.703   0.480  -1.761  0.00  0.00    +0.008 C 
ATOM     15  C   LIG    1        6.845   1.296  -1.137  0.00  0.00    +0.005 C 
ATOM     16  C   LIG    1        7.045   0.800   0.295  0.00  0.00    +0.004 C 
ATOM     17  C   LIG    1        8.380   1.199   0.876  0.00  0.00    -0.006 C 
ATOM     18  C   LIG    1        8.696   2.682   0.676  0.00  0.00    +0.014 C 
ATOM     19  C   LIG    1        9.483   0.401   0.135  0.00  0.00    +0.014 C 
ATOM     20  C   LIG    1        8.511   0.835   2.354  0.00  0.00    +0.120 C 
ATOM     21  C   LIG    1        7.281   1.233   3.160  0.00  0.00    +0.032 C 
ATOM     22  C   LIG    1        6.028   0.609   2.554  0.00  0.00    +0.010 C 
ATOM     23  C   LIG    1        5.818   1.154   1.130  0.00  0.00    -0.018 C 
ATOM     24  C   LIG    1        5.603   2.660   1.228  0.00  0.00    +0.012 C 
ATOM     25  C   LIG    1        4.612   0.442   0.526  0.00  0.00    +0.073 C 
ATOM     26  C   LIG    1        3.316   0.808   1.212  0.00  0.00    +0.160 C 
ATOM     27  O   LIG    1        3.247   1.485   2.215  0.00  0.00    -0.292 OA
ATOM     28  C   LIG    1        2.089   0.261   0.607  0.00  0.00    +0.046 C 
ATOM     29  C   LIG    1        2.097  -0.245  -0.626  0.00  0.00    -0.056 C 
ATOM     30  C   LIG    1        0.802  -0.818  -1.168  0.00  0.00    +0.023 C 
ENDROOT
BRANCH   5  31
ATOM     31  C   LIG    1       -2.813  -0.586   0.069  0.00  0.00    +0.311 C 
ATOM     32  O   LIG    1       -3.958  -0.912  -0.193  0.00  0.00    -0.250 OA
BRANCH  31  33
ATOM     33  O   LIG    1       -2.586   0.113   1.041  0.00  0.00    -0.480 OA
ATOM     34  H   LIG    1       -1.705   0.364   1.242  0.00  0.00    +0.295 HD
ENDBRANCH  31  33
ENDBRANCH   5  31
BRANCH  20  35
ATOM     35  O   LIG    1        9.663   1.493   2.896  0.00  0.00    -0.391 OA
ATOM     36  H   LIG    1        9.842   1.274   3.821  0.00  0.00    +0.210 HD
ENDBRANCH  20  35
TORSDOF 3
