REMARK  Name = ZINC13949037
REMARK                            x       y       z     vdW  Elec       q    Type
REMARK                         _______ _______ _______ _____ _____    ______ ____
ROOT
ATOM      1  N   LIG    1        0.025  -0.016   2.415  0.00  0.00    -0.327 N 
ATOM      2  C   LIG    1       -1.238   0.330   3.081  0.00  0.00    +0.122 C 
ATOM      3  C   LIG    1       -1.212  -0.233   4.507  0.00  0.00    +0.128 C 
ATOM      4  N   LIG    1        0.054   0.159   5.143  0.00  0.00    -0.174 NA
ATOM      5  C   LIG    1        1.318  -0.188   4.477  0.00  0.00    +0.128 C 
ATOM      6  C   LIG    1        1.291   0.370   3.054  0.00  0.00    +0.122 C 
ENDROOT
BRANCH   1  13
ATOM      7  C   LIG    1       -0.018   1.503   0.010  0.00  0.00    +0.045 C 
ATOM      8  C   LIG    1        0.002  -0.004   0.002  0.00  0.00    -0.029 A 
ATOM      9  C   LIG    1        0.006  -0.689  -1.198  0.00  0.00    +0.005 A 
ATOM     10  C   LIG    1        0.024  -2.071  -1.206  0.00  0.00    +0.000 A 
ATOM     11  C   LIG    1        0.039  -2.773  -0.014  0.00  0.00    +0.002 A 
ATOM     12  C   LIG    1        0.036  -2.095   1.188  0.00  0.00    +0.023 A 
ATOM     13  C   LIG    1        0.023  -0.706   1.200  0.00  0.00    +0.033 A 
ENDBRANCH   1  13
BRANCH   4  14
ATOM     14  S   LIG    1        0.057   0.976   6.583  0.00  0.00    +0.061 S 
ATOM     15  O   LIG    1       -1.199   1.633   6.679  0.00  0.00    -0.153 OA
ATOM     16  O   LIG    1        1.291   1.677   6.650  0.00  0.00    -0.153 OA
BRANCH  14  17
ATOM     17  C   LIG    1        0.093  -0.231   7.867  0.00  0.00    +0.105 A 
ATOM     18  C   LIG    1       -1.090  -0.729   8.380  0.00  0.00    +0.029 A 
ATOM     19  C   LIG    1       -1.062  -1.675   9.387  0.00  0.00    +0.006 A 
ATOM     20  C   LIG    1        0.149  -2.124   9.880  0.00  0.00    -0.042 A 
ATOM     21  C   LIG    1        1.332  -1.626   9.366  0.00  0.00    +0.006 A 
ATOM     22  C   LIG    1        1.304  -0.683   8.356  0.00  0.00    +0.029 A 
BRANCH  20  23
ATOM     23  C   LIG    1        0.180  -3.155  10.979  0.00  0.00    -0.013 C 
ATOM     24  C   LIG    1       -0.541  -2.608  12.212  0.00  0.00    +0.015 C 
ATOM     25  C   LIG    1        1.633  -3.475  11.338  0.00  0.00    +0.015 C 
ATOM     26  C   LIG    1       -0.519  -4.429  10.502  0.00  0.00    +0.015 C 
ENDBRANCH  20  23
ENDBRANCH  14  17
ENDBRANCH   4  14
TORSDOF 4
