REMARK  Name = ZINC17107058
REMARK                            x       y       z     vdW  Elec       q    Type
REMARK                         _______ _______ _______ _____ _____    ______ ____
ROOT
ATOM      1  C   LIG    1        0.242   0.026   2.482  0.00  0.00    +0.163 A 
ATOM      2  N   LIG    1        0.137   1.336   2.620  0.00  0.00    -0.219 NA
ATOM      3  C   LIG    1        0.296   1.633   3.923  0.00  0.00    +0.168 A 
ATOM      4  C   LIG    1        0.289   2.815   4.668  0.00  0.00    +0.226 A 
ATOM      5  N   LIG    1        0.489   2.754   6.015  0.00  0.00    -0.266 N 
ATOM      6  C   LIG    1        0.483   3.992   6.799  0.00  0.00    +0.157 C 
ATOM      7  C   LIG    1        0.691   1.581   6.637  0.00  0.00    +0.333 A 
ATOM      8  O   LIG    1        0.865   1.571   7.841  0.00  0.00    -0.246 OA
ATOM      9  N   LIG    1        0.705   0.415   5.963  0.00  0.00    -0.279 N 
ATOM     10  C   LIG    1        0.928  -0.843   6.681  0.00  0.00    +0.155 C 
ATOM     11  C   LIG    1        0.509   0.405   4.593  0.00  0.00    +0.170 A 
ATOM     12  N   LIG    1        0.462  -0.542   3.674  0.00  0.00    -0.208 NA
ENDROOT
BRANCH   1  19
ATOM     13  C   LIG    1       -0.504   1.454   0.079  0.00  0.00    +0.044 C 
ATOM     14  C   LIG    1       -0.231  -0.028   0.035  0.00  0.00    -0.040 A 
ATOM     15  C   LIG    1       -0.330  -0.714  -1.158  0.00  0.00    +0.004 A 
ATOM     16  C   LIG    1       -0.080  -2.074  -1.200  0.00  0.00    +0.000 A 
ATOM     17  C   LIG    1        0.271  -2.754  -0.048  0.00  0.00    +0.001 A 
ATOM     18  C   LIG    1        0.373  -2.078   1.151  0.00  0.00    +0.012 A 
ATOM     19  C   LIG    1        0.128  -0.706   1.198  0.00  0.00    +0.022 A 
ENDBRANCH   1  19
BRANCH   4  20
ATOM     20  O   LIG    1        0.089   3.999   4.063  0.00  0.00    -0.492 OA
ATOM     21  H   LIG    1       -0.048   4.035   3.137  0.00  0.00    +0.294 HD
ENDBRANCH   4  20
TORSDOF 2
