REMARK  Name = ZINC15924305
REMARK                            x       y       z     vdW  Elec       q    Type
REMARK                         _______ _______ _______ _____ _____    ______ ____
ROOT
ATOM      1  C   LIG    1        4.925   1.326  -0.870  0.00  0.00    +0.393 C 
ATOM      2  N   LIG    1        6.052   1.978  -0.848  0.00  0.00    -0.129 NA
ATOM      3  H   LIG    1        6.081   2.906  -1.131  0.00  0.00    +0.306 HD
ENDROOT
BRANCH   1   4
ATOM      4  N   LIG    1        3.797   1.918  -1.393  0.00  0.00    -0.243 N 
ATOM      5  H   LIG    1        3.818   2.850  -1.661  0.00  0.00    +0.265 HD
BRANCH   4   8
ATOM      6  C   LIG    1        0.237   1.001  -1.342  0.00  0.00    +0.005 A 
ATOM      7  C   LIG    1        1.397   1.736  -1.197  0.00  0.00    +0.042 A 
ATOM      8  C   LIG    1        2.621   1.175  -1.538  0.00  0.00    +0.101 A 
ATOM      9  C   LIG    1        2.674  -0.125  -2.023  0.00  0.00    +0.062 A 
ATOM     10  C   LIG    1        1.510  -0.856  -2.166  0.00  0.00    +0.044 A 
ATOM     11 CL   LIG    1        1.575  -2.481  -2.773  0.00  0.00    -0.083 Cl
ATOM     12  C   LIG    1        0.292  -0.293  -1.825  0.00  0.00    +0.020 A 
ENDBRANCH   4   8
ENDBRANCH   1   4
BRANCH   1  13
ATOM     13  N   LIG    1        4.861   0.042  -0.370  0.00  0.00    -0.186 N 
ATOM     14  H   LIG    1        4.007  -0.415  -0.313  0.00  0.00    +0.271 HD
BRANCH  13  15
ATOM     15  C   LIG    1        6.012  -0.594   0.047  0.00  0.00    +0.385 C 
ATOM     16  N   LIG    1        5.983  -1.860   0.352  0.00  0.00    -0.129 NA
ATOM     17  H   LIG    1        5.171  -2.373   0.216  0.00  0.00    +0.306 HD
BRANCH  15  18
ATOM     18  N   LIG    1        7.189   0.109   0.142  0.00  0.00    -0.289 N 
ATOM     19  H   LIG    1        8.038  -0.353   0.058  0.00  0.00    +0.255 HD
ATOM     20  H   LIG    1        7.172   1.067   0.292  0.00  0.00    +0.255 HD
ENDBRANCH  15  18
ENDBRANCH  13  15
ENDBRANCH   1  13
TORSDOF 5
