REMARK  Name = ZINC40943257
REMARK                            x       y       z     vdW  Elec       q    Type
REMARK                         _______ _______ _______ _____ _____    ______ ____
ROOT
ATOM      1  C   LIG    1       -1.073  -6.129   5.717  0.00  0.00    +0.060 A 
ATOM      2  C   LIG    1       -2.052  -6.843   5.022  0.00  0.00    +0.047 A 
ATOM      3  C   LIG    1       -2.023  -8.220   5.015  0.00  0.00    +0.122 A 
ATOM      4  C   LIG    1       -1.027  -8.903   5.696  0.00  0.00    +0.034 A 
ATOM      5  C   LIG    1       -0.053  -8.212   6.387  0.00  0.00    +0.026 A 
ATOM      6  C   LIG    1       -0.063  -6.823   6.400  0.00  0.00    +0.042 A 
ENDROOT
BRANCH   1  11
ATOM      7  N   LIG    1        0.058  -2.780   2.402  0.00  0.00    -0.327 N 
ATOM      8  C   LIG    1        0.137  -2.069   3.686  0.00  0.00    +0.124 C 
ATOM      9  C   LIG    1       -1.046  -2.504   4.560  0.00  0.00    +0.127 C 
ATOM     10  N   LIG    1       -1.111  -3.972   4.566  0.00  0.00    -0.294 N 
ATOM     11  C   LIG    1       -1.098  -4.655   5.728  0.00  0.00    +0.249 C 
ATOM     12  O   LIG    1       -1.108  -4.055   6.786  0.00  0.00    -0.270 OA
ATOM     13  C   LIG    1       -1.190  -4.683   3.282  0.00  0.00    +0.127 C 
ATOM     14  C   LIG    1       -0.013  -4.248   2.408  0.00  0.00    +0.124 C 
BRANCH   7  20
ATOM     15  C   LIG    1       -0.066   1.518   0.022  0.00  0.00    +0.044 C 
ATOM     16  C   LIG    1       -0.015   0.012   0.014  0.00  0.00    -0.049 A 
ATOM     17  C   LIG    1        0.018  -0.672  -1.188  0.00  0.00    +0.003 A 
ATOM     18  C   LIG    1        0.065  -2.053  -1.200  0.00  0.00    +0.002 A 
ATOM     19  C   LIG    1        0.078  -2.756  -0.011  0.00  0.00    +0.023 A 
ATOM     20  C   LIG    1        0.045  -2.073   1.198  0.00  0.00    +0.030 A 
ATOM     21  C   LIG    1        0.004  -0.684   1.206  0.00  0.00    +0.026 A 
ENDBRANCH   7  20
ENDBRANCH   1  11
BRANCH   6  22
ATOM     22  N   LIG    1        0.920  -6.125   7.090  0.00  0.00    -0.325 N 
ATOM     23  C   LIG    1        0.743  -5.769   8.507  0.00  0.00    +0.133 C 
ATOM     24  C   LIG    1        1.991  -6.215   9.277  0.00  0.00    +0.178 C 
ATOM     25  O   LIG    1        3.155  -5.692   8.631  0.00  0.00    -0.377 OA
ATOM     26  C   LIG    1        3.348  -6.168   7.297  0.00  0.00    +0.178 C 
ATOM     27  C   LIG    1        2.171  -5.724   6.427  0.00  0.00    +0.133 C 
ENDBRANCH   6  22
BRANCH   3  28
ATOM     28  N   LIG    1       -3.062  -8.975   4.278  0.00  0.00    +0.006 N 
ATOM     29  O   LIG    1       -3.932  -8.383   3.684  0.00  0.00    -0.130 OA
BRANCH  28  30
ATOM     30  O   LIG    1       -3.039 -10.184   4.271  0.00  0.00    -0.396 OA
ATOM     31  H   LIG    1       -2.364 -10.643   4.731  0.00  0.00    +0.329 HD
ENDBRANCH  28  30
ENDBRANCH   3  28
TORSDOF 5
