REMARK  Name = ZINC29389040
REMARK                            x       y       z     vdW  Elec       q    Type
REMARK                         _______ _______ _______ _____ _____    ______ ____
ROOT
ATOM      1  C   LIG    1       -3.694   2.787   4.864  0.00  0.00    +0.045 A 
ATOM      2  C   LIG    1       -3.997   3.362   3.647  0.00  0.00    +0.007 A 
ATOM      3  C   LIG    1       -3.483   2.836   2.468  0.00  0.00    -0.042 A 
ATOM      4  C   LIG    1       -2.658   1.734   2.516  0.00  0.00    -0.014 A 
ATOM      5  C   LIG    1       -2.050   1.124   1.278  0.00  0.00    +0.135 C 
ATOM      6  C   LIG    1       -2.820   1.572   0.039  0.00  0.00    -0.038 C 
ATOM      7  N   LIG    1       -2.147   1.118  -1.180  0.00  0.00    +0.384 N 
ATOM      8  H   LIG    1       -2.682   1.504  -2.060  0.00  0.00    -0.085 HD
ATOM      9  H   LIG    1       -2.141   0.018  -1.207  0.00  0.00    -0.085 HD
ATOM     10  C   LIG    1       -0.757   1.595  -1.230  0.00  0.00    -0.054 C 
ATOM     11  C   LIG    1       -0.013   1.086   0.008  0.00  0.00    +0.141 C 
ATOM     12  C   LIG    1       -2.919   3.100   0.051  0.00  0.00    -0.008 C 
ATOM     13  O   LIG    1       -0.685   1.548   1.181  0.00  0.00    -0.375 OA
ATOM     14  C   LIG    1       -2.354   1.151   3.738  0.00  0.00    +0.051 A 
ATOM     15  C   LIG    1       -3.864   3.512   1.178  0.00  0.00    +0.034 C 
ATOM     16  C   LIG    1       -2.869   1.673   4.912  0.00  0.00    +0.117 A 
ENDROOT
BRANCH  16  17
ATOM     17  O   LIG    1       -2.568   1.097   6.106  0.00  0.00    -0.507 OA
ATOM     18  H   LIG    1       -1.914   0.214   6.141  0.00  0.00    +0.292 HD
ENDBRANCH  16  17
TORSDOF 1
