REMARK  Name = ZINC13860561
REMARK                            x       y       z     vdW  Elec       q    Type
REMARK                         _______ _______ _______ _____ _____    ______ ____
ROOT
ATOM      1  C   LIG    1        0.796  -2.019   1.147  0.00  0.00    -0.018 A 
ATOM      2  C   LIG    1       -0.186  -2.676   1.895  0.00  0.00    -0.002 A 
ATOM      3  C   LIG    1       -0.155  -4.073   1.943  0.00  0.00    +0.010 A 
ATOM      4  C   LIG    1        0.835  -4.744   1.256  0.00  0.00    +0.050 A 
ATOM      5  N   LIG    1        1.743  -4.086   0.562  0.00  0.00    -0.255 NA
ATOM      6  C   LIG    1        1.746  -2.768   0.486  0.00  0.00    +0.048 A 
ENDROOT
BRANCH   2   7
ATOM      7  C   LIG    1       -1.231  -1.913   2.618  0.00  0.00    +0.024 A 
ATOM      8  C   LIG    1       -2.436  -1.606   1.988  0.00  0.00    +0.015 A 
ATOM      9  C   LIG    1       -3.406  -0.896   2.664  0.00  0.00    +0.039 A 
ATOM     10  C   LIG    1       -3.187  -0.485   3.970  0.00  0.00    +0.127 A 
ATOM     11  F   LIG    1       -4.141   0.211   4.625  0.00  0.00    -0.205 F 
ATOM     12  C   LIG    1       -1.994  -0.784   4.605  0.00  0.00    +0.084 A 
ATOM     13  C   LIG    1       -1.014  -1.502   3.938  0.00  0.00    +0.127 A 
BRANCH  13  14
ATOM     14  O   LIG    1        0.155  -1.801   4.561  0.00  0.00    -0.506 OA
ATOM     15  H   LIG    1        0.843  -1.131   4.449  0.00  0.00    +0.292 HD
ENDBRANCH  13  14
ENDBRANCH   2   7
BRANCH   4  16
ATOM     16  C   LIG    1        0.881  -6.250   1.300  0.00  0.00    +0.032 C 
ATOM     17  C   LIG    1        2.128  -6.701   2.062  0.00  0.00    +0.014 C 
ATOM     18  C   LIG    1        0.928  -6.800  -0.127  0.00  0.00    +0.014 C 
ENDBRANCH   4  16
BRANCH   6  19
ATOM     19  C   LIG    1        2.806  -2.073  -0.329  0.00  0.00    +0.032 C 
ATOM     20  C   LIG    1        2.801  -2.629  -1.754  0.00  0.00    +0.014 C 
ATOM     21  C   LIG    1        4.177  -2.312   0.307  0.00  0.00    +0.014 C 
ENDBRANCH   6  19
BRANCH   3  22
ATOM     22  C   LIG    1       -1.187  -4.835   2.734  0.00  0.00    +0.144 C 
ATOM     23  C   LIG    1       -2.174  -5.504   1.775  0.00  0.00    +0.043 C 
BRANCH  22  24
ATOM     24  O   LIG    1       -0.540  -5.833   3.525  0.00  0.00    -0.387 OA
ATOM     25  H   LIG    1        0.100  -5.480   4.158  0.00  0.00    +0.210 HD
ENDBRANCH  22  24
ENDBRANCH   3  22
BRANCH   1  26
ATOM     26  C   LIG    1        0.811  -0.514   1.060  0.00  0.00    +0.037 C 
BRANCH  26  28
ATOM     27  C   LIG    1        0.098   1.458  -0.298  0.00  0.00    +0.004 C 
ATOM     28  C   LIG    1        0.082  -0.070  -0.209  0.00  0.00    +0.001 C 
ENDBRANCH  26  28
ENDBRANCH   1  26
TORSDOF 8
