REMARK  Name = ZINC72141366
REMARK                            x       y       z     vdW  Elec       q    Type
REMARK                         _______ _______ _______ _____ _____    ______ ____
ROOT
ATOM      1  N   LIG    1        4.998  -7.676  10.653  0.00  0.00    -0.311 N 
ATOM      2  C   LIG    1        5.174  -9.049  10.738  0.00  0.00    +0.068 A 
ATOM      3  C   LIG    1        4.801 -10.102   9.909  0.00  0.00    +0.029 A 
ATOM      4  C   LIG    1        5.113 -11.387  10.248  0.00  0.00    +0.017 A 
ATOM      5  C   LIG    1        5.810 -11.655  11.433  0.00  0.00    +0.061 A 
ATOM      6  C   LIG    1        6.189 -10.604  12.272  0.00  0.00    +0.042 A 
ATOM      7  C   LIG    1        5.870  -9.303  11.924  0.00  0.00    +0.066 A 
ATOM      8  N   LIG    1        6.102  -8.075  12.535  0.00  0.00    -0.326 N 
ATOM      9  H   LIG    1        6.566  -7.935  13.376  0.00  0.00    +0.169 HD
ATOM     10  C   LIG    1        5.571  -7.102  11.747  0.00  0.00    +0.201 A 
ATOM     11  N   LIG    1        5.603  -5.800  12.004  0.00  0.00    -0.142 NA
ENDROOT
BRANCH   5  12
ATOM     12  C   LIG    1        6.143 -13.044  11.795  0.00  0.00    +0.337 C 
ATOM     13  O   LIG    1        5.810 -13.964  11.060  0.00  0.00    -0.245 OA
BRANCH  12  14
ATOM     14  O   LIG    1        6.751 -13.277  12.830  0.00  0.00    -0.477 OA
ATOM     15  H   LIG    1        7.006 -12.573  13.393  0.00  0.00    +0.295 HD
ENDBRANCH  12  14
ENDBRANCH   5  12
BRANCH  11  16
ATOM     16  C   LIG    1        6.294  -5.343  13.053  0.00  0.00    +0.270 C 
ATOM     17  O   LIG    1        6.815  -6.126  13.828  0.00  0.00    -0.268 OA
BRANCH  16  18
ATOM     18  C   LIG    1        6.427  -3.884  13.273  0.00  0.00    +0.039 A 
ATOM     19  C   LIG    1        5.828  -2.985  12.391  0.00  0.00    +0.013 A 
ATOM     20  C   LIG    1        5.955  -1.627  12.602  0.00  0.00    +0.013 A 
ATOM     21  C   LIG    1        6.675  -1.157  13.685  0.00  0.00    +0.055 A 
ATOM     22  C   LIG    1        7.272  -2.043  14.564  0.00  0.00    +0.013 A 
ATOM     23  C   LIG    1        7.148  -3.404  14.367  0.00  0.00    +0.013 A 
BRANCH  21  24
ATOM     24  C   LIG    1        6.811   0.327  13.909  0.00  0.00    +0.417 C 
ATOM     25  F   LIG    1        6.774   0.990  12.678  0.00  0.00    -0.166 F 
ATOM     26  F   LIG    1        8.027   0.594  14.546  0.00  0.00    -0.166 F 
ATOM     27  F   LIG    1        5.756   0.776  14.712  0.00  0.00    -0.166 F 
ENDBRANCH  21  24
ENDBRANCH  16  18
ENDBRANCH  11  16
BRANCH   1  28
ATOM     28  C   LIG    1        4.317  -6.964   9.569  0.00  0.00    +0.130 C 
BRANCH  28  29
ATOM     29  C   LIG    1        5.330  -6.606   8.480  0.00  0.00    +0.057 C 
BRANCH  29  33
ATOM     30  C   LIG    1        3.345  -4.529   5.316  0.00  0.00    +0.132 A 
ATOM     31  C   LIG    1        3.887  -3.821   6.379  0.00  0.00    +0.046 A 
ATOM     32  C   LIG    1        4.528  -4.495   7.400  0.00  0.00    +0.007 A 
ATOM     33  C   LIG    1        4.630  -5.874   7.364  0.00  0.00    -0.045 A 
ATOM     34  C   LIG    1        4.090  -6.581   6.306  0.00  0.00    +0.007 A 
ATOM     35  C   LIG    1        3.443  -5.913   5.285  0.00  0.00    +0.046 A 
BRANCH  30  36
ATOM     36  O   LIG    1        2.713  -3.869   4.310  0.00  0.00    -0.422 OA
BRANCH  36  37
ATOM     37  C   LIG    1        3.472  -3.216   3.407  0.00  0.00    +0.344 C 
ATOM     38  O   LIG    1        4.676  -3.154   3.557  0.00  0.00    -0.245 OA
BRANCH  37  42
ATOM     39  C   LIG    1        1.655  -1.380   0.039  0.00  0.00    +0.120 A 
ATOM     40  C   LIG    1        3.032  -1.307   0.209  0.00  0.00    +0.046 A 
ATOM     41  C   LIG    1        3.626  -1.901   1.300  0.00  0.00    +0.018 A 
ATOM     42  C   LIG    1        2.841  -2.578   2.237  0.00  0.00    +0.060 A 
ATOM     43  C   LIG    1        1.455  -2.649   2.062  0.00  0.00    +0.018 A 
ATOM     44  C   LIG    1        0.870  -2.047   0.972  0.00  0.00    +0.046 A 
BRANCH  39  46
ATOM     45  C   LIG    1        1.939  -0.124  -1.958  0.00  0.00    +0.277 C 
ATOM     46  O   LIG    1        1.074  -0.793  -1.038  0.00  0.00    -0.495 OA
ENDBRANCH  39  46
ENDBRANCH  37  42
ENDBRANCH  36  37
ENDBRANCH  30  36
ENDBRANCH  29  33
ENDBRANCH  28  29
ENDBRANCH   1  28
TORSDOF 12
