REMARK  Name = ZINC16958151
REMARK                            x       y       z     vdW  Elec       q    Type
REMARK                         _______ _______ _______ _____ _____    ______ ____
ROOT
ATOM      1  C   LIG    1       -1.171  -7.652   0.886  0.00  0.00    +0.193 C 
ATOM      2  C   LIG    1       -1.130  -8.591   1.899  0.00  0.00    +0.106 C 
ENDROOT
BRANCH   2   3
ATOM      3  C   LIG    1       -0.488  -9.900   1.666  0.00  0.00    +0.140 A 
ATOM      4  C   LIG    1       -0.494 -10.880   2.689  0.00  0.00    +0.240 A 
ATOM      5  N   LIG    1        0.074 -12.050   2.493  0.00  0.00    -0.210 NA
ATOM      6  C   LIG    1        0.663 -12.318   1.318  0.00  0.00    +0.094 A 
ATOM      7  C   LIG    1        1.273 -13.559   1.090  0.00  0.00    +0.041 A 
ATOM      8  C   LIG    1        1.875 -13.811  -0.134  0.00  0.00    +0.024 A 
ATOM      9  C   LIG    1        1.876 -12.830  -1.143  0.00  0.00    +0.014 A 
ATOM     10  C   LIG    1        1.290 -11.623  -0.939  0.00  0.00    +0.030 A 
ATOM     11  C   LIG    1        0.670 -11.338   0.292  0.00  0.00    +0.090 A 
ATOM     12  N   LIG    1        0.085 -10.154   0.502  0.00  0.00    -0.240 NA
BRANCH   4  13
ATOM     13  O   LIG    1       -1.089 -10.611   3.876  0.00  0.00    -0.491 OA
ATOM     14  H   LIG    1       -1.494  -9.778   4.019  0.00  0.00    +0.294 HD
ENDBRANCH   4  13
BRANCH   8  15
ATOM     15  C   LIG    1        2.520 -15.117  -0.380  0.00  0.00    +0.193 C 
ATOM     16  O   LIG    1        3.387 -15.217  -1.226  0.00  0.00    -0.287 OA
BRANCH  15  17
ATOM     17  C   LIG    1        2.111 -16.301   0.403  0.00  0.00    +0.022 A 
ATOM     18  C   LIG    1        0.847 -16.349   0.996  0.00  0.00    +0.012 A 
ATOM     19  C   LIG    1        0.472 -17.457   1.725  0.00  0.00    +0.001 A 
ATOM     20  C   LIG    1        1.345 -18.521   1.871  0.00  0.00    +0.000 A 
ATOM     21  C   LIG    1        2.599 -18.481   1.286  0.00  0.00    +0.001 A 
ATOM     22  C   LIG    1        2.985 -17.381   0.549  0.00  0.00    +0.012 A 
ENDBRANCH  15  17
ENDBRANCH   8  15
ENDBRANCH   2   3
BRANCH   1  25
ATOM     23  N   LIG    1       -2.018  -5.504   0.066  0.00  0.00    -0.279 N 
ATOM     24  H   LIG    1       -1.661  -5.725  -0.808  0.00  0.00    +0.155 HD
ATOM     25  C   LIG    1       -1.917  -6.387   1.079  0.00  0.00    +0.284 C 
ATOM     26  O   LIG    1       -2.438  -6.146   2.150  0.00  0.00    -0.266 OA
BRANCH  23  31
ATOM     27  C   LIG    1       -4.533  -0.492   0.917  0.00  0.00    +0.044 C 
ATOM     28  C   LIG    1       -3.865  -1.824   0.691  0.00  0.00    -0.050 A 
ATOM     29  C   LIG    1       -2.781  -1.916  -0.163  0.00  0.00    +0.005 A 
ATOM     30  C   LIG    1       -2.166  -3.134  -0.372  0.00  0.00    +0.023 A 
ATOM     31  C   LIG    1       -2.638  -4.269   0.276  0.00  0.00    +0.034 A 
ATOM     32  C   LIG    1       -3.727  -4.173   1.133  0.00  0.00    +0.023 A 
ATOM     33  C   LIG    1       -4.334  -2.950   1.342  0.00  0.00    +0.005 A 
ENDBRANCH  23  31
ENDBRANCH   1  25
BRANCH   2  34
ATOM     34  C   LIG    1       -1.724  -8.287   3.207  0.00  0.00    +0.275 C 
ATOM     35  O   LIG    1       -2.852  -8.658   3.463  0.00  0.00    -0.279 OA
BRANCH  34  36
ATOM     36  C   LIG    1       -0.942  -7.522   4.221  0.00  0.00    +0.380 C 
ATOM     37  O   LIG    1        0.152  -7.082   3.938  0.00  0.00    -0.241 OA
BRANCH  36  38
ATOM     38  O   LIG    1       -1.451  -7.320   5.450  0.00  0.00    -0.462 OA
ATOM     39  C   LIG    1       -0.648  -6.579   6.371  0.00  0.00    +0.280 C 
ENDBRANCH  36  38
ENDBRANCH  34  36
ENDBRANCH   2  34
BRANCH   1  40
ATOM     40  O   LIG    1       -0.532  -7.887  -0.280  0.00  0.00    -0.502 OA
ATOM     41  H   LIG    1       -0.560  -7.250  -0.966  0.00  0.00    +0.292 HD
ENDBRANCH   1  40
TORSDOF 10
