REMARK  Name = ZINC18118278
REMARK                            x       y       z     vdW  Elec       q    Type
REMARK                         _______ _______ _______ _____ _____    ______ ____
ROOT
ATOM      1  C   LIG    1        0.042   1.252   0.531  0.00  0.00    +0.062 A 
ATOM      2  C   LIG    1        0.878   2.015  -0.279  0.00  0.00    +0.070 A 
ATOM      3  C   LIG    1        2.048   1.441  -0.807  0.00  0.00    +0.093 A 
ATOM      4  N   LIG    1        2.873   2.162  -1.594  0.00  0.00    -0.207 NA
ATOM      5  C   LIG    1        2.607   3.408  -1.885  0.00  0.00    +0.280 A 
ATOM      6  C   LIG    1        1.390   4.048  -1.353  0.00  0.00    +0.311 A 
ATOM      7  O   LIG    1        1.136   5.207  -1.621  0.00  0.00    -0.262 OA
ATOM      8  C   LIG    1        2.354   0.105  -0.508  0.00  0.00    +0.064 A 
ATOM      9  C   LIG    1        1.520  -0.624   0.288  0.00  0.00    +0.154 A 
ATOM     10  N   LIG    1        0.562   3.330  -0.563  0.00  0.00    -0.316 N 
ATOM     11  H   LIG    1       -0.244   3.731  -0.202  0.00  0.00    +0.169 HD
ATOM     12  C   LIG    1        0.365  -0.058   0.810  0.00  0.00    +0.154 A 
ENDROOT
BRANCH   5  13
ATOM     13  O   LIG    1        3.450   4.112  -2.677  0.00  0.00    -0.489 OA
ATOM     14  H   LIG    1        4.224   3.706  -3.016  0.00  0.00    +0.294 HD
ENDBRANCH   5  13
BRANCH   9  15
ATOM     15  N   LIG    1        1.850  -2.034   0.599  0.00  0.00    +0.008 N 
ATOM     16  O   LIG    1        2.998  -2.356   0.797  0.00  0.00    -0.130 OA
BRANCH  15  17
ATOM     17  O   LIG    1        0.972  -2.862   0.654  0.00  0.00    -0.396 OA
ATOM     18  H   LIG    1        0.082  -2.612   0.500  0.00  0.00    +0.329 HD
ENDBRANCH  15  17
ENDBRANCH   9  15
BRANCH  12  19
ATOM     19  N   LIG    1       -0.526  -0.867   1.671  0.00  0.00    +0.008 N 
ATOM     20  O   LIG    1       -1.726  -0.748   1.581  0.00  0.00    -0.130 OA
BRANCH  19  21
ATOM     21  O   LIG    1       -0.054  -1.647   2.465  0.00  0.00    -0.396 OA
ATOM     22  H   LIG    1        0.876  -1.740   2.535  0.00  0.00    +0.329 HD
ENDBRANCH  19  21
ENDBRANCH  12  19
TORSDOF 5
