REMARK  Name = ZINC27645646
REMARK                            x       y       z     vdW  Elec       q    Type
REMARK                         _______ _______ _______ _____ _____    ______ ____
ROOT
ATOM      1  N   LIG    1        2.839  -0.440  -2.473  0.00  0.00    -0.294 N 
ATOM      2  H   LIG    1        2.369  -1.001  -3.110  0.00  0.00    +0.151 HD
ATOM      3  C   LIG    1        4.123  -0.096  -2.697  0.00  0.00    +0.300 C 
ATOM      4  N   LIG    1        4.754  -0.531  -3.805  0.00  0.00    -0.299 N 
ATOM      5  H   LIG    1        4.284  -1.091  -4.443  0.00  0.00    +0.150 HD
ATOM      6  O   LIG    1        4.712   0.607  -1.898  0.00  0.00    -0.253 OA
ENDROOT
BRANCH   1  13
ATOM      7  C   LIG    1       -0.019   1.526   0.010  0.00  0.00    +0.007 C 
ATOM      8  C   LIG    1        1.417   2.055  -0.000  0.00  0.00    -0.008 C 
ATOM      9  C   LIG    1        2.157   1.548   1.239  0.00  0.00    +0.007 C 
ATOM     10  C   LIG    1        2.178   0.019   1.231  0.00  0.00    -0.008 C 
ATOM     11  C   LIG    1        0.742  -0.511   1.242  0.00  0.00    +0.007 C 
ATOM     12  C   LIG    1        2.894  -0.475  -0.028  0.00  0.00    +0.029 C 
ATOM     13  C   LIG    1        2.154   0.032  -1.268  0.00  0.00    +0.037 C 
ATOM     14  C   LIG    1        0.718  -0.497  -1.257  0.00  0.00    +0.029 C 
ATOM     15  C   LIG    1        2.133   1.562  -1.259  0.00  0.00    +0.029 C 
ATOM     16  C   LIG    1        0.002  -0.004   0.002  0.00  0.00    -0.008 C 
ENDBRANCH   1  13
BRANCH   4  17
ATOM     17  C   LIG    1        6.149  -0.157  -4.049  0.00  0.00    +0.106 C 
BRANCH  17  18
ATOM     18  C   LIG    1        6.621  -0.776  -5.365  0.00  0.00    +0.019 C 
BRANCH  18  19
ATOM     19  C   LIG    1        8.079  -0.385  -5.620  0.00  0.00    +0.002 C 
BRANCH  19  20
ATOM     20  C   LIG    1        8.551  -1.005  -6.936  0.00  0.00    +0.000 C 
BRANCH  20  21
ATOM     21  C   LIG    1       10.008  -0.614  -7.190  0.00  0.00    +0.000 C 
BRANCH  21  22
ATOM     22  C   LIG    1       10.480  -1.234  -8.507  0.00  0.00    +0.000 C 
BRANCH  22  23
ATOM     23  C   LIG    1       11.938  -0.843  -8.761  0.00  0.00    +0.000 C 
BRANCH  23  24
ATOM     24  C   LIG    1       12.410  -1.463 -10.078  0.00  0.00    +0.000 C 
BRANCH  24  25
ATOM     25  C   LIG    1       13.867  -1.072 -10.332  0.00  0.00    +0.001 C 
BRANCH  25  26
ATOM     26  C   LIG    1       14.339  -1.691 -11.649  0.00  0.00    +0.011 C 
BRANCH  26  27
ATOM     27  C   LIG    1       15.796  -1.301 -11.903  0.00  0.00    +0.120 C 
BRANCH  27  28
ATOM     28  C   LIG    1       16.261  -1.911 -13.200  0.00  0.00    +0.305 C 
ATOM     29  O   LIG    1       15.498  -2.595 -13.860  0.00  0.00    -0.251 OA
BRANCH  28  30
ATOM     30  O   LIG    1       17.401  -1.720 -13.589  0.00  0.00    -0.481 OA
ATOM     31  H   LIG    1       17.988  -1.195 -13.082  0.00  0.00    +0.295 HD
ENDBRANCH  28  30
ENDBRANCH  27  28
ENDBRANCH  26  27
ENDBRANCH  25  26
ENDBRANCH  24  25
ENDBRANCH  23  24
ENDBRANCH  22  23
ENDBRANCH  21  22
ENDBRANCH  20  21
ENDBRANCH  19  20
ENDBRANCH  18  19
ENDBRANCH  17  18
ENDBRANCH   4  17
TORSDOF 14
