REMARK  Name = ZINC14979621
REMARK                            x       y       z     vdW  Elec       q    Type
REMARK                         _______ _______ _______ _____ _____    ______ ____
ROOT
ATOM      1  C   LIG    1       -3.427  -2.110   1.448  0.00  0.00    +0.002 C 
ENDROOT
BRANCH   1   2
ATOM      2  C   LIG    1       -3.550  -2.612   2.888  0.00  0.00    +0.000 C 
BRANCH   2   3
ATOM      3  C   LIG    1       -3.941  -4.091   2.881  0.00  0.00    +0.000 C 
BRANCH   3   4
ATOM      4  C   LIG    1       -4.064  -4.593   4.321  0.00  0.00    +0.000 C 
BRANCH   4   5
ATOM      5  C   LIG    1       -4.455  -6.072   4.314  0.00  0.00    -0.000 C 
BRANCH   5   6
ATOM      6  C   LIG    1       -4.579  -6.573   5.755  0.00  0.00    -0.000 C 
BRANCH   6   7
ATOM      7  C   LIG    1       -4.969  -8.053   5.748  0.00  0.00    -0.000 C 
BRANCH   7   8
ATOM      8  C   LIG    1       -5.093  -8.554   7.188  0.00  0.00    -0.000 C 
BRANCH   8   9
ATOM      9  C   LIG    1       -5.483 -10.034   7.181  0.00  0.00    -0.000 C 
BRANCH   9  10
ATOM     10  C   LIG    1       -5.607 -10.535   8.621  0.00  0.00    -0.000 C 
BRANCH  10  11
ATOM     11  C   LIG    1       -5.997 -12.014   8.615  0.00  0.00    -0.000 C 
BRANCH  11  12
ATOM     12  C   LIG    1       -6.121 -12.516  10.055  0.00  0.00    -0.000 C 
BRANCH  12  14
ATOM     13  C   LIG    1       -6.635 -14.496  11.488  0.00  0.00    +0.004 C 
ATOM     14  C   LIG    1       -6.511 -13.995  10.048  0.00  0.00    -0.003 C 
ENDBRANCH  12  14
ENDBRANCH  11  12
ENDBRANCH  10  11
ENDBRANCH   9  10
ENDBRANCH   8   9
ENDBRANCH   7   8
ENDBRANCH   6   7
ENDBRANCH   5   6
ENDBRANCH   4   5
ENDBRANCH   3   4
ENDBRANCH   2   3
ENDBRANCH   1   2
BRANCH   1  15
ATOM     15  C   LIG    1       -3.036  -0.631   1.454  0.00  0.00    +0.019 C 
BRANCH  15  16
ATOM     16  C   LIG    1       -2.913  -0.130   0.014  0.00  0.00    +0.114 C 
BRANCH  16  17
ATOM     17  N   LIG    1       -2.539   1.287   0.021  0.00  0.00    -0.264 N 
ATOM     18  C   LIG    1       -1.226   1.752   0.017  0.00  0.00    +0.048 A 
ATOM     19  C   LIG    1       -0.013   1.076   0.008  0.00  0.00    +0.024 A 
ATOM     20  C   LIG    1        1.176   1.781   0.000  0.00  0.00    +0.002 A 
ATOM     21  C   LIG    1        1.177   3.166   0.007  0.00  0.00    +0.001 A 
ATOM     22  C   LIG    1       -0.017   3.858   0.022  0.00  0.00    +0.014 A 
ATOM     23  C   LIG    1       -1.223   3.156   0.030  0.00  0.00    +0.048 A 
ATOM     24  C   LIG    1       -2.635   3.580   0.046  0.00  0.00    +0.250 C 
ATOM     25  O   LIG    1       -3.067   4.715   0.056  0.00  0.00    -0.282 OA
ATOM     26  C   LIG    1       -3.420   2.302   0.030  0.00  0.00    +0.291 C 
ATOM     27  O   LIG    1       -4.629   2.203   0.035  0.00  0.00    -0.266 OA
ENDBRANCH  16  17
ENDBRANCH  15  16
ENDBRANCH   1  15
TORSDOF 15
