REMARK  Name = ZINC14966762
REMARK                            x       y       z     vdW  Elec       q    Type
REMARK                         _______ _______ _______ _____ _____    ______ ____
ROOT
ATOM      1  N   LIG    1        1.360   2.011  -0.000  0.00  0.00    -0.309 NA
ATOM      2  H   LIG    1        1.892   1.647   0.891  0.00  0.00    +0.122 HD
ENDROOT
BRANCH   1   3
ATOM      3  C   LIG    1       -0.018   1.503   0.010  0.00  0.00    +0.120 C 
BRANCH   3   9
ATOM      4  C   LIG    1        0.231  -0.702   1.179  0.00  0.00    +0.124 A 
ATOM      5  C   LIG    1        0.249  -2.089   1.168  0.00  0.00    +0.046 A 
ATOM      6  C   LIG    1        0.038  -2.772  -0.014  0.00  0.00    +0.004 A 
ATOM      7  C   LIG    1       -0.190  -2.074  -1.186  0.00  0.00    +0.001 A 
ATOM      8  C   LIG    1       -0.213  -0.692  -1.177  0.00  0.00    +0.008 A 
ATOM      9  C   LIG    1        0.002  -0.004   0.002  0.00  0.00    +0.008 A 
BRANCH   4  11
ATOM     10  C   LIG    1        0.667  -0.811   3.513  0.00  0.00    +0.277 C 
ATOM     11  O   LIG    1        0.438  -0.027   2.341  0.00  0.00    -0.495 OA
ENDBRANCH   4  11
ENDBRANCH   3   9
ENDBRANCH   1   3
BRANCH   1  12
ATOM     12  C   LIG    1        1.379   3.480   0.008  0.00  0.00    +0.117 C 
BRANCH  12  13
ATOM     13  C   LIG    1        2.828   3.971  -0.004  0.00  0.00    +0.158 C 
BRANCH  13  14
ATOM     14  C   LIG    1        2.848   5.478   0.004  0.00  0.00    -0.017 A 
ATOM     15  C   LIG    1        2.758   6.164   1.201  0.00  0.00    +0.006 A 
ATOM     16  C   LIG    1        2.782   7.546   1.210  0.00  0.00    +0.001 A 
ATOM     17  C   LIG    1        2.884   8.243   0.020  0.00  0.00    +0.015 A 
ATOM     18  C   LIG    1        2.968   7.557  -1.178  0.00  0.00    +0.018 A 
ATOM     19 BR   LIG    1        3.107   8.510  -2.805  0.00  0.00    -0.050 Br
ATOM     20  C   LIG    1        2.950   6.174  -1.185  0.00  0.00    +0.021 A 
ENDBRANCH  13  14
BRANCH  13  21
ATOM     21  O   LIG    1        3.506   3.480   1.154  0.00  0.00    -0.386 OA
ATOM     22  H   LIG    1        4.565   3.731   1.319  0.00  0.00    +0.210 HD
ENDBRANCH  13  21
ENDBRANCH  12  13
ENDBRANCH   1  12
TORSDOF 7
