REMARK  Name = ZINC13861502
REMARK                            x       y       z     vdW  Elec       q    Type
REMARK                         _______ _______ _______ _____ _____    ______ ____
ROOT
ATOM      1  C   LIG    1       -1.995   4.688  -5.690  0.00  0.00    -0.079 C 
ENDROOT
BRANCH   1   5
ATOM      2  N   LIG    1       -3.924   7.059  -8.606  0.00  0.00    -0.333 N 
ATOM      3  C   LIG    1       -2.851   6.158  -9.051  0.00  0.00    +0.086 C 
ATOM      4  C   LIG    1       -2.631   5.072  -7.995  0.00  0.00    -0.060 C 
ATOM      5  N   LIG    1       -2.266   5.717  -6.716  0.00  0.00    +0.382 N 
ATOM      6  H   LIG    1       -1.418   6.279  -6.856  0.00  0.00    -0.082 HD
ATOM      7  C   LIG    1       -3.361   6.603  -6.268  0.00  0.00    -0.060 C 
ATOM      8  C   LIG    1       -3.581   7.689  -7.324  0.00  0.00    +0.086 C 
BRANCH   2  15
ATOM      9  C   LIG    1       -6.554   7.154  -9.686  0.00  0.00    +0.045 C 
ATOM     10  C   LIG    1       -5.473   8.105 -10.132  0.00  0.00    -0.029 A 
ATOM     11  C   LIG    1       -5.746   9.059 -11.093  0.00  0.00    +0.005 A 
ATOM     12  C   LIG    1       -4.755   9.933 -11.503  0.00  0.00    +0.000 A 
ATOM     13  C   LIG    1       -3.488   9.853 -10.953  0.00  0.00    +0.002 A 
ATOM     14  C   LIG    1       -3.211   8.905  -9.989  0.00  0.00    +0.023 A 
ATOM     15  C   LIG    1       -4.202   8.023  -9.578  0.00  0.00    +0.033 A 
ENDBRANCH   2  15
ENDBRANCH   1   5
BRANCH   1  16
ATOM     16  C   LIG    1       -1.406   5.367  -4.452  0.00  0.00    -0.017 C 
BRANCH  16  17
ATOM     17  C   LIG    1       -1.100   4.312  -3.388  0.00  0.00    +0.017 C 
BRANCH  17  18
ATOM     18  C   LIG    1       -0.511   4.991  -2.150  0.00  0.00    +0.108 C 
BRANCH  18  19
ATOM     19  N   LIG    1       -0.219   3.981  -1.131  0.00  0.00    -0.291 N 
ATOM     20  C   LIG    1       -1.221   3.592  -0.122  0.00  0.00    +0.203 C 
ATOM     21  C   LIG    1       -1.233   2.081  -0.019  0.00  0.00    +0.234 C 
ATOM     22  N   LIG    1       -0.018   1.452   0.010  0.00  0.00    -0.289 N 
ATOM     23  C   LIG    1        0.002  -0.004   0.002  0.00  0.00    +0.108 C 
ATOM     24  C   LIG    1        1.390  -0.538   0.356  0.00  0.00    +0.019 C 
ATOM     25  C   LIG    1        2.408   0.196  -0.530  0.00  0.00    +0.004 C 
ATOM     26  C   LIG    1        2.497   1.639  -0.036  0.00  0.00    +0.032 C 
ATOM     27  C   LIG    1        1.152   2.310   0.004  0.00  0.00    +0.162 C 
ATOM     28  O   LIG    1       -2.271   1.457   0.035  0.00  0.00    -0.274 OA
ATOM     29  C   LIG    1        0.994   3.357  -1.072  0.00  0.00    +0.237 C 
ATOM     30  O   LIG    1        1.892   3.629  -1.840  0.00  0.00    -0.274 OA
ENDBRANCH  18  19
ENDBRANCH  17  18
ENDBRANCH  16  17
ENDBRANCH   1  16
TORSDOF 6
