REMARK  Name = ZINC43203373
REMARK                            x       y       z     vdW  Elec       q    Type
REMARK                         _______ _______ _______ _____ _____    ______ ____
ROOT
ATOM      1  C   LIG    1       -1.433  -0.534   0.013  0.00  0.00    +0.101 C 
ATOM      2  C   LIG    1       -1.464  -2.047   0.236  0.00  0.00    +0.033 C 
ATOM      3  C   LIG    1       -2.290   0.200   1.038  0.00  0.00    +0.255 C 
ATOM      4  N   LIG    1       -3.286   0.852   0.494  0.00  0.00    -0.158 NA
ATOM      5  C   LIG    1       -3.533   0.881  -0.803  0.00  0.00    +0.148 C 
ATOM      6  O   LIG    1       -2.072   0.181   2.234  0.00  0.00    -0.272 OA
ATOM      7  S   LIG    1       -2.336  -0.061  -1.519  0.00  0.00    -0.077 S 
ENDROOT
BRANCH   1   9
ATOM      8  C   LIG    1       -0.019   1.526   0.010  0.00  0.00    +0.009 C 
ATOM      9  C   LIG    1        0.002  -0.004   0.002  0.00  0.00    +0.008 C 
ATOM     10  C   LIG    1        0.742  -0.511   1.242  0.00  0.00    +0.009 C 
ENDBRANCH   1   9
BRANCH   5  11
ATOM     11  N   LIG    1       -4.549   1.538  -1.432  0.00  0.00    -0.322 N 
ATOM     12  H   LIG    1       -4.635   1.488  -2.397  0.00  0.00    +0.148 HD
BRANCH  11  13
ATOM     13  C   LIG    1       -5.511   2.319  -0.651  0.00  0.00    +0.075 C 
ATOM     14  C   LIG    1       -5.000   3.765  -0.457  0.00  0.00    +0.026 C 
ATOM     15  C   LIG    1       -6.077   4.659  -1.143  0.00  0.00    -0.009 C 
ATOM     16  C   LIG    1       -7.316   4.570  -0.200  0.00  0.00    +0.004 C 
ATOM     17  C   LIG    1       -7.838   3.126  -0.376  0.00  0.00    +0.005 C 
ATOM     18  C   LIG    1       -6.519   3.726  -2.325  0.00  0.00    +0.009 C 
ATOM     19  C   LIG    1       -6.850   2.473  -1.435  0.00  0.00    +0.010 C 
ENDBRANCH  11  13
ENDBRANCH   5  11
TORSDOF 3
