REMARK  Name = ZINC27183322
REMARK                            x       y       z     vdW  Elec       q    Type
REMARK                         _______ _______ _______ _____ _____    ______ ____
ROOT
ATOM      1  C   LIG    1       -0.026  -4.287   2.551  0.00  0.00    +0.195 A 
ATOM      2  N   LIG    1       -0.334  -5.400   3.293  0.00  0.00    -0.334 N 
ATOM      3  C   LIG    1        0.748  -5.656   4.104  0.00  0.00    +0.068 A 
ATOM      4  C   LIG    1        1.029  -6.627   5.057  0.00  0.00    +0.028 A 
ATOM      5  C   LIG    1        2.238  -6.614   5.719  0.00  0.00    +0.004 A 
ATOM      6  C   LIG    1        3.184  -5.637   5.444  0.00  0.00    +0.025 A 
ATOM      7  C   LIG    1        2.929  -4.659   4.501  0.00  0.00    +0.052 A 
ATOM      8  C   LIG    1        1.698  -4.658   3.815  0.00  0.00    +0.110 A 
ATOM      9  H   LIG    1       -1.158  -5.910   3.252  0.00  0.00    +0.168 HD
ATOM     10  N   LIG    1        1.173  -3.867   2.866  0.00  0.00    -0.222 NA
ENDROOT
BRANCH   1  16
ATOM     11  C   LIG    1       -0.745   1.698   0.716  0.00  0.00    +0.105 C 
ATOM     12  N   LIG    1       -0.474   0.264   0.547  0.00  0.00    -0.302 NA
ATOM     13  C   LIG    1       -1.704  -0.470   0.221  0.00  0.00    +0.103 C 
ATOM     14  C   LIG    1       -1.353  -1.921  -0.123  0.00  0.00    +0.123 C 
ATOM     15  N   LIG    1       -0.567  -2.487   0.983  0.00  0.00    -0.293 N 
ATOM     16  C   LIG    1       -0.911  -3.662   1.546  0.00  0.00    +0.282 C 
ATOM     17  O   LIG    1       -1.950  -4.208   1.228  0.00  0.00    -0.267 OA
ATOM     18  C   LIG    1        0.606  -1.737   1.458  0.00  0.00    +0.123 C 
ATOM     19  C   LIG    1        0.178  -0.293   1.741  0.00  0.00    +0.103 C 
ENDBRANCH   1  16
BRANCH   7  20
ATOM     20  N   LIG    1        3.883  -3.681   4.231  0.00  0.00    -0.356 N 
ATOM     21  H   LIG    1        3.701  -2.996   3.568  0.00  0.00    +0.142 HD
ATOM     22  H   LIG    1        4.729  -3.684   4.705  0.00  0.00    +0.142 HD
ENDBRANCH   7  20
TORSDOF 2
