REMARK  Name = ZINC27719441
REMARK                            x       y       z     vdW  Elec       q    Type
REMARK                         _______ _______ _______ _____ _____    ______ ____
ROOT
ATOM      1  C   LIG    1       -2.196   1.080  -1.206  0.00  0.00    -0.003 C 
ATOM      2  C   LIG    1       -0.754   1.593  -1.232  0.00  0.00    -0.019 C 
ATOM      3  C   LIG    1       -0.013   1.086   0.008  0.00  0.00    -0.078 C 
ATOM      4  N   LIG    1       -0.701   1.560   1.216  0.00  0.00    +0.386 N 
ATOM      5  H   LIG    1       -0.782   2.655   1.156  0.00  0.00    -0.081 HD
ATOM      6  C   LIG    1        0.078   1.261   2.423  0.00  0.00    -0.073 C 
ATOM      7  C   LIG    1       -0.458   2.117   3.585  0.00  0.00    +0.026 C 
ATOM      8  C   LIG    1       -1.945   2.020   3.571  0.00  0.00    +0.011 A 
ATOM      9  C   LIG    1       -2.724   1.540   2.565  0.00  0.00    +0.040 A 
ATOM     10  N   LIG    1       -4.035   1.552   2.787  0.00  0.00    -0.231 NA
ATOM     11  C   LIG    1       -4.551   2.002   3.913  0.00  0.00    +0.156 A 
ATOM     12  S   LIG    1       -3.133   2.473   4.803  0.00  0.00    -0.057 S 
ATOM     13  C   LIG    1       -2.069   1.034   1.286  0.00  0.00    -0.018 C 
ATOM     14  C   LIG    1       -2.873   1.543   0.088  0.00  0.00    -0.009 C 
ENDROOT
BRANCH  11  15
ATOM     15  N   LIG    1       -5.883   2.081   4.291  0.00  0.00    -0.338 N 
ATOM     16  H   LIG    1       -6.671   1.738   3.605  0.00  0.00    +0.144 HD
ATOM     17  H   LIG    1       -6.151   2.487   5.278  0.00  0.00    +0.144 HD
ENDBRANCH  11  15
TORSDOF 1
