REMARK  Name = ZINC15449154
REMARK                            x       y       z     vdW  Elec       q    Type
REMARK                         _______ _______ _______ _____ _____    ______ ____
ROOT
ATOM      1  C   LIG    1       -0.193   1.526   0.645  0.00  0.00    +0.013 C 
ATOM      2  C   LIG    1       -0.157   0.003   0.524  0.00  0.00    -0.009 C 
ATOM      3  C   LIG    1        0.076  -0.377  -0.935  0.00  0.00    +0.009 C 
ATOM      4  C   LIG    1        1.526  -0.108  -1.353  0.00  0.00    +0.016 C 
ATOM      5  C   LIG    1        2.458  -0.909  -0.462  0.00  0.00    +0.105 C 
ATOM      6  C   LIG    1        3.907  -0.755  -0.850  0.00  0.00    +0.311 C 
ATOM      7  O   LIG    1        4.803  -1.405  -0.072  0.00  0.00    -0.456 OA
ATOM      8  C   LIG    1        4.699  -1.215   1.340  0.00  0.00    +0.210 C 
ATOM      9  C   LIG    1        3.256  -1.352   1.824  0.00  0.00    +0.058 C 
ATOM     10  O   LIG    1        4.248  -0.093  -1.799  0.00  0.00    -0.250 OA
ATOM     11  C   LIG    1        2.325  -0.445   1.000  0.00  0.00    -0.005 C 
ATOM     12  C   LIG    1        2.822   0.992   1.133  0.00  0.00    +0.013 C 
ATOM     13  C   LIG    1       -1.525  -0.529   0.984  0.00  0.00    +0.107 C 
ATOM     14  C   LIG    1       -1.831  -0.097   2.415  0.00  0.00    +0.054 C 
ATOM     15  C   LIG    1       -0.758  -0.563   3.397  0.00  0.00    +0.181 C 
ATOM     16  C   LIG    1        0.613  -0.198   2.854  0.00  0.00    +0.166 C 
ATOM     17  O   LIG    1        1.407   0.384   3.544  0.00  0.00    -0.294 OA
ATOM     18  C   LIG    1        0.893  -0.625   1.435  0.00  0.00    +0.071 C 
ENDROOT
BRANCH   8  19
ATOM     19  C   LIG    1        5.541  -2.259   2.026  0.00  0.00    +0.030 A 
ATOM     20  C   LIG    1        6.275  -2.096   3.224  0.00  0.00    +0.048 A 
ATOM     21  C   LIG    1        6.877  -3.272   3.476  0.00  0.00    +0.195 A 
ATOM     22  O   LIG    1        6.549  -4.134   2.499  0.00  0.00    -0.471 OA
ATOM     23  C   LIG    1        5.736  -3.526   1.620  0.00  0.00    +0.202 A 
ENDBRANCH   8  19
BRANCH  13  24
ATOM     24  C   LIG    1       -2.602  -0.002   0.070  0.00  0.00    +0.311 C 
ATOM     25  O   LIG    1       -2.311   0.723  -0.852  0.00  0.00    -0.251 OA
BRANCH  24  26
ATOM     26  O   LIG    1       -3.885  -0.337   0.281  0.00  0.00    -0.468 OA
ATOM     27  C   LIG    1       -4.852   0.200  -0.624  0.00  0.00    +0.280 C 
ENDBRANCH  24  26
ENDBRANCH  13  24
BRANCH  15  28
ATOM     28  O   LIG    1       -0.950   0.075   4.662  0.00  0.00    -0.384 OA
ATOM     29  H   LIG    1       -0.300  -0.176   5.332  0.00  0.00    +0.210 HD
ENDBRANCH  15  28
TORSDOF 4
