REMARK  Name = ZINC19632949
REMARK                            x       y       z     vdW  Elec       q    Type
REMARK                         _______ _______ _______ _____ _____    ______ ____
ROOT
ATOM      1  C   LIG    1        0.465   1.308  -0.239  0.00  0.00    +0.018 C 
ATOM      2  C   LIG    1        0.215  -0.193  -0.087  0.00  0.00    +0.063 C 
ATOM      3  C   LIG    1       -1.263  -0.440   0.019  0.00  0.00    +0.061 C 
ATOM      4  C   LIG    1       -1.767  -1.300   0.921  0.00  0.00    +0.015 C 
ATOM      5  C   LIG    1       -3.256  -1.522   0.986  0.00  0.00    +0.061 C 
ATOM      6  N   LIG    1       -0.945  -1.974   1.782  0.00  0.00    -0.321 N 
ATOM      7  H   LIG    1       -1.271  -2.763   2.242  0.00  0.00    +0.152 HD
ATOM      8  C   LIG    1        0.335  -1.541   1.996  0.00  0.00    +0.015 C 
ATOM      9  C   LIG    1        1.091  -2.022   3.208  0.00  0.00    +0.061 C 
ATOM     10  C   LIG    1        0.926  -0.692   1.139  0.00  0.00    +0.061 C 
ENDROOT
BRANCH   3  11
ATOM     11  C   LIG    1       -2.143   0.247  -0.849  0.00  0.00    +0.337 C 
ATOM     12  O   LIG    1       -2.261  -0.113  -2.006  0.00  0.00    -0.245 OA
BRANCH  11  13
ATOM     13  O   LIG    1       -2.853   1.301  -0.395  0.00  0.00    -0.465 OA
ATOM     14  C   LIG    1       -3.723   1.948  -1.326  0.00  0.00    +0.280 C 
ENDBRANCH  11  13
ENDBRANCH   3  11
BRANCH  10  15
ATOM     15  C   LIG    1        2.247  -0.258   1.397  0.00  0.00    +0.337 C 
ATOM     16  O   LIG    1        2.796  -0.564   2.438  0.00  0.00    -0.245 OA
BRANCH  15  17
ATOM     17  O   LIG    1        2.899   0.496   0.487  0.00  0.00    -0.460 OA
BRANCH  17  18
ATOM     18  C   LIG    1        4.231   0.899   0.813  0.00  0.00    +0.243 C 
BRANCH  18  19
ATOM     19  C   LIG    1        4.803   1.740  -0.329  0.00  0.00    +0.115 C 
BRANCH  19  20
ATOM     20  S   LIG    1        6.494   2.252   0.085  0.00  0.00    -0.122 S 
BRANCH  20  21
ATOM     21  C   LIG    1        7.007   3.199  -1.310  0.00  0.00    +0.008 A 
ATOM     22  C   LIG    1        6.139   3.389  -2.379  0.00  0.00    +0.015 A 
ATOM     23  C   LIG    1        6.545   4.132  -3.470  0.00  0.00    +0.001 A 
ATOM     24  C   LIG    1        7.812   4.686  -3.500  0.00  0.00    +0.000 A 
ATOM     25  C   LIG    1        8.678   4.497  -2.438  0.00  0.00    +0.001 A 
ATOM     26  C   LIG    1        8.277   3.761  -1.341  0.00  0.00    +0.015 A 
ENDBRANCH  20  21
ENDBRANCH  19  20
ENDBRANCH  18  19
ENDBRANCH  17  18
ENDBRANCH  15  17
ENDBRANCH  10  15
TORSDOF 8
