REMARK  Name = ZINC42923782
REMARK                            x       y       z     vdW  Elec       q    Type
REMARK                         _______ _______ _______ _____ _____    ______ ____
ROOT
ATOM      1  C   LIG    1        3.691  -0.679  -0.037  0.00  0.00    -0.033 C 
ATOM      2  C   LIG    1        4.532  -0.580   1.016  0.00  0.00    +0.095 C 
ENDROOT
BRANCH   1   6
ATOM      3  C   LIG    1       -0.017   1.380   0.010  0.00  0.00    +0.000 A 
ATOM      4  C   LIG    1        1.168   2.096   0.002  0.00  0.00    +0.001 A 
ATOM      5  C   LIG    1        2.377   1.434  -0.013  0.00  0.00    +0.008 A 
ATOM      6  C   LIG    1        2.405   0.035  -0.021  0.00  0.00    -0.022 A 
ATOM      7  C   LIG    1        1.203  -0.681  -0.013  0.00  0.00    +0.008 A 
ATOM      8  C   LIG    1        0.002  -0.004   0.002  0.00  0.00    +0.001 A 
ENDBRANCH   1   6
BRANCH   2   9
ATOM      9  C   LIG    1        4.176   0.211   2.135  0.00  0.00    +0.330 C 
ATOM     10  O   LIG    1        3.105   0.805   2.149  0.00  0.00    -0.246 OA
BRANCH   9  11
ATOM     11  O   LIG    1        4.939   0.300   3.089  0.00  0.00    -0.478 OA
ATOM     12  H   LIG    1        5.758  -0.155   3.079  0.00  0.00    +0.295 HD
ENDBRANCH   9  11
ENDBRANCH   2   9
BRANCH   1  13
ATOM     13  C   LIG    1        4.070  -1.521  -1.228  0.00  0.00    +0.040 C 
BRANCH  13  14
ATOM     14  C   LIG    1        3.464  -2.917  -1.080  0.00  0.00    +0.040 C 
BRANCH  14  15
ATOM     15  C   LIG    1        3.843  -3.759  -2.271  0.00  0.00    -0.047 A 
ATOM     16  C   LIG    1        3.034  -3.774  -3.392  0.00  0.00    +0.005 A 
ATOM     17  C   LIG    1        3.382  -4.545  -4.485  0.00  0.00    +0.020 A 
ATOM     18  C   LIG    1        4.539  -5.303  -4.456  0.00  0.00    +0.041 A 
ATOM     19 CL   LIG    1        4.975  -6.273  -5.828  0.00  0.00    -0.084 Cl
ATOM     20  C   LIG    1        5.347  -5.288  -3.334  0.00  0.00    +0.020 A 
ATOM     21  C   LIG    1        5.002  -4.512  -2.244  0.00  0.00    +0.005 A 
ENDBRANCH  14  15
ENDBRANCH  13  14
ENDBRANCH   1  13
TORSDOF 6
