REMARK  Name = ZINC16603986
REMARK                            x       y       z     vdW  Elec       q    Type
REMARK                         _______ _______ _______ _____ _____    ______ ____
ROOT
ATOM      1  C   LIG    1       -0.070   5.330   0.030  0.00  0.00    +0.245 C 
ATOM      2  N   LIG    1       -1.246   5.988   0.045  0.00  0.00    -0.309 N 
ATOM      3  H   LIG    1       -2.080   5.492   0.050  0.00  0.00    +0.149 HD
ATOM      4  O   LIG    1        0.974   5.952   0.024  0.00  0.00    -0.270 OA
ENDROOT
BRANCH   2   5
ATOM      5  C   LIG    1       -1.266   7.453   0.053  0.00  0.00    +0.070 C 
ATOM      6  C   LIG    1       -1.142   7.959   1.493  0.00  0.00    +0.004 C 
ATOM      7  C   LIG    1       -1.225   9.487   1.501  0.00  0.00    -0.077 C 
ATOM      8  N   LIG    1       -2.528   9.900   0.938  0.00  0.00    +0.382 N 
ATOM      9  H   LIG    1       -3.280   9.449   1.473  0.00  0.00    -0.081 HD
ATOM     10  C   LIG    1       -2.627   9.479  -0.475  0.00  0.00    -0.077 C 
ATOM     11  C   LIG    1       -2.587   7.950  -0.542  0.00  0.00    +0.004 C 
BRANCH   8  12
ATOM     12  C   LIG    1       -2.680  11.366   1.040  0.00  0.00    -0.043 C 
BRANCH  12  13
ATOM     13  C   LIG    1       -2.794  11.742   2.494  0.00  0.00    -0.064 A 
ATOM     14  C   LIG    1       -4.035  11.783   3.102  0.00  0.00    +0.002 A 
ATOM     15  C   LIG    1       -4.140  12.123   4.438  0.00  0.00    +0.000 A 
ATOM     16  C   LIG    1       -3.005  12.433   5.163  0.00  0.00    +0.000 A 
ATOM     17  C   LIG    1       -1.764  12.398   4.554  0.00  0.00    +0.000 A 
ATOM     18  C   LIG    1       -1.659  12.052   3.220  0.00  0.00    +0.002 A 
ENDBRANCH  12  13
ENDBRANCH   8  12
ENDBRANCH   2   5
BRANCH   1  21
ATOM     19  C   LIG    1       -1.224   1.751   0.017  0.00  0.00    +0.124 A 
ATOM     20  C   LIG    1       -1.248   3.136   0.030  0.00  0.00    +0.059 A 
ATOM     21  C   LIG    1       -0.050   3.852   0.022  0.00  0.00    +0.044 A 
ATOM     22  C   LIG    1        1.166   3.169   0.007  0.00  0.00    +0.059 A 
ATOM     23  C   LIG    1        1.181   1.784   0.000  0.00  0.00    +0.124 A 
ATOM     24  C   LIG    1       -0.013   1.076   0.008  0.00  0.00    +0.091 A 
BRANCH  19  26
ATOM     25  C   LIG    1       -2.293  -0.373   0.012  0.00  0.00    +0.277 C 
ATOM     26  O   LIG    1       -2.390   1.053   0.019  0.00  0.00    -0.495 OA
ENDBRANCH  19  26
BRANCH  23  27
ATOM     27  O   LIG    1        2.365   1.117  -0.014  0.00  0.00    -0.495 OA
ATOM     28  C   LIG    1        2.306  -0.310  -0.020  0.00  0.00    +0.277 C 
ENDBRANCH  23  27
ENDBRANCH   1  21
TORSDOF 6
