REMARK  Name = ZINC49670025
REMARK                            x       y       z     vdW  Elec       q    Type
REMARK                         _______ _______ _______ _____ _____    ______ ____
ROOT
ATOM      1  N   LIG    1        3.623  -0.651  -0.037  0.00  0.00    -0.239 N 
ATOM      2  C   LIG    1        3.764  -1.990  -0.051  0.00  0.00    +0.123 A 
ATOM      3  C   LIG    1        5.117  -2.272  -0.066  0.00  0.00    +0.022 A 
ATOM      4  C   LIG    1        5.809  -0.978  -0.059  0.00  0.00    +0.100 A 
ATOM      5  N   LIG    1        4.882  -0.046  -0.048  0.00  0.00    -0.166 NA
ENDROOT
BRANCH   3   6
ATOM      6  C   LIG    1        5.739  -3.601  -0.084  0.00  0.00    +0.032 C 
ATOM      7  C   LIG    1        4.960  -4.715  -0.087  0.00  0.00    +0.077 C 
ATOM      8  C   LIG    1        5.354  -6.135  -0.098  0.00  0.00    +0.258 C 
ATOM      9  N   LIG    1        4.373  -7.023  -0.100  0.00  0.00    -0.254 N 
ATOM     10  C   LIG    1        3.079  -6.643  -0.092  0.00  0.00    +0.121 C 
ATOM     11  S   LIG    1        1.681  -7.630  -0.093  0.00  0.00    -0.027 S 
ATOM     12  O   LIG    1        6.523  -6.475  -0.104  0.00  0.00    -0.269 OA
ATOM     13  S   LIG    1        3.179  -4.860  -0.074  0.00  0.00    -0.061 S 
BRANCH   9  14
ATOM     14  C   LIG    1        4.700  -8.451  -0.111  0.00  0.00    +0.140 C 
BRANCH  14  15
ATOM     15  C   LIG    1        4.820  -8.958   1.328  0.00  0.00    +0.217 C 
BRANCH  15  16
ATOM     16  S   LIG    1        5.224 -10.726   1.314  0.00  0.00    +0.081 S 
ATOM     17  O   LIG    1        4.157 -11.419   0.611  0.00  0.00    -0.147 OA
ATOM     18  O   LIG    1        5.343 -11.230   2.674  0.00  0.00    -0.147 OA
BRANCH  16  19
ATOM     19  O   LIG    1        6.484 -10.886   0.605  0.00  0.00    -0.254 OA
ATOM     20  H   LIG    1        7.187 -10.420   1.084  0.00  0.00    +0.244 HD
ENDBRANCH  16  19
ENDBRANCH  15  16
ENDBRANCH  14  15
ENDBRANCH   9  14
ENDBRANCH   3   6
BRANCH   1  24
ATOM     21  C   LIG    1       -0.017   1.379   0.010  0.00  0.00    +0.000 A 
ATOM     22  C   LIG    1        1.170   2.089   0.002  0.00  0.00    +0.002 A 
ATOM     23  C   LIG    1        2.377   1.419  -0.013  0.00  0.00    +0.028 A 
ATOM     24  C   LIG    1        2.400   0.031  -0.021  0.00  0.00    +0.065 A 
ATOM     25  C   LIG    1        1.206  -0.680  -0.013  0.00  0.00    +0.028 A 
ATOM     26  C   LIG    1        0.002  -0.004   0.002  0.00  0.00    +0.002 A 
ENDBRANCH   1  24
BRANCH   4  27
ATOM     27  C   LIG    1        7.275  -0.762  -0.070  0.00  0.00    +0.003 A 
ATOM     28  C   LIG    1        8.118  -1.647   0.602  0.00  0.00    +0.012 A 
ATOM     29  C   LIG    1        9.482  -1.441   0.588  0.00  0.00    +0.029 A 
ATOM     30  C   LIG    1       10.015  -0.359  -0.089  0.00  0.00    +0.106 A 
ATOM     31  C   LIG    1        9.184   0.523  -0.757  0.00  0.00    +0.029 A 
ATOM     32  C   LIG    1        7.818   0.324  -0.756  0.00  0.00    +0.012 A 
BRANCH  30  33
ATOM     33  S   LIG    1       11.758  -0.102  -0.101  0.00  0.00    +0.061 S 
ATOM     34  O   LIG    1       12.272  -0.756   1.050  0.00  0.00    -0.153 OA
ATOM     35  O   LIG    1       11.963   1.282  -0.347  0.00  0.00    -0.153 OA
BRANCH  33  36
ATOM     36  N   LIG    1       12.363  -0.910  -1.414  0.00  0.00    -0.177 NA
ATOM     37  C   LIG    1       12.788  -2.312  -1.300  0.00  0.00    +0.109 C 
ATOM     38  C   LIG    1       12.070  -3.134  -2.376  0.00  0.00    +0.017 C 
ATOM     39  C   LIG    1       12.330  -2.508  -3.748  0.00  0.00    +0.003 C 
ATOM     40  C   LIG    1       11.771  -1.084  -3.775  0.00  0.00    +0.017 C 
ATOM     41  C   LIG    1       12.479  -0.240  -2.717  0.00  0.00    +0.109 C 
ENDBRANCH  33  36
ENDBRANCH  30  33
ENDBRANCH   4  27
TORSDOF 9
