REMARK  Name = ZINC28232222
REMARK                            x       y       z     vdW  Elec       q    Type
REMARK                         _______ _______ _______ _____ _____    ______ ____
ROOT
ATOM      1  N   LIG    1       -1.639   4.834   2.661  0.00  0.00    -0.333 N 
ATOM      2  C   LIG    1       -0.273   5.376   2.627  0.00  0.00    +0.086 C 
ATOM      3  C   LIG    1        0.404   4.966   1.317  0.00  0.00    -0.059 C 
ATOM      4  N   LIG    1        0.419   3.500   1.216  0.00  0.00    +0.385 N 
ATOM      5  H   LIG    1        0.963   3.104   2.086  0.00  0.00    -0.081 HD
ATOM      6  C   LIG    1       -0.947   2.958   1.249  0.00  0.00    -0.059 C 
ATOM      7  C   LIG    1       -1.623   3.368   2.559  0.00  0.00    +0.086 C 
ENDROOT
BRANCH   1  14
ATOM      8  C   LIG    1       -2.057   4.815   7.558  0.00  0.00    +0.044 C 
ATOM      9  C   LIG    1       -2.538   5.255   6.199  0.00  0.00    -0.049 A 
ATOM     10  C   LIG    1       -3.649   6.071   6.091  0.00  0.00    +0.004 A 
ATOM     11  C   LIG    1       -4.094   6.477   4.847  0.00  0.00    +0.005 A 
ATOM     12  C   LIG    1       -3.427   6.072   3.707  0.00  0.00    -0.029 A 
ATOM     13  C   LIG    1       -3.909   6.520   2.351  0.00  0.00    +0.045 C 
ATOM     14  C   LIG    1       -2.313   5.249   3.812  0.00  0.00    +0.033 A 
ATOM     15  C   LIG    1       -1.869   4.843   5.064  0.00  0.00    +0.026 A 
ENDBRANCH   1  14
BRANCH   4  16
ATOM     16  C   LIG    1        1.129   3.064   0.005  0.00  0.00    -0.039 C 
ATOM     17  C   LIG    1        1.140   1.535  -0.056  0.00  0.00    -0.013 C 
ATOM     18  C   LIG    1        1.879   1.081  -1.317  0.00  0.00    -0.001 C 
ATOM     19  C   LIG    1        3.317   1.600  -1.279  0.00  0.00    +0.002 C 
ATOM     20  C   LIG    1        3.307   3.129  -1.217  0.00  0.00    +0.030 C 
ATOM     21  C   LIG    1        2.567   3.583   0.043  0.00  0.00    +0.101 C 
BRANCH  21  22
ATOM     22  O   LIG    1        3.231   3.064   1.197  0.00  0.00    -0.393 OA
ATOM     23  H   LIG    1        4.280   3.330   1.394  0.00  0.00    +0.210 HD
ENDBRANCH  21  22
ENDBRANCH   4  16
TORSDOF 3
