REMARK  Name = ZINC16037308
REMARK                            x       y       z     vdW  Elec       q    Type
REMARK                         _______ _______ _______ _____ _____    ______ ____
ROOT
ATOM      1  C   LIG    1       -5.636   1.100   1.283  0.00  0.00    +0.028 C 
ATOM      2  C   LIG    1       -4.947   0.940  -0.074  0.00  0.00    +0.081 C 
ATOM      3  C   LIG    1       -5.829   1.535  -1.179  0.00  0.00    +0.049 C 
ATOM      4  C   LIG    1       -6.125   2.996  -0.841  0.00  0.00    +0.107 C 
ATOM      5  C   LIG    1       -4.850   3.737  -0.539  0.00  0.00    -0.006 A 
ATOM      6  C   LIG    1       -4.839   5.119  -0.632  0.00  0.00    +0.007 A 
ATOM      7  C   LIG    1       -3.685   5.827  -0.360  0.00  0.00    +0.000 A 
ATOM      8  C   LIG    1       -2.531   5.160   0.010  0.00  0.00    +0.002 A 
ATOM      9  C   LIG    1       -2.533   3.783   0.104  0.00  0.00    +0.024 A 
ATOM     10  C   LIG    1       -3.693   3.068  -0.166  0.00  0.00    +0.042 A 
ATOM     11  N   LIG    1       -3.672   1.670  -0.074  0.00  0.00    -0.264 N 
ATOM     12  C   LIG    1       -2.503   1.007   0.019  0.00  0.00    +0.251 C 
ATOM     13  O   LIG    1       -1.457   1.625   0.080  0.00  0.00    -0.270 OA
ENDROOT
BRANCH  12  14
ATOM     14  C   LIG    1       -2.491  -0.470   0.046  0.00  0.00    +0.037 A 
ATOM     15  C   LIG    1       -1.627  -1.180  -0.789  0.00  0.00    +0.013 A 
ATOM     16  C   LIG    1       -1.617  -2.559  -0.754  0.00  0.00    +0.001 A 
ATOM     17  C   LIG    1       -2.465  -3.239   0.103  0.00  0.00    +0.000 A 
ATOM     18  C   LIG    1       -3.328  -2.542   0.929  0.00  0.00    +0.001 A 
ATOM     19  C   LIG    1       -3.348  -1.162   0.904  0.00  0.00    +0.013 A 
ENDBRANCH  12  14
BRANCH   4  20
ATOM     20  N   LIG    1       -6.794   3.630  -1.980  0.00  0.00    -0.309 N 
ATOM     21  H   LIG    1       -6.665   3.279  -2.875  0.00  0.00    +0.149 HD
ATOM     22  C   LIG    1       -7.589   4.701  -1.784  0.00  0.00    +0.210 C 
ATOM     23  C   LIG    1       -8.277   5.353  -2.956  0.00  0.00    +0.109 C 
ATOM     24  O   LIG    1       -7.750   5.140  -0.665  0.00  0.00    -0.276 OA
ENDBRANCH   4  20
TORSDOF 2
