REMARK  Name = ZINC49072985
REMARK                            x       y       z     vdW  Elec       q    Type
REMARK                         _______ _______ _______ _____ _____    ______ ____
ROOT
ATOM      1  N   LIG    1        5.450  -1.686   1.373  0.00  0.00    +0.382 N 
ATOM      2  H   LIG    1        6.121  -1.159   0.834  0.00  0.00    -0.082 HD
ATOM      3  C   LIG    1        5.271  -3.011   0.766  0.00  0.00    -0.060 C 
ATOM      4  C   LIG    1        6.630  -3.708   0.653  0.00  0.00    +0.086 C 
ATOM      5  N   LIG    1        7.255  -3.730   1.984  0.00  0.00    -0.332 N 
ATOM      6  C   LIG    1        7.329  -2.468   2.736  0.00  0.00    +0.086 C 
ATOM      7  C   LIG    1        5.937  -1.829   2.751  0.00  0.00    -0.060 C 
ENDROOT
BRANCH   5   8
ATOM      8  C   LIG    1        7.764  -4.916   2.520  0.00  0.00    +0.048 A 
ATOM      9  C   LIG    1        7.590  -6.125   1.851  0.00  0.00    +0.026 A 
ATOM     10  C   LIG    1        8.112  -7.274   2.421  0.00  0.00    +0.021 A 
ATOM     11  C   LIG    1        8.783  -7.184   3.627  0.00  0.00    +0.111 A 
ATOM     12  N   LIG    1        8.931  -6.024   4.236  0.00  0.00    -0.261 NA
ATOM     13  C   LIG    1        8.455  -4.906   3.724  0.00  0.00    +0.133 A 
ENDBRANCH   5   8
BRANCH   1  14
ATOM     14  C   LIG    1        4.165  -0.974   1.381  0.00  0.00    -0.074 C 
BRANCH  14  15
ATOM     15  C   LIG    1        3.718  -0.714  -0.059  0.00  0.00    +0.016 C 
BRANCH  15  19
ATOM     16  C   LIG    1       -0.020   1.355  -0.039  0.00  0.00    +0.000 A 
ATOM     17  C   LIG    1        1.165   2.067  -0.032  0.00  0.00    +0.000 A 
ATOM     18  C   LIG    1        2.374   1.398  -0.039  0.00  0.00    +0.003 A 
ATOM     19  C   LIG    1        2.399   0.016  -0.051  0.00  0.00    -0.049 A 
ATOM     20  C   LIG    1        1.215  -0.697  -0.057  0.00  0.00    +0.003 A 
ATOM     21  C   LIG    1        0.005  -0.027  -0.052  0.00  0.00    +0.000 A 
ENDBRANCH  15  19
ENDBRANCH  14  15
ENDBRANCH   1  14
TORSDOF 4
