REMARK  Name = ZINC19632891
REMARK                            x       y       z     vdW  Elec       q    Type
REMARK                         _______ _______ _______ _____ _____    ______ ____
ROOT
ATOM      1  N   LIG    1        5.087  -3.681   1.066  0.00  0.00    -0.302 NA
ATOM      2  C   LIG    1        4.094  -4.753   0.907  0.00  0.00    +0.066 C 
ATOM      3  C   LIG    1        4.141  -5.673   2.129  0.00  0.00    -0.062 C 
ATOM      4  N   LIG    1        5.488  -6.244   2.260  0.00  0.00    +0.389 N 
ATOM      5  H   LIG    1        5.715  -6.765   1.426  0.00  0.00    -0.080 HD
ATOM      6  C   LIG    1        6.465  -5.163   2.443  0.00  0.00    -0.062 C 
ATOM      7  C   LIG    1        6.437  -4.239   1.223  0.00  0.00    +0.066 C 
ENDROOT
BRANCH   1   8
ATOM      8  C   LIG    1        5.033  -2.743  -0.063  0.00  0.00    +0.111 C 
BRANCH   8  10
ATOM      9  C   LIG    1        3.695  -0.685  -0.038  0.00  0.00    +0.005 C 
ATOM     10  C   LIG    1        3.716  -2.010  -0.046  0.00  0.00    -0.011 C 
BRANCH   9  14
ATOM     11  C   LIG    1       -0.017   1.379   0.010  0.00  0.00    +0.000 A 
ATOM     12  C   LIG    1        1.168   2.093   0.002  0.00  0.00    +0.001 A 
ATOM     13  C   LIG    1        2.377   1.429  -0.013  0.00  0.00    +0.008 A 
ATOM     14  C   LIG    1        2.403   0.034  -0.021  0.00  0.00    -0.025 A 
ATOM     15  C   LIG    1        1.204  -0.681  -0.013  0.00  0.00    +0.008 A 
ATOM     16  C   LIG    1        0.002  -0.004   0.002  0.00  0.00    +0.001 A 
ENDBRANCH   9  14
ENDBRANCH   8  10
ENDBRANCH   1   8
BRANCH   4  17
ATOM     17  C   LIG    1        5.528  -7.141   3.423  0.00  0.00    -0.007 C 
BRANCH  17  18
ATOM     18  C   LIG    1        6.910  -7.728   3.558  0.00  0.00    -0.057 A 
ATOM     19  C   LIG    1        7.610  -8.114   2.430  0.00  0.00    +0.002 A 
ATOM     20  C   LIG    1        8.877  -8.652   2.554  0.00  0.00    +0.000 A 
ATOM     21  C   LIG    1        9.445  -8.803   3.805  0.00  0.00    +0.000 A 
ATOM     22  C   LIG    1        8.745  -8.416   4.933  0.00  0.00    +0.000 A 
ATOM     23  C   LIG    1        7.479  -7.874   4.809  0.00  0.00    +0.002 A 
ENDBRANCH  17  18
BRANCH  17  24
ATOM     24  C   LIG    1        4.527  -8.252   3.235  0.00  0.00    -0.057 A 
ATOM     25  C   LIG    1        4.369  -8.837   1.993  0.00  0.00    +0.002 A 
ATOM     26  C   LIG    1        3.450  -9.856   1.821  0.00  0.00    +0.000 A 
ATOM     27  C   LIG    1        2.691 -10.290   2.891  0.00  0.00    +0.000 A 
ATOM     28  C   LIG    1        2.850  -9.706   4.134  0.00  0.00    +0.000 A 
ATOM     29  C   LIG    1        3.772  -8.690   4.307  0.00  0.00    +0.002 A 
ENDBRANCH  17  24
ENDBRANCH   4  17
TORSDOF 6
