REMARK  Name = ZINC00016359
REMARK                            x       y       z     vdW  Elec       q    Type
REMARK                         _______ _______ _______ _____ _____    ______ ____
ROOT
ATOM      1  C   LIG    1       -0.018   1.466   0.009  0.00  0.00    +0.055 A 
ATOM      2  C   LIG    1        1.176   2.130  -0.011  0.00  0.00    +0.100 A 
ATOM      3  N   LIG    1        2.340   1.417  -0.027  0.00  0.00    -0.314 N 
ATOM      4  C   LIG    1        2.338   0.074  -0.024  0.00  0.00    +0.327 A 
ATOM      5  N   LIG    1        1.196  -0.635  -0.005  0.00  0.00    -0.275 N 
ATOM      6  H   LIG    1        1.230  -1.634  -0.003  0.00  0.00    +0.173 HD
ATOM      7  O   LIG    1        3.400  -0.518  -0.038  0.00  0.00    -0.247 OA
ATOM      8  H   LIG    1        3.212   1.905  -0.040  0.00  0.00    +0.170 HD
ATOM      9  C   LIG    1        0.002  -0.004   0.012  0.00  0.00    +0.261 A 
ATOM     10  O   LIG    1       -1.036  -0.639   0.029  0.00  0.00    -0.267 OA
ENDROOT
BRANCH   1  12
ATOM     11  C   LIG    1       -2.444   1.548  -0.072  0.00  0.00    +0.009 C 
ATOM     12  C   LIG    1       -1.296   2.206   0.020  0.00  0.00    +0.007 C 
ENDBRANCH   1  12
TORSDOF 1
