REMARK  Name = ZINC20149028
REMARK                            x       y       z     vdW  Elec       q    Type
REMARK                         _______ _______ _______ _____ _____    ______ ____
ROOT
ATOM      1  C   LIG    1        4.753   1.105   2.036  0.00  0.00    +0.018 A 
ATOM      2  C   LIG    1        5.081   1.441   3.365  0.00  0.00    +0.042 A 
ATOM      3  CA  LIG    1        5.006   0.292   4.101  0.00  0.00    +0.102 A 
ATOM      4  N   LIG    1        4.641  -0.734   3.260  0.00  0.00    -0.356 N 
ATOM      5  H   LIG    1        4.515  -1.659   3.523  0.00  0.00    +0.165 HD
ATOM      6  C   LIG    1        4.481  -0.247   2.013  0.00  0.00    +0.093 A 
ENDROOT
BRANCH   1  12
ATOM      7  C   LIG    1        3.690   2.116  -0.062  0.00  0.00    +0.027 A 
ATOM      8  C   LIG    1        4.051   3.130  -0.969  0.00  0.00    +0.143 A 
ATOM      9  N   LIG    1        5.205   3.622  -0.604  0.00  0.00    -0.181 NA
ATOM     10  N   LIG    1        5.643   2.956   0.547  0.00  0.00    -0.276 N 
ATOM     11  H   LIG    1        6.470   3.127   1.023  0.00  0.00    +0.189 HD
ATOM     12  C   LIG    1        4.703   2.029   0.883  0.00  0.00    +0.075 A 
BRANCH   7  15
ATOM     13  C   LIG    1        0.459   0.488   0.956  0.00  0.00    +0.002 A 
ATOM     14  C   LIG    1        1.608   1.252   1.001  0.00  0.00    +0.009 A 
ATOM     15  C   LIG    1        2.455   1.298  -0.105  0.00  0.00    -0.013 A 
ATOM     16  C   LIG    1        2.136   0.572  -1.251  0.00  0.00    +0.028 A 
ATOM     17  C   LIG    1        0.984  -0.189  -1.285  0.00  0.00    +0.042 A 
ATOM     18 CL   LIG    1        0.585  -1.094  -2.712  0.00  0.00    -0.084 Cl
ATOM     19  C   LIG    1        0.146  -0.230  -0.183  0.00  0.00    +0.020 A 
ENDBRANCH   7  15
ENDBRANCH   1  12
BRANCH   3  20
ATOM     20  C   LIG    1        5.269   0.173   5.539  0.00  0.00    +0.261 C 
ATOM     21  N   LIG    1        5.158  -1.024   6.148  0.00  0.00    -0.301 N 
ATOM     22  H   LIG    1        4.905  -1.807   5.635  0.00  0.00    +0.150 HD
ATOM     23  O   LIG    1        5.586   1.156   6.183  0.00  0.00    -0.269 OA
BRANCH  21  24
ATOM     24  CA  LIG    1        5.421  -1.143   7.584  0.00  0.00    +0.129 C 
BRANCH  24  25
ATOM     25  C   LIG    1        4.677  -2.333   8.134  0.00  0.00    -0.023 A 
ATOM     26  C   LIG    1        4.614  -3.506   7.405  0.00  0.00    +0.008 A 
ATOM     27  C   LIG    1        3.933  -4.598   7.907  0.00  0.00    +0.040 A 
ATOM     28  C   LIG    1        3.313  -4.518   9.143  0.00  0.00    +0.142 A 
ATOM     29  F   LIG    1        2.646  -5.585   9.635  0.00  0.00    -0.204 F 
ATOM     30  C   LIG    1        3.376  -3.342   9.873  0.00  0.00    +0.076 A 
ATOM     31 CL   LIG    1        2.599  -3.239  11.422  0.00  0.00    -0.081 Cl
ATOM     32  C   LIG    1        4.063  -2.252   9.370  0.00  0.00    +0.028 A 
ENDBRANCH  24  25
BRANCH  24  33
ATOM     33  C   LIG    1        6.922  -1.329   7.815  0.00  0.00    +0.182 C 
BRANCH  33  34
ATOM     34  O   LIG    1        7.340  -2.573   7.250  0.00  0.00    -0.393 OA
ATOM     35  H   LIG    1        8.283  -2.757   7.359  0.00  0.00    +0.209 HD
ENDBRANCH  33  34
ENDBRANCH  24  33
ENDBRANCH  21  24
ENDBRANCH   3  20
TORSDOF 7
