REMARK  Name = ZINC13831337
REMARK                            x       y       z     vdW  Elec       q    Type
REMARK                         _______ _______ _______ _____ _____    ______ ____
ROOT
ATOM      1  C   LIG    1       -0.993  -4.716  -0.234  0.00  0.00    +0.128 A 
ATOM      2  C   LIG    1       -2.174  -4.159   0.247  0.00  0.00    +0.087 A 
ATOM      3  C   LIG    1       -2.265  -2.773   0.327  0.00  0.00    +0.128 A 
ATOM      4  N   LIG    1       -1.226  -2.034  -0.058  0.00  0.00    -0.221 NA
ATOM      5  C   LIG    1       -0.125  -2.599  -0.509  0.00  0.00    +0.225 A 
ATOM      6  N   LIG    1        0.002  -3.907  -0.595  0.00  0.00    -0.221 NA
ENDROOT
BRANCH   1   7
ATOM      7  N   LIG    1       -0.852  -6.092  -0.333  0.00  0.00    -0.299 N 
ATOM      8  H   LIG    1       -1.613  -6.671  -0.169  0.00  0.00    +0.154 HD
BRANCH   7  13
ATOM      9  C   LIG    1        2.478  -6.505  -1.834  0.00  0.00    +0.002 A 
ATOM     10  C   LIG    1        2.839  -7.742  -1.332  0.00  0.00    +0.012 A 
ATOM     11  C   LIG    1        1.978  -8.432  -0.499  0.00  0.00    +0.057 A 
ATOM     12  C   LIG    1        0.753  -7.888  -0.166  0.00  0.00    +0.035 A 
ATOM     13  C   LIG    1        0.387  -6.646  -0.668  0.00  0.00    +0.033 A 
ATOM     14  C   LIG    1        1.255  -5.955  -1.504  0.00  0.00    +0.023 A 
BRANCH  11  15
ATOM     15  C   LIG    1        2.376  -9.780   0.044  0.00  0.00    +0.417 C 
ATOM     16  F   LIG    1        1.452 -10.743  -0.374  0.00  0.00    -0.166 F 
ATOM     17  F   LIG    1        2.397  -9.731   1.442  0.00  0.00    -0.166 F 
ATOM     18  F   LIG    1        3.648 -10.117  -0.430  0.00  0.00    -0.166 F 
ENDBRANCH  11  15
ENDBRANCH   7  13
ENDBRANCH   1   7
BRANCH   3  19
ATOM     19  N   LIG    1       -3.422  -2.170   0.800  0.00  0.00    -0.299 N 
ATOM     20  H   LIG    1       -4.123  -2.710   1.196  0.00  0.00    +0.154 HD
BRANCH  19  21
ATOM     21  C   LIG    1       -3.576  -0.784   0.706  0.00  0.00    +0.034 A 
ATOM     22  C   LIG    1       -2.457   0.040   0.679  0.00  0.00    +0.023 A 
ATOM     23  C   LIG    1       -2.609   1.410   0.585  0.00  0.00    +0.004 A 
ATOM     24  C   LIG    1       -3.872   1.965   0.519  0.00  0.00    +0.023 A 
ATOM     25  C   LIG    1       -4.995   1.147   0.545  0.00  0.00    +0.035 A 
ATOM     26  C   LIG    1       -4.846  -0.230   0.633  0.00  0.00    +0.046 A 
BRANCH  25  27
ATOM     27  N   LIG    1       -6.274   1.710   0.478  0.00  0.00    -0.285 N 
ATOM     28  H   LIG    1       -7.021   1.269   0.911  0.00  0.00    +0.155 HD
ATOM     29  C   LIG    1       -6.467   2.866  -0.188  0.00  0.00    +0.220 C 
ATOM     30  O   LIG    1       -5.581   3.324  -0.878  0.00  0.00    -0.275 OA
BRANCH  29  31
ATOM     31  C   LIG    1       -7.784   3.590  -0.075  0.00  0.00    +0.075 C 
ATOM     32  C   LIG    1       -8.674   3.636  -1.319  0.00  0.00    +0.013 C 
ATOM     33  C   LIG    1       -7.941   4.896  -0.855  0.00  0.00    +0.013 C 
ENDBRANCH  29  31
ENDBRANCH  25  27
ENDBRANCH  19  21
ENDBRANCH   3  19
TORSDOF 7
