REMARK  Name = ZINC28635561
REMARK                            x       y       z     vdW  Elec       q    Type
REMARK                         _______ _______ _______ _____ _____    ______ ____
ROOT
ATOM      1  C   LIG    1       -6.640   0.212  -0.795  0.00  0.00    -0.074 C 
ENDROOT
BRANCH   1   2
ATOM      2  N   LIG    1       -5.304   0.816  -0.704  0.00  0.00    +0.380 N 
ATOM      3  H   LIG    1       -5.343   1.801  -1.193  0.00  0.00    -0.082 HD
ATOM      4  C   LIG    1       -4.917   1.027   0.696  0.00  0.00    -0.076 C 
ATOM      5  C   LIG    1       -3.589   1.788   0.750  0.00  0.00    +0.021 C 
ATOM      6  C   LIG    1       -2.514   0.980   0.019  0.00  0.00    +0.088 C 
ATOM      7  C   LIG    1       -2.964   0.732  -1.423  0.00  0.00    +0.021 C 
ATOM      8  C   LIG    1       -4.309   0.003  -1.414  0.00  0.00    -0.076 C 
BRANCH   6   9
ATOM      9  C   LIG    1       -1.219   1.751   0.017  0.00  0.00    -0.016 A 
ATOM     10  C   LIG    1       -0.013   1.076   0.008  0.00  0.00    +0.006 A 
ATOM     11  C   LIG    1        1.175   1.783   0.000  0.00  0.00    +0.000 A 
ATOM     12  C   LIG    1        1.156   3.165   0.008  0.00  0.00    +0.000 A 
ATOM     13  C   LIG    1       -0.050   3.840   0.023  0.00  0.00    +0.000 A 
ATOM     14  C   LIG    1       -1.238   3.133   0.029  0.00  0.00    +0.006 A 
ENDBRANCH   6   9
BRANCH   6  15
ATOM     15  O   LIG    1       -2.323  -0.272   0.682  0.00  0.00    -0.384 OA
ATOM     16  H   LIG    1       -1.585  -0.991   0.298  0.00  0.00    +0.211 HD
ENDBRANCH   6  15
ENDBRANCH   1   2
BRANCH   1  19
ATOM     17  C   LIG    1       -8.440  -0.454  -2.573  0.00  0.00    +0.094 C 
ATOM     18  C   LIG    1       -8.351   1.074  -2.577  0.00  0.00    +0.026 C 
ATOM     19  C   LIG    1       -7.113   0.237  -2.250  0.00  0.00    -0.005 C 
BRANCH  17  24
ATOM     20  C   LIG    1       -8.888  -3.110  -7.686  0.00  0.00    +0.044 C 
ATOM     21  C   LIG    1       -8.771  -2.417  -6.353  0.00  0.00    -0.050 A 
ATOM     22  C   LIG    1       -9.839  -2.423  -5.475  0.00  0.00    +0.003 A 
ATOM     23  C   LIG    1       -9.732  -1.787  -4.252  0.00  0.00    +0.005 A 
ATOM     24  C   LIG    1       -8.557  -1.147  -3.907  0.00  0.00    -0.030 A 
ATOM     25  C   LIG    1       -7.490  -1.137  -4.786  0.00  0.00    +0.005 A 
ATOM     26  C   LIG    1       -7.596  -1.776  -6.008  0.00  0.00    +0.003 A 
ENDBRANCH  17  24
BRANCH  17  27
ATOM     27  C   LIG    1       -9.181  -1.106  -1.435  0.00  0.00    +0.318 C 
ATOM     28  O   LIG    1       -8.723  -1.071  -0.317  0.00  0.00    -0.250 OA
BRANCH  27  29
ATOM     29  O   LIG    1      -10.349  -1.726  -1.662  0.00  0.00    -0.467 OA
ATOM     30  C   LIG    1      -11.007  -2.332  -0.518  0.00  0.00    +0.280 C 
ENDBRANCH  27  29
ENDBRANCH  17  27
ENDBRANCH   1  19
TORSDOF 7
