REMARK  Name = ZINC40381421
REMARK                            x       y       z     vdW  Elec       q    Type
REMARK                         _______ _______ _______ _____ _____    ______ ____
ROOT
ATOM      1  C   LIG    1        5.965   2.708   2.924  0.00  0.00    +0.069 A 
ATOM      2  C   LIG    1        5.173   2.402   4.023  0.00  0.00    +0.028 A 
ATOM      3  C   LIG    1        5.638   2.653   5.299  0.00  0.00    +0.030 A 
ATOM      4  C   LIG    1        6.890   3.209   5.485  0.00  0.00    +0.108 A 
ATOM      5  C   LIG    1        7.683   3.516   4.394  0.00  0.00    +0.068 A 
ATOM      6  C   LIG    1        7.226   3.262   3.113  0.00  0.00    +0.146 A 
ATOM      7  F   LIG    1        8.003   3.557   2.048  0.00  0.00    -0.203 F 
ENDROOT
BRANCH   1   9
ATOM      8  C   LIG    1        4.186   2.595   1.347  0.00  0.00    +0.222 C 
ATOM      9  N   LIG    1        5.497   2.455   1.629  0.00  0.00    -0.283 N 
ATOM     10  H   LIG    1        6.115   2.179   0.935  0.00  0.00    +0.155 HD
ATOM     11  O   LIG    1        3.400   2.861   2.232  0.00  0.00    -0.275 OA
BRANCH   8  12
ATOM     12  C   LIG    1        3.697   2.420  -0.068  0.00  0.00    +0.138 C 
BRANCH  12  15
ATOM     13  C   LIG    1        0.127   3.724  -0.317  0.00  0.00    +0.008 A 
ATOM     14  C   LIG    1        1.508   3.772  -0.316  0.00  0.00    +0.011 A 
ATOM     15  C   LIG    1        2.205   2.627  -0.113  0.00  0.00    -0.001 A 
ATOM     16  S   LIG    1        0.897   1.429   0.087  0.00  0.00    -0.101 S 
ATOM     17  C   LIG    1       -0.490   2.534  -0.114  0.00  0.00    +0.045 A 
ENDBRANCH  12  15
ENDBRANCH   8  12
ENDBRANCH   1   9
BRANCH   4  18
ATOM     18  S   LIG    1        7.478   3.527   7.115  0.00  0.00    +0.056 S 
ATOM     19  O   LIG    1        6.330   3.656   7.942  0.00  0.00    -0.153 OA
ATOM     20  O   LIG    1        8.455   4.553   7.002  0.00  0.00    -0.153 OA
BRANCH  18  21
ATOM     21  N   LIG    1        8.276   2.167   7.622  0.00  0.00    -0.204 NA
ATOM     22  H   LIG    1        8.677   2.142   8.505  0.00  0.00    +0.144 HD
ATOM     23  H   LIG    1        8.342   1.397   7.037  0.00  0.00    +0.144 HD
ENDBRANCH  18  21
ENDBRANCH   4  18
TORSDOF 5
