REMARK  Name = ZINC19227925
REMARK                            x       y       z     vdW  Elec       q    Type
REMARK                         _______ _______ _______ _____ _____    ______ ____
ROOT
ATOM      1  C   LIG    1       -1.611  -1.723   0.600  0.00  0.00    +0.285 C 
ATOM      2  C   LIG    1       -2.818  -2.323   0.315  0.00  0.00    +0.065 C 
ATOM      3  C   LIG    1       -3.019  -3.819   0.486  0.00  0.00    +0.096 C 
ATOM      4  C   LIG    1       -4.399  -4.345   0.135  0.00  0.00    +0.069 C 
ATOM      5  C   LIG    1       -5.328  -3.443  -0.299  0.00  0.00    +0.049 C 
ATOM      6  C   LIG    1       -6.707  -3.936  -0.655  0.00  0.00    +0.066 C 
ATOM      7  N   LIG    1       -5.062  -2.151  -0.418  0.00  0.00    -0.256 NA
ATOM      8  C   LIG    1       -3.911  -1.583  -0.140  0.00  0.00    +0.049 C 
ATOM      9  C   LIG    1       -3.764  -0.094  -0.321  0.00  0.00    +0.066 C 
ENDROOT
BRANCH   3  10
ATOM     10  C   LIG    1       -2.013  -4.532  -0.379  0.00  0.00    -0.033 A 
ATOM     11  C   LIG    1       -2.009  -4.327  -1.746  0.00  0.00    +0.005 A 
ATOM     12  C   LIG    1       -1.086  -4.981  -2.541  0.00  0.00    +0.003 A 
ATOM     13  C   LIG    1       -0.167  -5.840  -1.967  0.00  0.00    +0.032 A 
ATOM     14  C   LIG    1       -0.170  -6.045  -0.601  0.00  0.00    +0.122 A 
ATOM     15  C   LIG    1       -1.091  -5.387   0.194  0.00  0.00    +0.037 A 
BRANCH  14  16
ATOM     16  N   LIG    1        0.813  -6.965   0.013  0.00  0.00    +0.006 N 
ATOM     17  O   LIG    1        1.620  -7.538  -0.682  0.00  0.00    -0.130 OA
BRANCH  16  18
ATOM     18  O   LIG    1        0.810  -7.144   1.209  0.00  0.00    -0.396 OA
ATOM     19  H   LIG    1        0.185  -6.700   1.747  0.00  0.00    +0.329 HD
ENDBRANCH  16  18
ENDBRANCH  14  16
ENDBRANCH   3  10
BRANCH   1  20
ATOM     20  O   LIG    1       -0.620  -2.439   1.167  0.00  0.00    -0.480 OA
ATOM     21  H   LIG    1        0.201  -2.030   1.361  0.00  0.00    +0.295 HD
ENDBRANCH   1  20
BRANCH   4  22
ATOM     22  C   LIG    1       -4.709  -5.711   0.252  0.00  0.00    +0.338 C 
ATOM     23  O   LIG    1       -5.853  -6.093   0.082  0.00  0.00    -0.245 OA
BRANCH  22  24
ATOM     24  O   LIG    1       -3.738  -6.601   0.554  0.00  0.00    -0.465 OA
ATOM     25  C   LIG    1       -4.125  -7.973   0.657  0.00  0.00    +0.280 C 
ENDBRANCH  22  24
ENDBRANCH   4  22
BRANCH   1  26
ATOM     26  O   LIG    1       -1.422  -0.420   0.313  0.00  0.00    -0.464 OA
BRANCH  26  28
ATOM     27  C   LIG    1       -0.121   1.615   0.240  0.00  0.00    +0.048 C 
ATOM     28  C   LIG    1       -0.147   0.137   0.636  0.00  0.00    +0.229 C 
ENDBRANCH  26  28
ENDBRANCH   1  26
TORSDOF 8
