REMARK  Name = ZINC53166256
REMARK                            x       y       z     vdW  Elec       q    Type
REMARK                         _______ _______ _______ _____ _____    ______ ____
ROOT
ATOM      1  C   LIG    1        2.101  -3.544  -0.045  0.00  0.00    +0.323 C 
ATOM      2  N   LIG    1        2.442  -4.041  -1.187  0.00  0.00    -0.040 NA
ATOM      3  C   LIG    1        3.261  -5.092  -1.463  0.00  0.00    +0.197 A 
ATOM      4  C   LIG    1        2.860  -5.996  -2.454  0.00  0.00    +0.057 A 
ATOM      5  C   LIG    1        3.666  -7.064  -2.795  0.00  0.00    +0.004 A 
ATOM      6  C   LIG    1        4.880  -7.253  -2.164  0.00  0.00    +0.002 A 
ATOM      7  C   LIG    1        5.287  -6.374  -1.173  0.00  0.00    +0.027 A 
ATOM      8  C   LIG    1        4.481  -5.311  -0.813  0.00  0.00    +0.083 A 
ATOM      9  N   LIG    1        4.887  -4.470   0.249  0.00  0.00    -0.305 N 
ATOM     10  H   LIG    1        5.730  -3.989   0.227  0.00  0.00    +0.153 HD
ATOM     11  C   LIG    1        4.017  -4.369   1.323  0.00  0.00    +0.085 A 
ATOM     12  S   LIG    1        4.299  -4.683   2.934  0.00  0.00    -0.075 S 
ATOM     13  C   LIG    1        2.678  -4.394   3.588  0.00  0.00    +0.018 A 
ATOM     14  C   LIG    1        1.967  -4.026   2.505  0.00  0.00    +0.031 A 
ATOM     15  C   LIG    1        2.687  -3.974   1.246  0.00  0.00    +0.094 A 
ENDROOT
BRANCH   1  21
ATOM     16  C   LIG    1       -0.050   1.440  -0.374  0.00  0.00    -0.096 C 
ATOM     17  N   LIG    1       -0.014  -0.016  -0.185  0.00  0.00    +0.383 N 
ATOM     18  H   LIG    1       -0.946  -0.353   0.006  0.00  0.00    -0.082 HD
ATOM     19  C   LIG    1        0.493  -0.654  -1.406  0.00  0.00    -0.035 C 
ATOM     20  C   LIG    1        0.424  -2.177  -1.253  0.00  0.00    +0.207 C 
ATOM     21  N   LIG    1        1.144  -2.555  -0.027  0.00  0.00    -0.224 N 
ATOM     22  C   LIG    1        0.812  -1.846   1.219  0.00  0.00    +0.207 C 
ATOM     23  C   LIG    1        0.863  -0.339   0.948  0.00  0.00    -0.035 C 
ENDBRANCH   1  21
BRANCH  13  24
ATOM     24  C   LIG    1        2.207  -4.533   5.013  0.00  0.00    +0.198 C 
BRANCH  24  25
ATOM     25  O   LIG    1        1.742  -5.867   5.233  0.00  0.00    -0.390 OA
ATOM     26  H   LIG    1        1.423  -6.029   6.131  0.00  0.00    +0.210 HD
ENDBRANCH  24  25
ENDBRANCH  13  24
TORSDOF 3
