REMARK  Name = ZINC29039136
REMARK                            x       y       z     vdW  Elec       q    Type
REMARK                         _______ _______ _______ _____ _____    ______ ____
ROOT
ATOM      1  C   LIG    1       -1.796   0.421   1.527  0.00  0.00    -0.004 C 
ATOM      2  C   LIG    1       -2.781   0.661   0.369  0.00  0.00    -0.082 C 
ATOM      3  N   LIG    1       -2.142   0.583  -0.944  0.00  0.00    +0.379 N 
ATOM      4  H   LIG    1       -2.867   0.864  -1.722  0.00  0.00    -0.086 HD
ATOM      5  H   LIG    1       -1.794  -0.446  -1.121  0.00  0.00    -0.086 HD
ATOM      6  C   LIG    1       -0.975   1.473  -1.088  0.00  0.00    -0.074 C 
ATOM      7  C   LIG    1       -0.013   1.086   0.008  0.00  0.00    +0.009 C 
ATOM      8  C   LIG    1        1.399   1.493  -0.003  0.00  0.00    -0.002 C 
ATOM      9  C   LIG    1        2.028   1.548   1.179  0.00  0.00    +0.047 C 
ATOM     10 BR   LIG    1        3.848   1.959   1.485  0.00  0.00    -0.043 Br
ATOM     11  S   LIG    1        0.787   1.153   2.409  0.00  0.00    -0.114 S 
ATOM     12  C   LIG    1       -0.689   1.455   1.366  0.00  0.00    +0.055 C 
ENDROOT
TORSDOF 0
