REMARK  Name = ZINC22066293
REMARK                            x       y       z     vdW  Elec       q    Type
REMARK                         _______ _______ _______ _____ _____    ______ ____
ROOT
ATOM      1  C   LIG    1       -3.729  -2.182   0.033  0.00  0.00    +0.011 A 
ATOM      2  C   LIG    1       -4.909  -2.894   0.036  0.00  0.00    +0.049 A 
ATOM      3  C   LIG    1       -4.885  -4.282   0.029  0.00  0.00    +0.159 A 
ATOM      4  C   LIG    1       -3.672  -4.960   0.012  0.00  0.00    +0.049 A 
ATOM      5  C   LIG    1       -2.487  -4.257   0.004  0.00  0.00    +0.011 A 
ATOM      6  C   LIG    1       -2.506  -2.860   0.012  0.00  0.00    -0.025 A 
ENDROOT
BRANCH   6   7
ATOM      7  C   LIG    1       -1.242  -2.103   0.003  0.00  0.00    +0.008 C 
ATOM      8  C   LIG    1       -1.263  -0.761   0.011  0.00  0.00    +0.009 C 
BRANCH   8   9
ATOM      9  C   LIG    1        0.002  -0.004   0.002  0.00  0.00    -0.018 A 
ATOM     10  C   LIG    1       -0.017   1.393   0.010  0.00  0.00    +0.053 A 
ATOM     11  C   LIG    1        1.174   2.099   0.002  0.00  0.00    +0.121 A 
ATOM     12  C   LIG    1        2.385   1.421  -0.013  0.00  0.00    +0.090 A 
ATOM     13  C   LIG    1        2.409   0.034  -0.021  0.00  0.00    +0.121 A 
ATOM     14  C   LIG    1        1.224  -0.681  -0.013  0.00  0.00    +0.053 A 
BRANCH  11  15
ATOM     15  O   LIG    1        1.157   3.458   0.009  0.00  0.00    -0.507 OA
ATOM     16  H   LIG    1        2.102   4.020   0.003  0.00  0.00    +0.292 HD
ENDBRANCH  11  15
BRANCH  13  17
ATOM     17  O   LIG    1        3.598  -0.624  -0.036  0.00  0.00    -0.507 OA
ATOM     18  H   LIG    1        3.619  -1.724  -0.042  0.00  0.00    +0.292 HD
ENDBRANCH  13  17
ENDBRANCH   8   9
ENDBRANCH   6   7
BRANCH   3  19
ATOM     19  O   LIG    1       -6.051  -4.980   0.037  0.00  0.00    -0.325 OA
BRANCH  19  20
ATOM     20  S   LIG    1       -6.567  -5.305   1.432  0.00  0.00    +0.251 S 
ATOM     21  O   LIG    1       -5.431  -5.629   2.220  0.00  0.00    -0.108 OA
ATOM     22  O   LIG    1       -7.658  -6.199   1.262  0.00  0.00    -0.108 OA
BRANCH  20  23
ATOM     23  O   LIG    1       -7.144  -4.020   2.008  0.00  0.00    -0.222 OA
ATOM     24  H   LIG    1       -7.927  -3.759   1.498  0.00  0.00    +0.248 HD
ENDBRANCH  20  23
ENDBRANCH  19  20
ENDBRANCH   3  19
TORSDOF 7
