REMARK  Name = ZINC34802037
REMARK                            x       y       z     vdW  Elec       q    Type
REMARK                         _______ _______ _______ _____ _____    ______ ____
ROOT
ATOM      1  C   LIG    1       -1.641   0.351   1.467  0.00  0.00    +0.179 C 
ENDROOT
BRANCH   1   2
ATOM      2  C   LIG    1       -1.500   1.766   0.900  0.00  0.00    +0.420 C 
ATOM      3  F   LIG    1       -0.205   1.942   0.403  0.00  0.00    -0.168 F 
ATOM      4  F   LIG    1       -1.743   2.700   1.913  0.00  0.00    -0.168 F 
ATOM      5  F   LIG    1       -2.425   1.948  -0.133  0.00  0.00    -0.168 F 
ENDBRANCH   1   2
BRANCH   1   6
ATOM      6  O   LIG    1       -0.628   0.129   2.449  0.00  0.00    -0.378 OA
ATOM      7  H   LIG    1       -0.656  -0.750   2.852  0.00  0.00    +0.211 HD
ENDBRANCH   1   6
BRANCH   1   8
ATOM      8  C   LIG    1       -1.488  -0.668   0.336  0.00  0.00    +0.056 C 
BRANCH   8  10
ATOM      9  C   LIG    1        0.914  -0.279   0.904  0.00  0.00    +0.016 C 
ATOM     10  C   LIG    1       -0.067  -0.596  -0.227  0.00  0.00    -0.003 C 
ATOM     11  C   LIG    1        0.300  -1.940  -0.859  0.00  0.00    +0.016 C 
BRANCH  10  12
ATOM     12  C   LIG    1        0.004   0.487  -1.273  0.00  0.00    +0.003 A 
ATOM     13  C   LIG    1       -1.139   0.876  -1.944  0.00  0.00    +0.046 A 
ATOM     14  C   LIG    1       -1.074   1.871  -2.904  0.00  0.00    +0.124 A 
ATOM     15  F   LIG    1       -2.192   2.250  -3.560  0.00  0.00    -0.205 F 
ATOM     16  C   LIG    1        0.137   2.477  -3.194  0.00  0.00    +0.042 A 
ATOM     17  C   LIG    1        1.282   2.090  -2.524  0.00  0.00    +0.049 A 
ATOM     18  C   LIG    1        1.217   1.097  -1.558  0.00  0.00    +0.124 A 
BRANCH  18  19
ATOM     19  O   LIG    1        2.341   0.720  -0.894  0.00  0.00    -0.495 OA
ATOM     20  C   LIG    1        3.555   1.391  -1.239  0.00  0.00    +0.277 C 
ENDBRANCH  18  19
ENDBRANCH  10  12
ENDBRANCH   8  10
ENDBRANCH   1   8
BRANCH   1  21
ATOM     21  C   LIG    1       -3.020   0.195   2.111  0.00  0.00    +0.167 C 
BRANCH  21  22
ATOM     22  N   LIG    1       -3.202   1.230   3.131  0.00  0.00    -0.328 N 
ATOM     23  C   LIG    1       -2.684   1.056   4.359  0.00  0.00    +0.203 A 
ATOM     24  N   LIG    1       -2.802   1.930   5.320  0.00  0.00    -0.199 NA
ATOM     25  C   LIG    1       -3.465   3.089   5.146  0.00  0.00    +0.281 A 
ATOM     26  C   LIG    1       -4.063   3.354   3.825  0.00  0.00    +0.065 A 
ATOM     27  C   LIG    1       -4.766   4.525   3.553  0.00  0.00    +0.015 A 
ATOM     28  C   LIG    1       -5.291   4.724   2.294  0.00  0.00    +0.001 A 
ATOM     29  C   LIG    1       -5.136   3.761   1.307  0.00  0.00    +0.002 A 
ATOM     30  C   LIG    1       -4.446   2.594   1.564  0.00  0.00    +0.026 A 
ATOM     31  O   LIG    1       -3.567   3.896   6.053  0.00  0.00    -0.265 OA
ATOM     32  C   LIG    1       -3.901   2.381   2.822  0.00  0.00    +0.055 A 
ENDBRANCH  21  22
ENDBRANCH   1  21
TORSDOF 8
