REMARK  Name = ZINC53276049
REMARK                            x       y       z     vdW  Elec       q    Type
REMARK                         _______ _______ _______ _____ _____    ______ ____
ROOT
ATOM      1  C   LIG    1       -7.281  -6.309  -3.736  0.00  0.00    +0.223 A 
ATOM      2  N   LIG    1       -7.098  -6.607  -2.460  0.00  0.00    -0.196 NA
ATOM      3  C   LIG    1       -7.595  -7.731  -1.947  0.00  0.00    +0.145 A 
ATOM      4  C   LIG    1       -8.318  -8.596  -2.790  0.00  0.00    +0.059 A 
ATOM      5  C   LIG    1       -8.488  -8.240  -4.137  0.00  0.00    +0.137 A 
ATOM      6  C   LIG    1       -8.730  -9.726  -1.959  0.00  0.00    +0.032 A 
ATOM      7  C   LIG    1       -8.257  -9.494  -0.724  0.00  0.00    +0.085 A 
ATOM      8  N   LIG    1       -7.576  -8.302  -0.704  0.00  0.00    -0.346 N 
ATOM      9  H   LIG    1       -7.145  -7.921   0.077  0.00  0.00    +0.167 HD
ATOM     10  N   LIG    1       -7.961  -7.096  -4.561  0.00  0.00    -0.198 NA
ENDROOT
BRANCH   1  11
ATOM     11  N   LIG    1       -6.747  -5.130  -4.228  0.00  0.00    -0.281 N 
ATOM     12  H   LIG    1       -6.948  -4.847  -5.134  0.00  0.00    +0.155 HD
BRANCH  11  16
ATOM     13  C   LIG    1       -4.272  -2.790  -1.812  0.00  0.00    +0.033 A 
ATOM     14  C   LIG    1       -4.259  -4.173  -1.690  0.00  0.00    +0.025 A 
ATOM     15  C   LIG    1       -5.078  -4.947  -2.490  0.00  0.00    +0.029 A 
ATOM     16  C   LIG    1       -5.916  -4.343  -3.416  0.00  0.00    +0.076 A 
ATOM     17  C   LIG    1       -5.931  -2.956  -3.540  0.00  0.00    +0.143 A 
ATOM     18  C   LIG    1       -5.113  -2.182  -2.734  0.00  0.00    +0.070 A 
BRANCH  13  23
ATOM     19  N   LIG    1       -2.603  -0.414   1.136  0.00  0.00    +0.383 N 
ATOM     20  H   LIG    1       -1.665  -0.309   0.780  0.00  0.00    -0.081 HD
ATOM     21  C   LIG    1       -3.557   0.131   0.162  0.00  0.00    -0.059 C 
ATOM     22  C   LIG    1       -3.348  -0.553  -1.193  0.00  0.00    +0.086 C 
ATOM     23  N   LIG    1       -3.442  -2.009  -1.000  0.00  0.00    -0.333 N 
ATOM     24  C   LIG    1       -2.638  -2.619   0.070  0.00  0.00    +0.086 C 
ATOM     25  C   LIG    1       -2.881  -1.838   1.365  0.00  0.00    -0.059 C 
BRANCH  19  27
ATOM     26  C   LIG    1       -1.728  -0.241   3.417  0.00  0.00    -0.014 C 
ATOM     27  C   LIG    1       -2.729   0.318   2.404  0.00  0.00    -0.075 C 
ATOM     28  C   LIG    1       -2.440   1.802   2.167  0.00  0.00    -0.014 C 
ENDBRANCH  19  27
ENDBRANCH  13  23
BRANCH  17  29
ATOM     29  O   LIG    1       -6.751  -2.362  -4.447  0.00  0.00    -0.493 OA
ATOM     30  C   LIG    1       -6.714  -0.935  -4.519  0.00  0.00    +0.277 C 
ENDBRANCH  17  29
ENDBRANCH  11  16
ENDBRANCH   1  11
BRANCH   5  31
ATOM     31  N   LIG    1       -9.191  -9.060  -5.002  0.00  0.00    -0.297 N 
ATOM     32  H   LIG    1       -9.524  -9.917  -4.695  0.00  0.00    +0.154 HD
BRANCH  31  33
ATOM     33  C   LIG    1       -9.421  -8.651  -6.322  0.00  0.00    +0.054 A 
ATOM     34  C   LIG    1       -8.470  -7.895  -6.987  0.00  0.00    +0.025 A 
ATOM     35  C   LIG    1       -8.693  -7.489  -8.289  0.00  0.00    +0.002 A 
ATOM     36  C   LIG    1       -9.868  -7.839  -8.928  0.00  0.00    +0.005 A 
ATOM     37  C   LIG    1      -10.822  -8.594  -8.270  0.00  0.00    -0.023 A 
ATOM     38  C   LIG    1      -12.170  -9.105  -8.728  0.00  0.00    +0.055 C 
ATOM     39  C   LIG    1      -12.717  -9.888  -7.524  0.00  0.00    +0.106 C 
ATOM     40  N   LIG    1      -11.687  -9.767  -6.488  0.00  0.00    -0.342 N 
ATOM     41  H   LIG    1      -11.743 -10.152  -5.600  0.00  0.00    +0.146 HD
ATOM     42  C   LIG    1      -10.611  -9.013  -6.968  0.00  0.00    +0.052 A 
ENDBRANCH  31  33
ENDBRANCH   5  31
TORSDOF 7
