REMARK  Name = ZINC19796155
REMARK                            x       y       z     vdW  Elec       q    Type
REMARK                         _______ _______ _______ _____ _____    ______ ____
ROOT
ATOM      1  C   LIG    1        2.102  -3.543  -0.045  0.00  0.00    +0.323 C 
ATOM      2  N   LIG    1        2.423  -4.021  -1.195  0.00  0.00    -0.040 NA
ATOM      3  C   LIG    1        3.322  -5.005  -1.475  0.00  0.00    +0.199 A 
ATOM      4  C   LIG    1        3.010  -5.952  -2.454  0.00  0.00    +0.077 A 
ATOM      5  C   LIG    1        3.923  -6.934  -2.788  0.00  0.00    +0.045 A 
ATOM      6 CL   LIG    1        3.525  -8.108  -4.003  0.00  0.00    -0.083 Cl
ATOM      7  C   LIG    1        5.153  -6.985  -2.157  0.00  0.00    +0.022 A 
ATOM      8  C   LIG    1        5.467  -6.063  -1.173  0.00  0.00    +0.029 A 
ATOM      9  C   LIG    1        4.553  -5.087  -0.816  0.00  0.00    +0.083 A 
ATOM     10  N   LIG    1        4.851  -4.224   0.252  0.00  0.00    -0.310 N 
ATOM     11  H   LIG    1        5.613  -3.627   0.210  0.00  0.00    +0.152 HD
ATOM     12  C   LIG    1        4.024  -4.246   1.377  0.00  0.00    +0.046 A 
ATOM     13  C   LIG    1        4.550  -4.571   2.617  0.00  0.00    +0.024 A 
ATOM     14  C   LIG    1        3.735  -4.626   3.722  0.00  0.00    +0.002 A 
ATOM     15  C   LIG    1        2.380  -4.373   3.601  0.00  0.00    +0.001 A 
ATOM     16  C   LIG    1        1.841  -4.035   2.375  0.00  0.00    +0.018 A 
ATOM     17  C   LIG    1        2.664  -3.949   1.252  0.00  0.00    +0.087 A 
ENDROOT
BRANCH   1  23
ATOM     18  C   LIG    1       -0.052   1.439  -0.386  0.00  0.00    -0.096 C 
ATOM     19  N   LIG    1       -0.015  -0.017  -0.191  0.00  0.00    +0.383 N 
ATOM     20  H   LIG    1       -0.946  -0.353   0.006  0.00  0.00    -0.082 HD
ATOM     21  C   LIG    1        0.486  -0.660  -1.412  0.00  0.00    -0.035 C 
ATOM     22  C   LIG    1        0.418  -2.182  -1.251  0.00  0.00    +0.207 C 
ATOM     23  N   LIG    1        1.144  -2.555  -0.027  0.00  0.00    -0.224 N 
ATOM     24  C   LIG    1        0.818  -1.841   1.217  0.00  0.00    +0.207 C 
ATOM     25  C   LIG    1        0.867  -0.334   0.940  0.00  0.00    -0.035 C 
ENDBRANCH   1  23
TORSDOF 1
