REMARK  Name = ZINC13776734
REMARK                            x       y       z     vdW  Elec       q    Type
REMARK                         _______ _______ _______ _____ _____    ______ ____
ROOT
ATOM      1  C   LIG    1       -0.189   0.882  -2.479  0.00  0.00    +0.011 C 
ATOM      2  C   LIG    1       -0.743   1.588  -1.239  0.00  0.00    +0.028 C 
ATOM      3  C   LIG    1       -2.236   1.270  -1.088  0.00  0.00    +0.019 C 
ATOM      4  C   LIG    1       -2.787   2.107   0.071  0.00  0.00    +0.124 C 
ATOM      5  C   LIG    1       -1.881   1.989   1.262  0.00  0.00    +0.236 C 
ATOM      6  N   LIG    1       -0.685   1.551   1.214  0.00  0.00    -0.279 N 
ATOM      7  H   LIG    1       -0.079   1.504   2.131  0.00  0.00    +0.303 HD
ATOM      8  C   LIG    1       -0.013   1.086   0.008  0.00  0.00    +0.236 C 
ENDROOT
BRANCH   5   9
ATOM      9  N   LIG    1       -2.373   2.378   2.480  0.00  0.00    -0.254 N 
ATOM     10  H   LIG    1       -3.400   2.762   2.562  0.00  0.00    +0.288 HD
ATOM     11  H   LIG    1       -1.739   2.307   3.377  0.00  0.00    +0.288 HD
ENDBRANCH   5   9
TORSDOF 1
