REMARK  Name = ZINC43176687
REMARK                            x       y       z     vdW  Elec       q    Type
REMARK                         _______ _______ _______ _____ _____    ______ ____
ROOT
ATOM      1  C   LIG    1        5.311  -7.990  -0.286  0.00  0.00    +0.036 C 
ATOM      2  C   LIG    1        5.677  -8.192   1.050  0.00  0.00    +0.031 C 
ATOM      3  C   LIG    1        6.651  -9.135   1.325  0.00  0.00    +0.089 C 
ATOM      4  C   LIG    1        7.233  -9.851   0.274  0.00  0.00    +0.139 C 
ATOM      5  N   LIG    1        8.212 -10.807   0.551  0.00  0.00    -0.299 NA
ATOM      6  H   LIG    1        8.449 -11.476  -0.110  0.00  0.00    +0.123 HD
ATOM      7  C   LIG    1        8.877 -10.784   1.862  0.00  0.00    +0.098 C 
ATOM      8  C   LIG    1        7.803 -10.604   2.945  0.00  0.00    +0.100 C 
ATOM      9  N   LIG    1        6.860  -9.629  -0.976  0.00  0.00    -0.299 NA
ATOM     10  H   LIG    1        7.278 -10.136  -1.690  0.00  0.00    +0.123 HD
ATOM     11  N   LIG    1        7.054  -9.373   2.646  0.00  0.00    -0.291 NA
ATOM     12  C   LIG    1        5.932  -8.742  -1.278  0.00  0.00    +0.090 C 
ENDROOT
BRANCH   1  16
ATOM     13  C   LIG    1        2.352  -5.141  -1.208  0.00  0.00    +0.121 A 
ATOM     14  C   LIG    1        2.929  -5.855  -2.255  0.00  0.00    +0.044 A 
ATOM     15  C   LIG    1        3.901  -6.794  -1.975  0.00  0.00    +0.009 A 
ATOM     16  C   LIG    1        4.271  -6.992  -0.639  0.00  0.00    -0.025 A 
ATOM     17  C   LIG    1        3.650  -6.240   0.353  0.00  0.00    +0.116 A 
ATOM     18  N   LIG    1        2.729  -5.348   0.044  0.00  0.00    -0.240 NA
BRANCH  13  23
ATOM     19  C   LIG    1        0.089  -0.239  -2.054  0.00  0.00    +0.105 C 
ATOM     20  N   LIG    1        0.216  -1.696  -1.913  0.00  0.00    -0.302 NA
ATOM     21  C   LIG    1        1.127  -2.244  -2.926  0.00  0.00    +0.103 C 
ATOM     22  C   LIG    1        1.092  -3.775  -2.864  0.00  0.00    +0.122 C 
ATOM     23  N   LIG    1        1.373  -4.193  -1.482  0.00  0.00    -0.313 N 
ATOM     24  C   LIG    1        0.590  -3.582  -0.397  0.00  0.00    +0.122 C 
ATOM     25  C   LIG    1        0.645  -2.058  -0.556  0.00  0.00    +0.103 C 
ENDBRANCH  13  23
ENDBRANCH   1  16
BRANCH  11  26
ATOM     26  C   LIG    1        6.736  -8.416   3.709  0.00  0.00    +0.120 C 
BRANCH  26  27
ATOM     27  C   LIG    1        5.404  -8.767   4.319  0.00  0.00    -0.020 A 
ATOM     28  C   LIG    1        4.671  -9.826   3.817  0.00  0.00    +0.025 A 
ATOM     29  C   LIG    1        3.448 -10.148   4.377  0.00  0.00    +0.041 A 
ATOM     30 CL   LIG    1        2.528 -11.479   3.747  0.00  0.00    -0.084 Cl
ATOM     31  C   LIG    1        2.958  -9.409   5.439  0.00  0.00    +0.020 A 
ATOM     32  C   LIG    1        3.691  -8.350   5.940  0.00  0.00    +0.014 A 
ATOM     33  C   LIG    1        4.916  -8.032   5.383  0.00  0.00    +0.059 A 
BRANCH  33  34
ATOM     34  C   LIG    1        5.718  -6.881   5.934  0.00  0.00    +0.418 C 
ATOM     35  F   LIG    1        5.823  -5.879   4.962  0.00  0.00    -0.166 F 
ATOM     36  F   LIG    1        6.997  -7.328   6.283  0.00  0.00    -0.166 F 
ATOM     37  F   LIG    1        5.078  -6.367   7.066  0.00  0.00    -0.166 F 
ENDBRANCH  33  34
ENDBRANCH  26  27
ENDBRANCH  11  26
TORSDOF 5
