REMARK  Name = ZINC19549640
REMARK                            x       y       z     vdW  Elec       q    Type
REMARK                         _______ _______ _______ _____ _____    ______ ____
ROOT
ATOM      1  C   LIG    1       -0.014   1.209   0.009  0.00  0.00    +0.220 C 
ATOM      2  N   LIG    1        1.143   1.898   0.001  0.00  0.00    -0.296 N 
ATOM      3  C   LIG    1        1.149   3.370   0.003  0.00  0.00    +0.136 C 
ATOM      4  C   LIG    1        2.064   3.856  -1.121  0.00  0.00    +0.179 C 
ATOM      5  O   LIG    1        3.337   3.216  -1.004  0.00  0.00    -0.372 OA
ATOM      6  C   LIG    1        3.292   1.794  -1.143  0.00  0.00    +0.155 C 
ATOM      7  C   LIG    1        2.440   1.202  -0.015  0.00  0.00    +0.141 C 
ATOM      8  O   LIG    1        0.002  -0.004   0.002  0.00  0.00    -0.275 OA
ENDROOT
BRANCH   1   9
ATOM      9  C   LIG    1       -1.330   1.944   0.019  0.00  0.00    +0.131 C 
BRANCH   9  12
ATOM     10  C   LIG    1       -4.015  -0.428   1.221  0.00  0.00    +0.165 A 
ATOM     11  C   LIG    1       -2.974   0.488   1.217  0.00  0.00    +0.053 A 
ATOM     12  C   LIG    1       -2.462   0.950   0.019  0.00  0.00    -0.031 A 
ATOM     13  C   LIG    1       -2.989   0.505  -1.179  0.00  0.00    +0.053 A 
ATOM     14  C   LIG    1       -4.027  -0.414  -1.184  0.00  0.00    +0.165 A 
ATOM     15  C   LIG    1       -4.544  -0.881   0.019  0.00  0.00    +0.204 A 
BRANCH  10  17
ATOM     16  C   LIG    1       -3.926  -0.372   3.597  0.00  0.00    +0.277 C 
ATOM     17  O   LIG    1       -4.518  -0.881   2.401  0.00  0.00    -0.491 OA
ENDBRANCH  10  17
BRANCH  14  18
ATOM     18  O   LIG    1       -4.541  -0.855  -2.363  0.00  0.00    -0.491 OA
ATOM     19  C   LIG    1       -3.961  -0.332  -3.560  0.00  0.00    +0.277 C 
ENDBRANCH  14  18
BRANCH  15  20
ATOM     20  O   LIG    1       -5.566  -1.780   0.019  0.00  0.00    -0.488 OA
ATOM     21  C   LIG    1       -6.894  -1.253   0.028  0.00  0.00    +0.277 C 
ENDBRANCH  15  20
ENDBRANCH   9  12
ENDBRANCH   1   9
BRANCH   6  22
ATOM     22  C   LIG    1        4.711   1.227  -1.062  0.00  0.00    +0.155 C 
BRANCH  22  23
ATOM     23  N   LIG    1        5.492   1.699  -2.209  0.00  0.00    -0.336 N 
ATOM     24  C   LIG    1        6.243   2.842  -2.265  0.00  0.00    +0.104 A 
ATOM     25  C   LIG    1        6.788   2.890  -3.495  0.00  0.00    +0.101 A 
ATOM     26  N   LIG    1        6.381   1.806  -4.172  0.00  0.00    -0.352 N 
ATOM     27  H   LIG    1        6.710   1.650  -5.210  0.00  0.00    +0.166 HD
ATOM     28  C   LIG    1        5.609   1.085  -3.406  0.00  0.00    +0.173 A 
ENDBRANCH  22  23
ENDBRANCH   6  22
TORSDOF 7
