REMARK  Name = ZINC15859029
REMARK                            x       y       z     vdW  Elec       q    Type
REMARK                         _______ _______ _______ _____ _____    ______ ____
ROOT
ATOM      1  C   LIG    1        4.053   3.368  -0.018  0.00  0.00    +0.186 C 
ATOM      2  C   LIG    1        3.560   1.938   0.035  0.00  0.00    +0.076 A 
ATOM      3  C   LIG    1        2.319   1.477   0.088  0.00  0.00    +0.082 A 
ATOM      4  C   LIG    1        2.418  -0.003   0.157  0.00  0.00    +0.089 A 
ATOM      5  C   LIG    1        1.189  -0.799   0.229  0.00  0.00    +0.266 A 
ATOM      6  N   LIG    1        0.032  -0.088   0.224  0.00  0.00    -0.263 N 
ATOM      7  C   LIG    1       -1.231  -0.826   0.293  0.00  0.00    +0.157 C 
ATOM      8  C   LIG    1       -0.020   1.246   0.159  0.00  0.00    +0.332 A 
ATOM      9  O   LIG    1       -1.122   1.760   0.156  0.00  0.00    -0.246 OA
ATOM     10  O   LIG    1        1.205  -2.015   0.289  0.00  0.00    -0.267 OA
ATOM     11  C   LIG    1        3.757  -0.307   0.138  0.00  0.00    +0.071 A 
ATOM     12  N   LIG    1        1.048   2.071   0.092  0.00  0.00    -0.294 N 
ATOM     13  C   LIG    1        0.885   3.525   0.026  0.00  0.00    +0.154 C 
ATOM     14  N   LIG    1        4.442   0.865   0.049  0.00  0.00    -0.306 N 
ATOM     15  C   LIG    1        5.828   1.061  -0.036  0.00  0.00    +0.068 A 
ATOM     16  C   LIG    1        6.721   0.029   0.176  0.00  0.00    +0.031 A 
ATOM     17  C   LIG    1        8.081   0.271   0.097  0.00  0.00    -0.045 A 
ATOM     18  C   LIG    1        9.059  -0.851   0.335  0.00  0.00    +0.044 C 
ATOM     19  C   LIG    1        8.545   1.540  -0.200  0.00  0.00    -0.046 A 
ATOM     20  C   LIG    1       10.028   1.797  -0.272  0.00  0.00    +0.044 C 
ATOM     21  C   LIG    1        7.657   2.573  -0.432  0.00  0.00    +0.028 A 
ATOM     22  C   LIG    1        6.292   2.340  -0.363  0.00  0.00    +0.052 A 
ATOM     23  N   LIG    1        5.382   3.364  -0.649  0.00  0.00    -0.328 N 
ATOM     24  H   LIG    1        5.628   4.072  -1.264  0.00  0.00    +0.147 HD
ENDROOT
BRANCH  11  25
ATOM     25  C   LIG    1        4.345  -1.658   0.204  0.00  0.00    +0.035 A 
ATOM     26  C   LIG    1        4.664  -2.226   1.440  0.00  0.00    +0.013 A 
ATOM     27  C   LIG    1        5.210  -3.491   1.494  0.00  0.00    +0.001 A 
ATOM     28  C   LIG    1        5.452  -4.196   0.328  0.00  0.00    +0.003 A 
ATOM     29  C   LIG    1        5.144  -3.640  -0.901  0.00  0.00    +0.039 A 
ATOM     30  C   LIG    1        4.593  -2.375  -0.972  0.00  0.00    +0.133 A 
ATOM     31  F   LIG    1        4.292  -1.833  -2.172  0.00  0.00    -0.205 F 
ENDBRANCH  11  25
BRANCH   1  36
ATOM     32  C   LIG    1        3.027   6.034   4.138  0.00  0.00    +0.086 C 
ATOM     33  C   LIG    1        3.706   5.085   3.186  0.00  0.00    +0.102 A 
ATOM     34  C   LIG    1        4.809   4.361   3.449  0.00  0.00    +0.045 A 
ATOM     35  C   LIG    1        5.093   3.610   2.286  0.00  0.00    +0.047 A 
ATOM     36  C   LIG    1        4.152   3.925   1.378  0.00  0.00    +0.131 A 
ATOM     37  O   LIG    1        3.312   4.816   1.930  0.00  0.00    -0.463 OA
ENDBRANCH   1  36
TORSDOF 2
