REMARK  Name = ZINC66114126
REMARK                            x       y       z     vdW  Elec       q    Type
REMARK                         _______ _______ _______ _____ _____    ______ ____
ROOT
ATOM      1  C   LIG    1       -0.103   1.155  -0.224  0.00  0.00    +0.001 A 
ATOM      2  C   LIG    1        1.042   1.927  -0.135  0.00  0.00    +0.000 A 
ATOM      3  C   LIG    1        2.286   1.322  -0.060  0.00  0.00    +0.009 A 
ATOM      4  C   LIG    1        2.385  -0.050  -0.073  0.00  0.00    +0.019 A 
ATOM      5  C   LIG    1        1.235  -0.839  -0.161  0.00  0.00    +0.045 A 
ATOM      6  C   LIG    1        1.645  -2.256  -0.154  0.00  0.00    +0.250 C 
ATOM      7  N   LIG    1        2.983  -2.354  -0.066  0.00  0.00    -0.257 N 
ATOM      8  O   LIG    1        0.883  -3.200  -0.219  0.00  0.00    -0.270 OA
ATOM      9  C   LIG    1        3.552  -1.003  -0.008  0.00  0.00    +0.192 C 
ATOM     10  C   LIG    1       -0.015  -0.222  -0.237  0.00  0.00    +0.013 A 
ENDROOT
BRANCH   9  11
ATOM     11  C   LIG    1        4.470  -0.777  -1.182  0.00  0.00    +0.007 A 
ATOM     12  C   LIG    1        4.251  -1.449  -2.370  0.00  0.00    +0.010 A 
ATOM     13  C   LIG    1        5.093  -1.243  -3.447  0.00  0.00    +0.020 A 
ATOM     14  C   LIG    1        6.155  -0.363  -3.335  0.00  0.00    +0.041 A 
ATOM     15 CL   LIG    1        7.213  -0.104  -4.687  0.00  0.00    -0.084 Cl
ATOM     16  C   LIG    1        6.374   0.309  -2.146  0.00  0.00    +0.020 A 
ATOM     17  C   LIG    1        5.528   0.106  -1.072  0.00  0.00    +0.010 A 
ENDBRANCH   9  11
BRANCH   7  18
ATOM     18  C   LIG    1        3.747  -3.604  -0.032  0.00  0.00    +0.146 C 
BRANCH  18  19
ATOM     19  C   LIG    1        3.947  -4.108  -1.438  0.00  0.00    -0.030 A 
ATOM     20  C   LIG    1        3.015  -4.957  -2.006  0.00  0.00    +0.007 A 
ATOM     21  C   LIG    1        3.199  -5.420  -3.296  0.00  0.00    +0.033 A 
ATOM     22  C   LIG    1        4.313  -5.034  -4.017  0.00  0.00    +0.122 A 
ATOM     23  C   LIG    1        5.244  -4.184  -3.449  0.00  0.00    +0.033 A 
ATOM     24  C   LIG    1        5.059  -3.718  -2.161  0.00  0.00    +0.007 A 
BRANCH  22  25
ATOM     25  N   LIG    1        4.510  -5.530  -5.398  0.00  0.00    +0.006 N 
ATOM     26  O   LIG    1        3.696  -6.273  -5.895  0.00  0.00    -0.130 OA
BRANCH  25  27
ATOM     27  O   LIG    1        5.484  -5.192  -6.028  0.00  0.00    -0.396 OA
ATOM     28  H   LIG    1        6.115  -4.617  -5.643  0.00  0.00    +0.329 HD
ENDBRANCH  25  27
ENDBRANCH  22  25
ENDBRANCH  18  19
ENDBRANCH   7  18
BRANCH   9  29
ATOM     29  O   LIG    1        4.266  -0.822   1.216  0.00  0.00    -0.347 OA
BRANCH  29  30
ATOM     30  C   LIG    1        3.505  -1.135   2.385  0.00  0.00    +0.172 C 
BRANCH  30  31
ATOM     31  C   LIG    1        4.321  -0.792   3.632  0.00  0.00    +0.017 C 
ATOM     32  C   LIG    1        4.810  -1.954   4.498  0.00  0.00    +0.012 C 
ATOM     33  C   LIG    1        3.675  -1.056   4.994  0.00  0.00    +0.012 C 
BRANCH  31  34
ATOM     34  C   LIG    1        5.233   0.430   3.509  0.00  0.00    +0.165 C 
BRANCH  34  35
ATOM     35  O   LIG    1        5.742   0.512   2.176  0.00  0.00    -0.394 OA
ATOM     36  H   LIG    1        6.330   1.265   2.024  0.00  0.00    +0.209 HD
ENDBRANCH  34  35
ENDBRANCH  31  34
ENDBRANCH  30  31
ENDBRANCH  29  30
ENDBRANCH   9  29
TORSDOF 10
