REMARK  Name = ZINC40448363
REMARK                            x       y       z     vdW  Elec       q    Type
REMARK                         _______ _______ _______ _____ _____    ______ ____
ROOT
ATOM      1  C   LIG    1       -0.017   1.372   0.010  0.00  0.00    +0.002 A 
ATOM      2  C   LIG    1        1.165   2.095   0.002  0.00  0.00    +0.021 A 
ATOM      3  C   LIG    1        2.393   1.441  -0.013  0.00  0.00    +0.077 A 
ATOM      4  C   LIG    1        2.430   0.035  -0.021  0.00  0.00    +0.084 A 
ATOM      5  C   LIG    1        1.223  -0.687  -0.013  0.00  0.00    +0.035 A 
ATOM      6  C   LIG    1        1.592  -2.101  -0.025  0.00  0.00    +0.135 A 
ATOM      7 BR   LIG    1        0.397  -3.566  -0.021  0.00  0.00    -0.026 Br
ATOM      8  N   LIG    1        2.893  -2.170  -0.038  0.00  0.00    -0.166 NA
ATOM      9  N   LIG    1        3.441  -0.883  -0.036  0.00  0.00    -0.275 N 
ATOM     10  H   LIG    1        4.389  -0.676  -0.045  0.00  0.00    +0.189 HD
ATOM     11  C   LIG    1        0.002  -0.004   0.002  0.00  0.00    +0.013 A 
ENDROOT
BRANCH   3  12
ATOM     12  C   LIG    1        3.611   2.194  -0.022  0.00  0.00    +0.101 C 
ATOM     13  N   LIG    1        4.577   2.792  -0.029  0.00  0.00    -0.191 NA
ENDBRANCH   3  12
TORSDOF 1
