REMARK  Name = ZINC14951858
REMARK                            x       y       z     vdW  Elec       q    Type
REMARK                         _______ _______ _______ _____ _____    ______ ____
ROOT
ATOM      1  C   LIG    1       -0.036   1.490  -0.027  0.00  0.00    +0.070 C 
ATOM      2  C   LIG    1       -0.002  -0.016   0.010  0.00  0.00    +0.094 C 
ATOM      3  N   LIG    1        0.028  -0.639   1.152  0.00  0.00    -0.115 NA
ENDROOT
BRANCH   2   4
ATOM      4  C   LIG    1       -0.003  -0.778  -1.239  0.00  0.00    +0.174 C 
ATOM      5  N   LIG    1        0.070  -0.157  -2.380  0.00  0.00    -0.118 NA
BRANCH   5   6
ATOM      6  N   LIG    1        0.069  -0.887  -3.576  0.00  0.00    -0.155 N 
ATOM      7  H   LIG    1        0.014  -1.855  -3.554  0.00  0.00    +0.292 HD
BRANCH   6   8
ATOM      8  C   LIG    1        0.147  -0.230  -4.783  0.00  0.00    +0.400 C 
ATOM      9  N   LIG    1        0.222   1.071  -4.814  0.00  0.00    -0.128 NA
ATOM     10  H   LIG    1        0.277   1.534  -5.664  0.00  0.00    +0.306 HD
BRANCH   8  11
ATOM     11  N   LIG    1        0.146  -0.946  -5.957  0.00  0.00    -0.288 N 
ATOM     12  H   LIG    1        0.201  -0.483  -6.808  0.00  0.00    +0.255 HD
ATOM     13  H   LIG    1        0.091  -1.914  -5.935  0.00  0.00    +0.255 HD
ENDBRANCH   8  11
ENDBRANCH   6   8
ENDBRANCH   5   6
ENDBRANCH   2   4
BRANCH   3  14
ATOM     14  N   LIG    1       -0.053  -2.037   1.190  0.00  0.00    -0.157 N 
ATOM     15  H   LIG    1       -0.056  -2.546   0.363  0.00  0.00    +0.292 HD
BRANCH  14  16
ATOM     16  C   LIG    1       -0.128  -2.687   2.394  0.00  0.00    +0.365 C 
ATOM     17  N   LIG    1       -0.205  -4.017   2.430  0.00  0.00    -0.290 N 
ATOM     18  H   LIG    1       -0.259  -4.476   3.282  0.00  0.00    +0.255 HD
ATOM     19  H   LIG    1       -0.208  -4.525   1.603  0.00  0.00    +0.255 HD
BRANCH  16  20
ATOM     20  N   LIG    1       -0.125  -1.989   3.529  0.00  0.00    -0.290 N 
ATOM     21  H   LIG    1       -0.178  -2.449   4.381  0.00  0.00    +0.255 HD
ATOM     22  H   LIG    1       -0.069  -1.021   3.502  0.00  0.00    +0.255 HD
ENDBRANCH  16  20
ENDBRANCH  14  16
ENDBRANCH   3  14
TORSDOF 7
