REMARK  Name = ZINC16291826
REMARK                            x       y       z     vdW  Elec       q    Type
REMARK                         _______ _______ _______ _____ _____    ______ ____
ROOT
ATOM      1  C   LIG    1        3.672   2.182  -0.023  0.00  0.00    +0.108 C 
ENDROOT
BRANCH   1   2
ATOM      2  C   LIG    1        2.377   1.411  -0.015  0.00  0.00    -0.027 A 
ATOM      3  C   LIG    1        1.171   2.086   0.002  0.00  0.00    +0.005 A 
ATOM      4  C   LIG    1       -0.017   1.378   0.010  0.00  0.00    +0.000 A 
ATOM      5  C   LIG    1        0.002  -0.004   0.002  0.00  0.00    +0.000 A 
ATOM      6  C   LIG    1        1.208  -0.679  -0.013  0.00  0.00    +0.000 A 
ATOM      7  C   LIG    1        2.396   0.029  -0.022  0.00  0.00    +0.005 A 
ENDBRANCH   1   2
BRANCH   1   8
ATOM      8  N   LIG    1        3.542   3.345  -0.904  0.00  0.00    -0.337 N 
ATOM      9  H   LIG    1        3.299   4.209  -0.534  0.00  0.00    +0.147 HD
BRANCH   8  10
ATOM     10  C   LIG    1        3.768   3.212  -2.275  0.00  0.00    +0.028 A 
ATOM     11  C   LIG    1        4.122   1.977  -2.805  0.00  0.00    +0.025 A 
ATOM     12  C   LIG    1        4.339   1.847  -4.163  0.00  0.00    +0.034 A 
ATOM     13  C   LIG    1        4.216   2.946  -4.993  0.00  0.00    +0.122 A 
ATOM     14  C   LIG    1        3.869   4.178  -4.468  0.00  0.00    +0.034 A 
ATOM     15  C   LIG    1        3.645   4.314  -3.112  0.00  0.00    +0.025 A 
BRANCH  13  16
ATOM     16  N   LIG    1        4.456   2.805  -6.447  0.00  0.00    +0.006 N 
ATOM     17  O   LIG    1        4.348   3.772  -7.179  0.00  0.00    -0.130 OA
BRANCH  16  18
ATOM     18  O   LIG    1        4.762   1.721  -6.910  0.00  0.00    -0.396 OA
ATOM     19  H   LIG    1        4.845   0.977  -6.347  0.00  0.00    +0.329 HD
ENDBRANCH  16  18
ENDBRANCH  13  16
ENDBRANCH   8  10
ENDBRANCH   1   8
BRANCH   1  20
ATOM     20  C   LIG    1        3.995   2.651   1.397  0.00  0.00    +0.106 C 
BRANCH  20  21
ATOM     21  C   LIG    1        5.348   3.315   1.411  0.00  0.00    +0.165 C 
ATOM     22  O   LIG    1        5.990   3.404   0.386  0.00  0.00    -0.292 OA
BRANCH  21  27
ATOM     23  C   LIG    1        7.463   5.426   6.322  0.00  0.00    +0.044 C 
ATOM     24  C   LIG    1        6.909   4.872   5.035  0.00  0.00    -0.050 A 
ATOM     25  C   LIG    1        7.645   4.976   3.867  0.00  0.00    +0.004 A 
ATOM     26  C   LIG    1        7.145   4.472   2.685  0.00  0.00    +0.011 A 
ATOM     27  C   LIG    1        5.890   3.855   2.668  0.00  0.00    +0.017 A 
ATOM     28  C   LIG    1        5.150   3.759   3.851  0.00  0.00    +0.011 A 
ATOM     29  C   LIG    1        5.667   4.263   5.026  0.00  0.00    +0.004 A 
ENDBRANCH  21  27
ENDBRANCH  20  21
ENDBRANCH   1  20
TORSDOF 8
