REMARK  Name = ZINC19908248
REMARK                            x       y       z     vdW  Elec       q    Type
REMARK                         _______ _______ _______ _____ _____    ______ ____
ROOT
ATOM      1  C   LIG    1       -0.348   5.863  -1.386  0.00  0.00    +0.029 C 
ATOM      2  C   LIG    1       -0.076   5.351   0.029  0.00  0.00    +0.081 C 
ENDROOT
BRANCH   2   3
ATOM      3  C   LIG    1       -0.051   3.844   0.022  0.00  0.00    -0.027 A 
ATOM      4  C   LIG    1       -1.237   3.133   0.030  0.00  0.00    +0.005 A 
ATOM      5  C   LIG    1       -1.218   1.751   0.017  0.00  0.00    +0.004 A 
ATOM      6  C   LIG    1       -0.013   1.076   0.008  0.00  0.00    +0.045 A 
ATOM      7  C   LIG    1        1.179   1.786   0.000  0.00  0.00    +0.120 A 
ATOM      8  C   LIG    1        1.157   3.174   0.008  0.00  0.00    +0.050 A 
BRANCH   7   9
ATOM      9  O   LIG    1        2.366   1.125  -0.015  0.00  0.00    -0.495 OA
ATOM     10  C   LIG    1        2.312  -0.303  -0.022  0.00  0.00    +0.277 C 
ENDBRANCH   7   9
ENDBRANCH   2   3
BRANCH   2  11
ATOM     11  N   LIG    1       -1.136   5.818   0.932  0.00  0.00    -0.306 NA
ATOM     12  H   LIG    1       -2.094   5.842   0.391  0.00  0.00    +0.123 HD
BRANCH  11  13
ATOM     13  C   LIG    1       -0.844   7.168   1.432  0.00  0.00    +0.118 C 
BRANCH  13  14
ATOM     14  C   LIG    1       -1.951   7.614   2.353  0.00  0.00    -0.015 A 
ATOM     15  C   LIG    1       -2.934   8.468   1.889  0.00  0.00    +0.006 A 
ATOM     16  C   LIG    1       -3.952   8.873   2.732  0.00  0.00    +0.000 A 
ATOM     17  C   LIG    1       -3.982   8.431   4.042  0.00  0.00    +0.001 A 
ATOM     18  C   LIG    1       -2.998   7.581   4.508  0.00  0.00    +0.020 A 
ATOM     19  C   LIG    1       -1.981   7.172   3.663  0.00  0.00    +0.045 A 
ATOM     20 CL   LIG    1       -0.743   6.104   4.248  0.00  0.00    -0.083 Cl
ENDBRANCH  13  14
ENDBRANCH  11  13
ENDBRANCH   2  11
TORSDOF 5
