REMARK  Name = ZINC25965452
REMARK                            x       y       z     vdW  Elec       q    Type
REMARK                         _______ _______ _______ _____ _____    ______ ____
ROOT
ATOM      1  C   LIG    1        2.481   1.070  -0.016  0.00  0.00    +0.094 A 
ATOM      2  C   LIG    1        3.680   1.786  -0.030  0.00  0.00    +0.046 A 
ATOM      3  C   LIG    1        4.873   1.057  -0.041  0.00  0.00    +0.077 A 
ATOM      4  C   LIG    1        4.785  -0.341  -0.048  0.00  0.00    +0.164 A 
ATOM      5 CL   LIG    1        6.229  -1.304  -0.069  0.00  0.00    -0.059 Cl
ATOM      6  N   LIG    1        3.600  -0.924  -0.039  0.00  0.00    -0.136 NA
ATOM      7  N   LIG    1        2.505  -0.257  -0.024  0.00  0.00    -0.148 NA
ENDROOT
BRANCH   1  14
ATOM      8  C   LIG    1       -0.013   1.076   0.008  0.00  0.00    +0.011 A 
ATOM      9  C   LIG    1       -1.216   1.751   0.017  0.00  0.00    +0.020 A 
ATOM     10  C   LIG    1       -1.236   3.135   0.031  0.00  0.00    +0.041 A 
ATOM     11 CL   LIG    1       -2.754   3.978   0.050  0.00  0.00    -0.084 Cl
ATOM     12  C   LIG    1       -0.050   3.849   0.023  0.00  0.00    +0.020 A 
ATOM     13  C   LIG    1        1.159   3.184   0.008  0.00  0.00    +0.011 A 
ATOM     14  C   LIG    1        1.184   1.790   0.000  0.00  0.00    +0.002 A 
ENDBRANCH   1  14
BRANCH   3  15
ATOM     15  C   LIG    1        6.187   1.740  -0.051  0.00  0.00    +0.245 C 
ATOM     16  N   LIG    1        6.246   3.087  -0.044  0.00  0.00    -0.325 N 
ATOM     17  H   LIG    1        5.319   3.678  -0.030  0.00  0.00    +0.145 HD
ATOM     18  H   LIG    1        7.222   3.595  -0.051  0.00  0.00    +0.145 HD
ATOM     19  O   LIG    1        7.212   1.087  -0.065  0.00  0.00    -0.270 OA
ENDBRANCH   3  15
TORSDOF 2
