REMARK  Name = ZINC53295703
REMARK                            x       y       z     vdW  Elec       q    Type
REMARK                         _______ _______ _______ _____ _____    ______ ____
ROOT
ATOM      1  C   LIG    1       -1.589  -0.470   0.389  0.00  0.00    +0.086 A 
ATOM      2  C   LIG    1       -2.781  -0.413   1.081  0.00  0.00    +0.045 A 
ATOM      3  C   LIG    1       -3.459  -1.623   0.840  0.00  0.00    +0.079 A 
ATOM      4  C   LIG    1       -2.649  -2.390  -0.004  0.00  0.00    +0.116 A 
ATOM      5  N   LIG    1       -1.530  -1.687  -0.274  0.00  0.00    -0.329 N 
ATOM      6  C   LIG    1       -0.428  -2.138  -1.128  0.00  0.00    +0.150 C 
ENDROOT
BRANCH   3   7
ATOM      7  C   LIG    1       -4.772  -2.007   1.374  0.00  0.00    +0.270 C 
ATOM      8  N   LIG    1       -5.445  -1.163   2.180  0.00  0.00    -0.190 N 
ATOM      9  H   LIG    1       -5.063  -0.301   2.408  0.00  0.00    +0.183 HD
ATOM     10  O   LIG    1       -5.252  -3.088   1.088  0.00  0.00    -0.268 OA
BRANCH   8  11
ATOM     11  O   LIG    1       -6.711  -1.533   2.695  0.00  0.00    -0.277 OA
BRANCH  11  12
ATOM     12  C   LIG    1       -7.310  -0.544   3.534  0.00  0.00    +0.218 C 
BRANCH  12  13
ATOM     13  C   LIG    1       -8.666  -1.049   4.031  0.00  0.00    +0.186 C 
BRANCH  13  14
ATOM     14  O   LIG    1       -8.471  -2.189   4.870  0.00  0.00    -0.393 OA
ATOM     15  H   LIG    1       -9.291  -2.562   5.222  0.00  0.00    +0.209 HD
ENDBRANCH  13  14
ENDBRANCH  12  13
ENDBRANCH  11  12
ENDBRANCH   8  11
ENDBRANCH   3   7
BRANCH   1  17
ATOM     16  C   LIG    1       -0.805   1.814   1.130  0.00  0.00    +0.093 C 
ATOM     17  C   LIG    1       -0.604   0.537   0.356  0.00  0.00    +0.176 C 
ATOM     18  O   LIG    1        0.408   0.376  -0.297  0.00  0.00    -0.291 OA
ENDBRANCH   1  17
BRANCH   4  19
ATOM     19  N   LIG    1       -2.946  -3.643  -0.480  0.00  0.00    -0.298 N 
ATOM     20  H   LIG    1       -3.673  -3.763  -1.111  0.00  0.00    +0.154 HD
BRANCH  19  21
ATOM     21  C   LIG    1       -2.199  -4.747  -0.055  0.00  0.00    +0.068 A 
ATOM     22  C   LIG    1       -1.084  -4.565   0.752  0.00  0.00    +0.027 A 
ATOM     23  C   LIG    1       -0.348  -5.657   1.170  0.00  0.00    +0.016 A 
ATOM     24  C   LIG    1       -0.721  -6.933   0.785  0.00  0.00    +0.016 A 
ATOM     25  I   LIG    1        0.399  -8.585   1.422  0.00  0.00    -0.044 I 
ATOM     26  C   LIG    1       -1.831  -7.120  -0.018  0.00  0.00    +0.054 A 
ATOM     27  C   LIG    1       -2.575  -6.031  -0.436  0.00  0.00    +0.145 A 
ATOM     28  F   LIG    1       -3.663  -6.214  -1.216  0.00  0.00    -0.204 F 
ENDBRANCH  19  21
ENDBRANCH   4  19
TORSDOF 8
