REMARK  Name = ZINC27875294
REMARK                            x       y       z     vdW  Elec       q    Type
REMARK                         _______ _______ _______ _____ _____    ______ ____
ROOT
ATOM      1  N   LIG    1       -2.222   1.232   0.825  0.00  0.00    -0.284 N 
ATOM      2  C   LIG    1       -2.901   0.282   0.152  0.00  0.00    +0.229 C 
ATOM      3  O   LIG    1       -3.842  -0.276   0.675  0.00  0.00    -0.274 OA
ENDROOT
BRANCH   1   4
ATOM      4  C   LIG    1       -2.677   1.659   2.150  0.00  0.00    +0.077 C 
ATOM      5  C   LIG    1       -2.729   0.448   3.106  0.00  0.00    +0.022 C 
ATOM      6  C   LIG    1       -3.982   0.708   3.979  0.00  0.00    +0.002 C 
ATOM      7  C   LIG    1       -4.984   1.319   2.967  0.00  0.00    +0.002 C 
ATOM      8  C   LIG    1       -4.110   2.212   2.063  0.00  0.00    +0.022 C 
ENDBRANCH   1   4
BRANCH   1  10
ATOM      9  C   LIG    1       -1.405   2.521  -1.087  0.00  0.00    +0.040 C 
ATOM     10  C   LIG    1       -1.028   1.839   0.230  0.00  0.00    +0.182 C 
BRANCH  10  11
ATOM     11  C   LIG    1        0.000   0.770  -0.035  0.00  0.00    +0.325 C 
ATOM     12  O   LIG    1       -0.286  -0.394   0.117  0.00  0.00    -0.249 OA
BRANCH  11  13
ATOM     13  O   LIG    1        1.232   1.111  -0.444  0.00  0.00    -0.479 OA
ATOM     14  H   LIG    1        1.454   2.013  -0.561  0.00  0.00    +0.295 HD
ENDBRANCH  11  13
ENDBRANCH  10  11
ENDBRANCH   1  10
BRANCH   2  15
ATOM     15  C   LIG    1       -2.491  -0.088  -1.250  0.00  0.00    +0.126 C 
ATOM     16  C   LIG    1       -2.755  -1.577  -1.483  0.00  0.00    +0.028 C 
BRANCH  15  17
ATOM     17  S   LIG    1       -3.451   0.890  -2.439  0.00  0.00    -0.166 S 
ATOM     18  H   LIG    1       -3.289   0.757  -3.518  0.00  0.00    +0.102 HD
ENDBRANCH  15  17
ENDBRANCH   2  15
TORSDOF 6
