REMARK  Name = ZINC27328237
REMARK                            x       y       z     vdW  Elec       q    Type
REMARK                         _______ _______ _______ _____ _____    ______ ____
ROOT
ATOM      1  C   LIG    1        1.895   3.657  -1.433  0.00  0.00    +0.022 C 
ENDROOT
BRANCH   1   2
ATOM      2  C   LIG    1        1.652   3.192   0.003  0.00  0.00    +0.125 C 
BRANCH   2   6
ATOM      3  C   LIG    1        1.900  -1.700  -0.026  0.00  0.00    +0.248 A 
ATOM      4  C   LIG    1        1.287  -0.438  -0.013  0.00  0.00    +0.169 A 
ATOM      5  C   LIG    1        2.108   0.702  -0.014  0.00  0.00    +0.169 A 
ATOM      6  N   LIG    1        1.260   1.780  -0.000  0.00  0.00    -0.315 N 
ATOM      7  C   LIG    1       -0.016   1.297   0.009  0.00  0.00    +0.201 A 
ATOM      8  N   LIG    1        3.428   0.549  -0.029  0.00  0.00    -0.195 NA
ATOM      9  C   LIG    1        3.964  -0.661  -0.040  0.00  0.00    +0.218 A 
ATOM     10  N   LIG    1        0.002  -0.004   0.002  0.00  0.00    -0.229 NA
ATOM     11  N   LIG    1        3.225  -1.763  -0.039  0.00  0.00    -0.178 NA
BRANCH   9  12
ATOM     12  N   LIG    1        5.344  -0.781  -0.054  0.00  0.00    -0.327 N 
ATOM     13  H   LIG    1        5.975   0.120  -0.056  0.00  0.00    +0.145 HD
ATOM     14  H   LIG    1        5.809  -1.778  -0.064  0.00  0.00    +0.145 HD
ENDBRANCH   9  12
BRANCH   3  15
ATOM     15  O   LIG    1        1.154  -2.832  -0.025  0.00  0.00    -0.470 OA
BRANCH  15  16
ATOM     16  C   LIG    1        1.860  -4.074  -0.039  0.00  0.00    +0.273 C 
BRANCH  16  22
ATOM     17  C   LIG    1        0.300  -5.848  -1.087  0.00  0.00    +0.029 A 
ATOM     18  C   LIG    1       -0.586  -6.882  -0.844  0.00  0.00    +0.025 A 
ATOM     19 BR   LIG    1       -1.404  -7.802  -2.279  0.00  0.00    -0.050 Br
ATOM     20  C   LIG    1       -0.863  -7.222   0.439  0.00  0.00    +0.060 A 
ATOM     21  S   LIG    1        0.149  -6.069   1.353  0.00  0.00    -0.097 S 
ATOM     22  C   LIG    1        0.873  -5.213  -0.036  0.00  0.00    +0.028 A 
ENDBRANCH  16  22
ENDBRANCH  15  16
ENDBRANCH   3  15
ENDBRANCH   2   6
ENDBRANCH   1   2
BRANCH   1  23
ATOM     23  C   LIG    1        2.305   5.131  -1.429  0.00  0.00    +0.002 C 
BRANCH  23  24
ATOM     24  C   LIG    1        2.548   5.597  -2.866  0.00  0.00    +0.000 C 
BRANCH  24  25
ATOM     25  C   LIG    1        2.958   7.071  -2.862  0.00  0.00    +0.000 C 
BRANCH  25  26
ATOM     26  C   LIG    1        3.201   7.537  -4.300  0.00  0.00    +0.002 C 
BRANCH  26  27
ATOM     27  C   LIG    1        3.611   9.011  -4.295  0.00  0.00    +0.028 C 
BRANCH  27  28
ATOM     28  C   LIG    1        3.854   9.477  -5.732  0.00  0.00    +0.163 C 
BRANCH  28  29
ATOM     29  O   LIG    1        4.236  10.854  -5.729  0.00  0.00    -0.349 OA
BRANCH  29  30
ATOM     30  C   LIG    1        4.488  11.390  -7.029  0.00  0.00    +0.282 C 
ATOM     31  C   LIG    1        5.124  12.777  -6.894  0.00  0.00    +0.201 C 
ATOM     32  C   LIG    1        5.336  13.370  -8.291  0.00  0.00    +0.179 C 
ATOM     33  C   LIG    1        3.991  13.416  -9.023  0.00  0.00    +0.177 C 
ATOM     34  C   LIG    1        3.400  12.005  -9.076  0.00  0.00    +0.178 C 
ATOM     35  O   LIG    1        3.257  11.500  -7.746  0.00  0.00    -0.341 OA
BRANCH  31  36
ATOM     36  O   LIG    1        4.259  13.627  -6.139  0.00  0.00    -0.384 OA
ATOM     37  H   LIG    1        4.551  14.669  -5.938  0.00  0.00    +0.210 HD
ENDBRANCH  31  36
BRANCH  32  38
ATOM     38  O   LIG    1        5.863  14.693  -8.173  0.00  0.00    -0.386 OA
ATOM     39  H   LIG    1        6.081  15.281  -9.076  0.00  0.00    +0.210 HD
ENDBRANCH  32  38
BRANCH  33  40
ATOM     40  O   LIG    1        3.096  14.284  -8.325  0.00  0.00    -0.386 OA
ATOM     41  H   LIG    1        2.076  14.442  -8.705  0.00  0.00    +0.210 HD
ENDBRANCH  33  40
BRANCH  34  42
ATOM     42  C   LIG    1        2.029  12.051  -9.753  0.00  0.00    +0.190 C 
BRANCH  42  43
ATOM     43  O   LIG    1        1.528  10.722  -9.907  0.00  0.00    -0.392 OA
ATOM     44  H   LIG    1        0.548  10.554 -10.377  0.00  0.00    +0.210 HD
ENDBRANCH  42  43
ENDBRANCH  34  42
ENDBRANCH  29  30
ENDBRANCH  28  29
ENDBRANCH  27  28
ENDBRANCH  26  27
ENDBRANCH  25  26
ENDBRANCH  24  25
ENDBRANCH  23  24
ENDBRANCH   1  23
TORSDOF 19
