REMARK  Name = ZINC40848866
REMARK                            x       y       z     vdW  Elec       q    Type
REMARK                         _______ _______ _______ _____ _____    ______ ____
ROOT
ATOM      1  C   LIG    1        3.693  -0.692  -0.030  0.00  0.00    +0.252 C 
ATOM      2  N   LIG    1        3.711  -2.039  -0.045  0.00  0.00    -0.278 N 
ATOM      3  H   LIG    1        2.881  -2.536   0.029  0.00  0.00    +0.155 HD
ATOM      4  O   LIG    1        4.738  -0.069  -0.041  0.00  0.00    -0.270 OA
ENDROOT
BRANCH   1   8
ATOM      5  C   LIG    1       -0.015   1.383   0.051  0.00  0.00    +0.023 A 
ATOM      6  C   LIG    1        1.167   2.097   0.040  0.00  0.00    +0.047 A 
ATOM      7  C   LIG    1        2.382   1.430   0.013  0.00  0.00    +0.129 A 
ATOM      8  C   LIG    1        2.406   0.029  -0.002  0.00  0.00    +0.080 A 
ATOM      9  C   LIG    1        1.204  -0.682   0.009  0.00  0.00    +0.036 A 
ATOM     10  C   LIG    1        0.003  -0.003   0.036  0.00  0.00    +0.042 A 
ATOM     11 CL   LIG    1       -1.490  -0.887   0.050  0.00  0.00    -0.084 Cl
BRANCH   7  12
ATOM     12  O   LIG    1        3.544   2.131   0.002  0.00  0.00    -0.506 OA
ATOM     13  H   LIG    1        3.895   2.325   0.882  0.00  0.00    +0.292 HD
ENDBRANCH   7  12
ENDBRANCH   1   8
BRANCH   2  14
ATOM     14  C   LIG    1        4.928  -2.722  -0.166  0.00  0.00    +0.077 A 
ATOM     15  C   LIG    1        6.076  -2.205   0.416  0.00  0.00    +0.047 A 
ATOM     16  C   LIG    1        7.277  -2.881   0.294  0.00  0.00    +0.043 A 
ATOM     17 CL   LIG    1        8.713  -2.233   1.022  0.00  0.00    -0.083 Cl
ATOM     18  C   LIG    1        7.335  -4.073  -0.407  0.00  0.00    +0.023 A 
ATOM     19  C   LIG    1        6.194  -4.593  -0.989  0.00  0.00    +0.049 A 
ATOM     20  C   LIG    1        4.987  -3.924  -0.867  0.00  0.00    +0.138 A 
BRANCH  20  21
ATOM     21  O   LIG    1        3.863  -4.438  -1.434  0.00  0.00    -0.505 OA
ATOM     22  H   LIG    1        3.711  -4.145  -2.343  0.00  0.00    +0.292 HD
ENDBRANCH  20  21
ENDBRANCH   2  14
TORSDOF 4
