REMARK  Name = ZINC13916763
REMARK                            x       y       z     vdW  Elec       q    Type
REMARK                         _______ _______ _______ _____ _____    ______ ____
ROOT
ATOM      1  C   LIG    1       -2.041   2.509   3.911  0.00  0.00    +0.129 A 
ATOM      2  C   LIG    1       -2.377   1.313   3.294  0.00  0.00    +0.048 A 
ATOM      3  C   LIG    1       -1.782   0.963   2.098  0.00  0.00    +0.030 A 
ATOM      4  C   LIG    1       -0.852   1.804   1.515  0.00  0.00    +0.088 A 
ATOM      5  C   LIG    1       -0.511   2.994   2.130  0.00  0.00    +0.030 A 
ATOM      6  C   LIG    1       -1.107   3.351   3.325  0.00  0.00    +0.048 A 
ENDROOT
BRANCH   4   7
ATOM      7  S   LIG    1       -0.095   1.355  -0.011  0.00  0.00    -0.002 S 
ATOM      8  O   LIG    1        1.155   2.031  -0.009  0.00  0.00    -0.169 OA
ATOM      9  O   LIG    1       -0.150  -0.065  -0.040  0.00  0.00    -0.169 OA
BRANCH   7  10
ATOM     10  C   LIG    1       -1.177   2.048  -1.291  0.00  0.00    +0.186 C 
BRANCH  10  11
ATOM     11  C   LIG    1       -0.611   1.716  -2.673  0.00  0.00    +0.078 C 
ATOM     12  C   LIG    1       -1.323   2.332  -3.879  0.00  0.00    +0.085 C 
ATOM     13  S   LIG    1       -1.555   0.544  -3.686  0.00  0.00    -0.154 S 
ENDBRANCH  10  11
ENDBRANCH   7  10
ENDBRANCH   4   7
BRANCH   1  14
ATOM     14  O   LIG    1       -2.625   2.856   5.088  0.00  0.00    -0.456 OA
BRANCH  14  18
ATOM     15  C   LIG    1       -1.738   0.604   8.428  0.00  0.00    +0.000 A 
ATOM     16  C   LIG    1       -2.701   1.594   8.499  0.00  0.00    +0.004 A 
ATOM     17  C   LIG    1       -3.000   2.349   7.382  0.00  0.00    +0.046 A 
ATOM     18  C   LIG    1       -2.333   2.114   6.188  0.00  0.00    +0.128 A 
ATOM     19  C   LIG    1       -1.370   1.117   6.119  0.00  0.00    +0.046 A 
ATOM     20  C   LIG    1       -1.072   0.368   7.240  0.00  0.00    +0.004 A 
ENDBRANCH  14  18
ENDBRANCH   1  14
TORSDOF 5
