REMARK  Name = ZINC26988293
REMARK                            x       y       z     vdW  Elec       q    Type
REMARK                         _______ _______ _______ _____ _____    ______ ____
ROOT
ATOM      1  P   LIG    1        3.291  -2.225  -2.334  0.00  0.00    +0.202 P 
ATOM      2  O   LIG    1        2.013  -3.026  -1.999  0.00  0.00    -0.291 OA
ENDROOT
BRANCH   1   3
ATOM      3  O   LIG    1        4.316  -2.388  -1.190  0.00  0.00    -0.344 OA
ATOM      4  H   LIG    1        3.934  -2.055  -0.363  0.00  0.00    +0.218 HD
ENDBRANCH   1   3
BRANCH   1   5
ATOM      5  C   LIG    1        2.870  -0.461  -2.526  0.00  0.00    +0.100 C 
BRANCH   5   9
ATOM      6  C   LIG    1       -0.019   1.526   0.010  0.00  0.00    +0.000 C 
ATOM      7  C   LIG    1        1.417   2.055  -0.000  0.00  0.00    +0.000 C 
ATOM      8  C   LIG    1        2.133   1.562  -1.259  0.00  0.00    +0.004 C 
ATOM      9  C   LIG    1        2.154   0.032  -1.268  0.00  0.00    -0.002 C 
ATOM     10  C   LIG    1        0.718  -0.497  -1.257  0.00  0.00    +0.004 C 
ATOM     11  C   LIG    1        0.002  -0.004   0.002  0.00  0.00    +0.000 C 
ENDBRANCH   5   9
ENDBRANCH   1   5
BRANCH   1  12
ATOM     12  C   LIG    1        4.009  -2.851  -3.888  0.00  0.00    +0.095 C 
BRANCH  12  13
ATOM     13  C   LIG    1        4.247  -4.357  -3.770  0.00  0.00    -0.010 C 
BRANCH  13  14
ATOM     14  C   LIG    1        4.851  -4.883  -5.074  0.00  0.00    -0.086 C 
BRANCH  14  15
ATOM     15  N   LIG    1        5.079  -6.329  -4.960  0.00  0.00    +0.378 N 
ATOM     16  H   LIG    1        5.715  -6.510  -4.198  0.00  0.00    -0.090 HD
ATOM     17  H   LIG    1        5.477  -6.676  -5.820  0.00  0.00    -0.090 HD
ATOM     18  H   LIG    1        4.202  -6.795  -4.784  0.00  0.00    -0.090 HD
ENDBRANCH  14  15
ENDBRANCH  13  14
ENDBRANCH  12  13
ENDBRANCH   1  12
TORSDOF 7
