REMARK  Name = ZINC20289396
REMARK                            x       y       z     vdW  Elec       q    Type
REMARK                         _______ _______ _______ _____ _____    ______ ____
ROOT
ATOM      1  C   LIG    1       -0.709   1.578   1.281  0.00  0.00    +0.114 C 
ENDROOT
BRANCH   1   2
ATOM      2  N   LIG    1       -2.171   1.699   1.212  0.00  0.00    -0.290 NA
ATOM      3  C   LIG    1       -2.635   2.896   1.929  0.00  0.00    +0.104 C 
ATOM      4  C   LIG    1       -4.151   3.029   1.766  0.00  0.00    +0.120 C 
ATOM      5  N   LIG    1       -4.805   1.820   2.287  0.00  0.00    -0.327 N 
ATOM      6  C   LIG    1       -4.341   0.624   1.570  0.00  0.00    +0.120 C 
ATOM      7  C   LIG    1       -2.825   0.491   1.733  0.00  0.00    +0.104 C 
BRANCH   5   8
ATOM      8  C   LIG    1       -6.198   1.936   2.221  0.00  0.00    +0.030 A 
ATOM      9  C   LIG    1       -6.942   0.986   1.534  0.00  0.00    +0.027 A 
ATOM     10  C   LIG    1       -8.317   1.098   1.475  0.00  0.00    +0.047 A 
ATOM     11  C   LIG    1       -8.954   2.165   2.091  0.00  0.00    +0.120 A 
ATOM     12  C   LIG    1       -8.211   3.117   2.773  0.00  0.00    +0.047 A 
ATOM     13  C   LIG    1       -6.836   3.004   2.838  0.00  0.00    +0.027 A 
BRANCH  11  14
ATOM     14  O   LIG    1      -10.308   2.278   2.027  0.00  0.00    -0.495 OA
ATOM     15  C   LIG    1      -11.010   1.262   1.308  0.00  0.00    +0.277 C 
ENDBRANCH  11  14
ENDBRANCH   5   8
ENDBRANCH   1   2
BRANCH   1  16
ATOM     16  C   LIG    1       -0.286   1.411   2.718  0.00  0.00    +0.009 A 
ATOM     17  C   LIG    1        0.550   2.181   3.457  0.00  0.00    +0.013 A 
ATOM     18  C   LIG    1        0.793   1.835   4.772  0.00  0.00    +0.008 A 
ATOM     19  C   LIG    1        0.196   0.730   5.282  0.00  0.00    +0.045 A 
ATOM     20  S   LIG    1       -0.749   0.143   3.886  0.00  0.00    -0.100 S 
ENDBRANCH   1  16
BRANCH   1  22
ATOM     21  C   LIG    1       -0.789   0.473  -0.959  0.00  0.00    +0.030 C 
ATOM     22  C   LIG    1       -0.260   0.359   0.472  0.00  0.00    +0.092 C 
BRANCH  22  23
ATOM     23  N   LIG    1        1.204   0.302   0.448  0.00  0.00    -0.303 N 
ATOM     24  H   LIG    1        1.793   1.221   0.584  0.00  0.00    +0.149 HD
ATOM     25  C   LIG    1        1.829  -0.877   0.261  0.00  0.00    +0.299 C 
ATOM     26  O   LIG    1        1.179  -1.891   0.112  0.00  0.00    -0.265 OA
BRANCH  25  27
ATOM     27  C   LIG    1        3.322  -0.936   0.236  0.00  0.00    +0.299 C 
ATOM     28  N   LIG    1        3.947  -2.115   0.049  0.00  0.00    -0.300 N 
ATOM     29  H   LIG    1        3.358  -3.035  -0.086  0.00  0.00    +0.150 HD
ATOM     30  O   LIG    1        3.972   0.078   0.385  0.00  0.00    -0.265 OA
BRANCH  28  31
ATOM     31  C   LIG    1        5.411  -2.173   0.025  0.00  0.00    +0.179 C 
BRANCH  31  32
ATOM     32  C   LIG    1        5.854  -3.596  -0.199  0.00  0.00    +0.122 A 
ATOM     33  C   LIG    1        6.074  -4.173  -1.393  0.00  0.00    +0.046 A 
ATOM     34  C   LIG    1        6.472  -5.505  -1.138  0.00  0.00    +0.041 A 
ATOM     35  C   LIG    1        6.471  -5.663   0.198  0.00  0.00    +0.195 A 
ATOM     36  O   LIG    1        6.102  -4.501   0.762  0.00  0.00    -0.466 OA
ENDBRANCH  31  32
ENDBRANCH  28  31
ENDBRANCH  25  27
ENDBRANCH  22  23
ENDBRANCH   1  22
TORSDOF 9
