REMARK  Name = ZINC45354914
REMARK                            x       y       z     vdW  Elec       q    Type
REMARK                         _______ _______ _______ _____ _____    ______ ____
ROOT
ATOM      1  C   LIG    1        4.032   2.440   1.443  0.00  0.00    -0.064 C 
ATOM      2  C   LIG    1        2.925   3.283   2.080  0.00  0.00    +0.006 C 
ATOM      3  C   LIG    1        2.793   4.605   1.317  0.00  0.00    +0.105 C 
ATOM      4  N   LIG    1        4.106   5.263   1.280  0.00  0.00    -0.315 N 
ATOM      5  C   LIG    1        5.259   4.508   0.769  0.00  0.00    +0.105 C 
ATOM      6  C   LIG    1        5.364   3.187   1.538  0.00  0.00    +0.006 C 
ENDROOT
BRANCH   4   7
ATOM      7  C   LIG    1        4.254   6.567   1.716  0.00  0.00    +0.134 A 
ATOM      8  C   LIG    1        4.098   7.644   0.829  0.00  0.00    +0.059 A 
ATOM      9  C   LIG    1        3.785   7.778  -0.592  0.00  0.00    +0.032 A 
ATOM     10  C   LIG    1        3.775   9.094  -0.864  0.00  0.00    +0.085 A 
ATOM     11  N   LIG    1        4.056   9.806   0.273  0.00  0.00    -0.346 N 
ATOM     12  H   LIG    1        4.105  10.773   0.325  0.00  0.00    +0.167 HD
ATOM     13  C   LIG    1        4.258   8.952   1.322  0.00  0.00    +0.143 A 
ATOM     14  N   LIG    1        4.553   9.115   2.611  0.00  0.00    -0.218 NA
ATOM     15  C   LIG    1        4.691   8.076   3.405  0.00  0.00    +0.225 A 
ATOM     16  N   LIG    1        4.543   6.832   2.986  0.00  0.00    -0.220 NA
ENDBRANCH   4   7
BRANCH   1  17
ATOM     17  N   LIG    1        4.139   1.157   2.151  0.00  0.00    +0.382 N 
ATOM     18  H   LIG    1        3.261   0.664   2.088  0.00  0.00    -0.089 HD
ATOM     19  H   LIG    1        4.361   1.326   3.121  0.00  0.00    -0.089 HD
ATOM     20  H   LIG    1        4.868   0.601   1.731  0.00  0.00    -0.089 HD
ENDBRANCH   1  17
BRANCH   1  21
ATOM     21  C   LIG    1        3.695   2.183  -0.027  0.00  0.00    +0.022 C 
BRANCH  21  24
ATOM     22  C   LIG    1       -0.005   1.479  -0.299  0.00  0.00    +0.002 A 
ATOM     23  C   LIG    1        1.199   2.154  -0.213  0.00  0.00    +0.003 A 
ATOM     24  C   LIG    1        2.383   1.447  -0.121  0.00  0.00    -0.047 A 
ATOM     25  C   LIG    1        2.365   0.065  -0.116  0.00  0.00    +0.023 A 
ATOM     26  C   LIG    1        1.161  -0.611  -0.202  0.00  0.00    +0.041 A 
ATOM     27 CL   LIG    1        1.137  -2.346  -0.196  0.00  0.00    -0.084 Cl
ATOM     28  C   LIG    1       -0.025   0.098  -0.293  0.00  0.00    +0.020 A 
ENDBRANCH  21  24
ENDBRANCH   1  21
TORSDOF 4
