REMARK  Name = ZINC36268618
REMARK                            x       y       z     vdW  Elec       q    Type
REMARK                         _______ _______ _______ _____ _____    ______ ____
ROOT
ATOM      1  C   LIG    1        0.706  -4.348   1.546  0.00  0.00    +0.109 A 
ATOM      2  C   LIG    1        1.040  -5.688   1.631  0.00  0.00    +0.068 A 
ATOM      3  C   LIG    1        1.368  -6.223   2.880  0.00  0.00    +0.057 A 
ATOM      4  N   LIG    1        1.394  -5.441   3.958  0.00  0.00    -0.293 N 
ATOM      5  C   LIG    1        1.836  -5.963   5.253  0.00  0.00    +0.131 C 
ATOM      6  C   LIG    1        1.355  -7.395   5.468  0.00  0.00    +0.057 C 
ATOM      7  C   LIG    1        1.716  -8.240   4.275  0.00  0.00    -0.033 A 
ATOM      8  C   LIG    1        2.047  -9.568   4.422  0.00  0.00    +0.053 A 
ATOM      9  C   LIG    1        2.364 -10.331   3.306  0.00  0.00    +0.162 A 
ATOM     10  C   LIG    1        2.348  -9.757   2.036  0.00  0.00    +0.162 A 
ATOM     11  C   LIG    1        2.021  -8.421   1.884  0.00  0.00    +0.059 A 
ATOM     12  C   LIG    1        1.055  -4.154   3.864  0.00  0.00    +0.331 A 
ATOM     13  O   LIG    1        1.060  -3.463   4.870  0.00  0.00    -0.246 OA
ATOM     14  C   LIG    1        1.709  -7.657   3.006  0.00  0.00    +0.006 A 
ATOM     15  N   LIG    1        0.713  -3.598   2.690  0.00  0.00    -0.285 N 
ATOM     16  C   LIG    1        0.339  -2.182   2.635  0.00  0.00    +0.155 C 
ENDROOT
BRANCH   1  17
ATOM     17  N   LIG    1        0.381  -3.782   0.338  0.00  0.00    -0.300 N 
ATOM     18  H   LIG    1        0.986  -3.866  -0.416  0.00  0.00    +0.154 HD
BRANCH  17  24
ATOM     19  C   LIG    1       -4.501  -0.953  -0.246  0.00  0.00    +0.044 C 
ATOM     20  C   LIG    1       -3.204  -1.705  -0.091  0.00  0.00    -0.050 A 
ATOM     21  C   LIG    1       -2.005  -1.075  -0.369  0.00  0.00    +0.008 A 
ATOM     22  C   LIG    1       -0.814  -1.761  -0.228  0.00  0.00    -0.029 A 
ATOM     23  C   LIG    1        0.492  -1.074  -0.531  0.00  0.00    +0.045 C 
ATOM     24  C   LIG    1       -0.823  -3.085   0.194  0.00  0.00    +0.038 A 
ATOM     25  C   LIG    1       -2.029  -3.714   0.472  0.00  0.00    -0.029 A 
ATOM     26  C   LIG    1       -2.043  -5.150   0.930  0.00  0.00    +0.045 C 
ATOM     27  C   LIG    1       -3.216  -3.021   0.334  0.00  0.00    +0.008 A 
ENDBRANCH  17  24
ENDBRANCH   1  17
BRANCH   9  28
ATOM     28  O   LIG    1        2.690 -11.642   3.452  0.00  0.00    -0.491 OA
ATOM     29  C   LIG    1        2.686 -12.167   4.781  0.00  0.00    +0.277 C 
ENDBRANCH   9  28
BRANCH  10  30
ATOM     30  O   LIG    1        2.654 -10.510   0.946  0.00  0.00    -0.491 OA
ATOM     31  C   LIG    1        2.618  -9.857  -0.324  0.00  0.00    +0.277 C 
ENDBRANCH  10  30
TORSDOF 4
