REMARK  Name = ZINC20324905
REMARK                            x       y       z     vdW  Elec       q    Type
REMARK                         _______ _______ _______ _____ _____    ______ ____
ROOT
ATOM      1  N   LIG    1        0.852  -2.547   1.045  0.00  0.00    -0.240 N 
ATOM      2  H   LIG    1        0.151  -2.258   1.650  0.00  0.00    +0.265 HD
ENDROOT
BRANCH   1   9
ATOM      3  C   LIG    1        1.943  -0.388   1.124  0.00  0.00    +0.158 A 
ATOM      4  C   LIG    1        2.812   0.537   0.568  0.00  0.00    +0.050 A 
ATOM      5  C   LIG    1        3.458   0.252  -0.620  0.00  0.00    +0.024 A 
ATOM      6  C   LIG    1        3.239  -0.956  -1.259  0.00  0.00    +0.044 A 
ATOM      7 CL   LIG    1        4.053  -1.306  -2.752  0.00  0.00    -0.083 Cl
ATOM      8  C   LIG    1        2.373  -1.884  -0.711  0.00  0.00    +0.066 A 
ATOM      9  C   LIG    1        1.726  -1.607   0.485  0.00  0.00    +0.143 A 
BRANCH   3  11
ATOM     10  C   LIG    1        1.579   1.160   2.892  0.00  0.00    +0.277 C 
ATOM     11  O   LIG    1        1.308  -0.109   2.293  0.00  0.00    -0.492 OA
ENDBRANCH   3  11
ENDBRANCH   1   9
BRANCH   1  12
ATOM     12  C   LIG    1        0.988  -3.881   0.737  0.00  0.00    +0.393 C 
ATOM     13  N   LIG    1        2.002  -4.286   0.026  0.00  0.00    -0.129 NA
ATOM     14  H   LIG    1        2.060  -5.213  -0.252  0.00  0.00    +0.306 HD
BRANCH  12  15
ATOM     15  N   LIG    1        0.050  -4.791   1.182  0.00  0.00    -0.186 N 
ATOM     16  H   LIG    1        0.193  -5.740   1.044  0.00  0.00    +0.271 HD
BRANCH  15  17
ATOM     17  C   LIG    1       -1.089  -4.349   1.821  0.00  0.00    +0.385 C 
ATOM     18  N   LIG    1       -1.728  -5.142   2.634  0.00  0.00    -0.129 NA
ATOM     19  H   LIG    1       -1.402  -6.042   2.790  0.00  0.00    +0.306 HD
BRANCH  17  20
ATOM     20  N   LIG    1       -1.551  -3.074   1.600  0.00  0.00    -0.289 N 
ATOM     21  H   LIG    1       -2.216  -2.689   2.193  0.00  0.00    +0.255 HD
ATOM     22  H   LIG    1       -1.212  -2.558   0.852  0.00  0.00    +0.255 HD
ENDBRANCH  17  20
ENDBRANCH  15  17
ENDBRANCH  12  15
ENDBRANCH   1  12
TORSDOF 6
