REMARK  Name = ZINC00056256
REMARK                            x       y       z     vdW  Elec       q    Type
REMARK                         _______ _______ _______ _____ _____    ______ ____
ROOT
ATOM      1  C   LIG    1        3.659   2.162  -0.022  0.00  0.00    +0.182 A 
ATOM      2  N   LIG    1        3.631   3.493  -0.015  0.00  0.00    -0.223 NA
ATOM      3  C   LIG    1        4.774   4.164  -0.022  0.00  0.00    +0.105 A 
ATOM      4  C   LIG    1        5.983   3.439  -0.038  0.00  0.00    +0.159 A 
ATOM      5  C   LIG    1        7.096   4.417  -0.044  0.00  0.00    +0.216 C 
ATOM      6  C   LIG    1        6.487   5.769  -0.031  0.00  0.00    +0.033 A 
ATOM      7  C   LIG    1        7.043   7.043  -0.030  0.00  0.00    +0.012 A 
ATOM      8  C   LIG    1        6.219   8.156  -0.015  0.00  0.00    +0.001 A 
ATOM      9  C   LIG    1        4.846   8.006  -0.003  0.00  0.00    +0.001 A 
ATOM     10  C   LIG    1        4.279   6.740  -0.004  0.00  0.00    +0.011 A 
ATOM     11  O   LIG    1        8.282   4.159  -0.056  0.00  0.00    -0.285 OA
ATOM     12  N   LIG    1        5.943   2.114  -0.044  0.00  0.00    -0.142 NA
ATOM     13  C   LIG    1        5.090   5.614  -0.018  0.00  0.00    +0.014 A 
ATOM     14  N   LIG    1        4.811   1.499  -0.032  0.00  0.00    -0.128 NA
ENDROOT
BRANCH   1  18
ATOM     15  C   LIG    1        0.002  -0.004   0.002  0.00  0.00    +0.000 A 
ATOM     16  C   LIG    1       -0.017   1.379   0.010  0.00  0.00    +0.001 A 
ATOM     17  C   LIG    1        1.167   2.088   0.002  0.00  0.00    +0.011 A 
ATOM     18  C   LIG    1        2.384   1.407  -0.014  0.00  0.00    +0.021 A 
ATOM     19  C   LIG    1        2.397   0.012  -0.021  0.00  0.00    +0.011 A 
ATOM     20  C   LIG    1        1.206  -0.685  -0.013  0.00  0.00    +0.001 A 
ENDBRANCH   1  18
TORSDOF 1
