REMARK  Name = ZINC13813304
REMARK                            x       y       z     vdW  Elec       q    Type
REMARK                         _______ _______ _______ _____ _____    ______ ____
ROOT
ATOM      1  C   LIG    1        5.385  -1.642   1.400  0.00  0.00    +0.160 C 
ENDROOT
BRANCH   1   2
ATOM      2  O   LIG    1        4.141  -0.946   1.304  0.00  0.00    -0.375 OA
BRANCH   2   3
ATOM      3  C   LIG    1        3.711  -0.707  -0.038  0.00  0.00    +0.195 C 
BRANCH   3   7
ATOM      4  C   LIG    1       -0.017   1.378   0.010  0.00  0.00    +0.000 A 
ATOM      5  C   LIG    1        1.171   2.086   0.002  0.00  0.00    +0.000 A 
ATOM      6  C   LIG    1        2.377   1.411  -0.013  0.00  0.00    +0.006 A 
ATOM      7  C   LIG    1        2.396   0.029  -0.020  0.00  0.00    -0.022 A 
ATOM      8  C   LIG    1        1.208  -0.679  -0.012  0.00  0.00    +0.006 A 
ATOM      9  C   LIG    1        0.002  -0.004   0.002  0.00  0.00    +0.000 A 
ENDBRANCH   3   7
ENDBRANCH   2   3
ENDBRANCH   1   2
BRANCH   1  10
ATOM     10  C   LIG    1        5.745  -1.842   2.874  0.00  0.00    +0.034 C 
BRANCH  10  11
ATOM     11  C   LIG    1        7.077  -2.587   2.977  0.00  0.00    +0.059 C 
BRANCH  11  12
ATOM     12  C   LIG    1        7.432  -2.784   4.429  0.00  0.00    +0.059 A 
ATOM     13  C   LIG    1        7.713  -3.960   5.022  0.00  0.00    +0.107 A 
ATOM     14  N   LIG    1        7.978  -3.687   6.337  0.00  0.00    -0.351 N 
ATOM     15  H   LIG    1        8.214  -4.331   7.022  0.00  0.00    +0.166 HD
ATOM     16  C   LIG    1        7.851  -2.352   6.501  0.00  0.00    +0.196 A 
ATOM     17  N   LIG    1        7.528  -1.819   5.354  0.00  0.00    -0.241 NA
ENDBRANCH  11  12
ENDBRANCH  10  11
ENDBRANCH   1  10
TORSDOF 6
