REMARK  Name = ZINC13800956
REMARK                            x       y       z     vdW  Elec       q    Type
REMARK                         _______ _______ _______ _____ _____    ______ ____
ROOT
ATOM      1  N   LIG    1        1.175   1.737   0.000  0.00  0.00    -0.298 N 
ATOM      2  C   LIG    1       -0.013   1.076   0.008  0.00  0.00    +0.202 A 
ATOM      3  N   LIG    1       -1.163   1.676   0.017  0.00  0.00    -0.237 NA
ATOM      4  C   LIG    1       -1.259   3.030   0.029  0.00  0.00    +0.082 A 
ATOM      5  C   LIG    1       -2.497   3.674   0.044  0.00  0.00    +0.078 A 
ATOM      6  C   LIG    1       -2.551   5.054   0.051  0.00  0.00    +0.164 A 
ATOM      7  C   LIG    1       -1.376   5.814   0.043  0.00  0.00    +0.162 A 
ATOM      8  C   LIG    1       -0.144   5.194   0.029  0.00  0.00    +0.064 A 
ATOM      9  C   LIG    1       -0.074   3.801   0.022  0.00  0.00    +0.069 A 
ATOM     10  C   LIG    1        1.211   3.090   0.007  0.00  0.00    +0.262 A 
ATOM     11  O   LIG    1        2.268   3.694   0.000  0.00  0.00    -0.267 OA
ENDROOT
BRANCH   6  12
ATOM     12  O   LIG    1       -3.756   5.680   0.065  0.00  0.00    -0.491 OA
ATOM     13  C   LIG    1       -4.918   4.848   0.072  0.00  0.00    +0.277 C 
ENDBRANCH   6  12
BRANCH   7  14
ATOM     14  O   LIG    1       -1.450   7.172   0.051  0.00  0.00    -0.491 OA
ATOM     15  C   LIG    1       -0.213   7.889   0.043  0.00  0.00    +0.277 C 
ENDBRANCH   7  14
BRANCH   1  16
ATOM     16  C   LIG    1        2.428   0.978  -0.016  0.00  0.00    +0.137 C 
BRANCH  16  17
ATOM     17  C   LIG    1        2.850   0.722  -1.464  0.00  0.00    +0.142 C 
BRANCH  17  18
ATOM     18  C   LIG    1        4.139  -0.059  -1.480  0.00  0.00    +0.309 C 
ATOM     19  O   LIG    1        4.666  -0.377  -0.441  0.00  0.00    -0.251 OA
BRANCH  18  20
ATOM     20  O   LIG    1        4.702  -0.400  -2.650  0.00  0.00    -0.465 OA
BRANCH  20  22
ATOM     21  C   LIG    1        6.430  -1.447  -4.010  0.00  0.00    +0.048 C 
ATOM     22  C   LIG    1        5.943  -1.152  -2.590  0.00  0.00    +0.229 C 
ENDBRANCH  20  22
ENDBRANCH  18  20
ENDBRANCH  17  18
ENDBRANCH  16  17
ENDBRANCH   1  16
TORSDOF 7
