REMARK  Name = ZINC14985912
REMARK                            x       y       z     vdW  Elec       q    Type
REMARK                         _______ _______ _______ _____ _____    ______ ____
ROOT
ATOM      1  C   LIG    1       -0.018   1.503   0.010  0.00  0.00    +0.008 C 
ATOM      2  C   LIG    1        0.002  -0.004   0.002  0.00  0.00    -0.007 C 
ATOM      3  C   LIG    1        0.006  -0.705  -1.191  0.00  0.00    +0.038 C 
ATOM      4  C   LIG    1        0.026  -2.095  -1.158  0.00  0.00    +0.119 C 
ATOM      5  N   LIG    1        0.040  -2.742  -0.003  0.00  0.00    -0.301 NA
ATOM      6  H   LIG    1        0.054  -3.712  -0.004  0.00  0.00    +0.123 HD
ATOM      7  C   LIG    1        0.036  -2.100   1.149  0.00  0.00    +0.086 C 
ATOM      8  C   LIG    1        0.023  -0.720   1.191  0.00  0.00    +0.003 C 
ATOM      9  C   LIG    1        0.025   0.001   2.514  0.00  0.00    +0.009 C 
ENDROOT
BRANCH   4  10
ATOM     10  N   LIG    1        0.029  -2.812  -2.349  0.00  0.00    -0.316 NA
ATOM     11  H   LIG    1        0.043  -3.782  -2.332  0.00  0.00    +0.120 HD
ATOM     12  H   LIG    1        0.019  -2.342  -3.198  0.00  0.00    +0.120 HD
ENDBRANCH   4  10
TORSDOF 1
