REMARK  Name = ZINC15679354
REMARK                            x       y       z     vdW  Elec       q    Type
REMARK                         _______ _______ _______ _____ _____    ______ ____
ROOT
ATOM      1  N   LIG    1        1.165  -2.110  -0.627  0.00  0.00    -0.324 N 
ATOM      2  C   LIG    1        1.857  -2.437   0.628  0.00  0.00    +0.124 C 
ATOM      3  C   LIG    1        1.499  -3.874   1.025  0.00  0.00    +0.127 C 
ATOM      4  N   LIG    1        1.696  -4.747  -0.140  0.00  0.00    -0.293 N 
ATOM      5  C   LIG    1        2.498  -5.827  -0.060  0.00  0.00    +0.264 C 
ATOM      6  O   LIG    1        2.651  -6.544  -1.031  0.00  0.00    -0.268 OA
ATOM      7  C   LIG    1        1.005  -4.420  -1.395  0.00  0.00    +0.127 C 
ATOM      8  C   LIG    1        1.359  -2.986  -1.791  0.00  0.00    +0.124 C 
ENDROOT
BRANCH   1  14
ATOM      9  C   LIG    1        0.856   0.242  -1.101  0.00  0.00    +0.141 A 
ATOM     10  C   LIG    1        0.026   1.348  -1.187  0.00  0.00    +0.047 A 
ATOM     11  C   LIG    1       -1.317   1.230  -0.880  0.00  0.00    +0.004 A 
ATOM     12  C   LIG    1       -1.836   0.010  -0.487  0.00  0.00    +0.002 A 
ATOM     13  C   LIG    1       -1.015  -1.098  -0.399  0.00  0.00    +0.027 A 
ATOM     14  C   LIG    1        0.333  -0.988  -0.710  0.00  0.00    +0.072 A 
BRANCH   9  16
ATOM     15  C   LIG    1        2.644   1.649  -1.794  0.00  0.00    +0.277 C 
ATOM     16  O   LIG    1        2.177   0.357  -1.401  0.00  0.00    -0.493 OA
ENDBRANCH   9  16
ENDBRANCH   1  14
BRANCH   5  17
ATOM     17  C   LIG    1        3.189  -6.139   1.202  0.00  0.00    +0.121 A 
ATOM     18  C   LIG    1        4.408  -6.775   1.342  0.00  0.00    +0.062 A 
ATOM     19  C   LIG    1        4.636  -6.838   2.729  0.00  0.00    +0.093 A 
ATOM     20  N   LIG    1        3.608  -6.272   3.327  0.00  0.00    -0.173 NA
ATOM     21  N   LIG    1        2.754  -5.852   2.465  0.00  0.00    -0.272 N 
ATOM     22  H   LIG    1        1.923  -5.400   2.679  0.00  0.00    +0.189 HD
BRANCH  19  23
ATOM     23  C   LIG    1        5.819  -7.435   3.397  0.00  0.00    +0.002 A 
ATOM     24  C   LIG    1        6.841  -7.998   2.636  0.00  0.00    +0.013 A 
ATOM     25  C   LIG    1        7.940  -8.551   3.261  0.00  0.00    +0.039 A 
ATOM     26  C   LIG    1        8.028  -8.547   4.643  0.00  0.00    +0.123 A 
ATOM     27  F   LIG    1        9.105  -9.091   5.251  0.00  0.00    -0.205 F 
ATOM     28  C   LIG    1        7.014  -7.988   5.404  0.00  0.00    +0.039 A 
ATOM     29  C   LIG    1        5.915  -7.428   4.787  0.00  0.00    +0.013 A 
ENDBRANCH  19  23
ENDBRANCH   5  17
TORSDOF 4
