REMARK  Name = ZINC28643021
REMARK                            x       y       z     vdW  Elec       q    Type
REMARK                         _______ _______ _______ _____ _____    ______ ____
ROOT
ATOM      1  C   LIG    1       -0.610   1.141   1.586  0.00  0.00    +0.001 A 
ATOM      2  C   LIG    1        0.458   2.022   1.637  0.00  0.00    +0.001 A 
ATOM      3  C   LIG    1        1.717   1.609   1.257  0.00  0.00    +0.015 A 
ATOM      4  C   LIG    1        1.928   0.303   0.819  0.00  0.00    +0.020 A 
ATOM      5  C   LIG    1        0.853  -0.586   0.769  0.00  0.00    -0.004 A 
ATOM      6  C   LIG    1        1.027  -1.979   0.316  0.00  0.00    -0.013 C 
ATOM      7  C   LIG    1        2.333  -2.663   0.359  0.00  0.00    -0.003 A 
ATOM      8  C   LIG    1        2.365  -4.061   0.385  0.00  0.00    +0.022 A 
ATOM      9  C   LIG    1        3.571  -4.726   0.426  0.00  0.00    +0.055 A 
ATOM     10  C   LIG    1        4.758  -4.013   0.444  0.00  0.00    +0.013 A 
ATOM     11  C   LIG    1        4.741  -2.635   0.420  0.00  0.00    +0.016 A 
ATOM     12  C   LIG    1        3.530  -1.946   0.376  0.00  0.00    +0.020 A 
ATOM     13  C   LIG    1       -0.039  -2.647  -0.151  0.00  0.00    -0.020 C 
ATOM     14  S   LIG    1        3.546  -0.189   0.341  0.00  0.00    -0.088 S 
ATOM     15  C   LIG    1       -0.419  -0.154   1.156  0.00  0.00    +0.009 A 
ENDROOT
BRANCH   9  16
ATOM     16  C   LIG    1        3.598  -6.232   0.453  0.00  0.00    +0.417 C 
ATOM     17  F   LIG    1        2.448  -6.708   1.093  0.00  0.00    -0.166 F 
ATOM     18  F   LIG    1        4.732  -6.666   1.149  0.00  0.00    -0.166 F 
ATOM     19  F   LIG    1        3.639  -6.721  -0.857  0.00  0.00    -0.166 F 
ENDBRANCH   9  16
BRANCH  13  20
ATOM     20  C   LIG    1       -1.264  -1.892  -0.598  0.00  0.00    +0.009 C 
BRANCH  20  21
ATOM     21  C   LIG    1       -1.661  -2.350  -2.003  0.00  0.00    -0.075 C 
BRANCH  21  22
ATOM     22  N   LIG    1       -2.856  -1.614  -2.439  0.00  0.00    +0.382 N 
ATOM     23  H   LIG    1       -3.589  -1.730  -1.756  0.00  0.00    -0.082 HD
ATOM     24  C   LIG    1       -2.530  -0.188  -2.571  0.00  0.00    -0.063 C 
ATOM     25  C   LIG    1       -3.779   0.582  -3.007  0.00  0.00    +0.066 C 
ATOM     26  N   LIG    1       -4.256   0.049  -4.291  0.00  0.00    -0.304 NA
ATOM     27  C   LIG    1       -4.562  -1.384  -4.180  0.00  0.00    +0.066 C 
ATOM     28  C   LIG    1       -3.307  -2.138  -3.735  0.00  0.00    -0.063 C 
BRANCH  26  29
ATOM     29  C   LIG    1       -5.423   0.801  -4.772  0.00  0.00    +0.112 C 
BRANCH  29  30
ATOM     30  C   LIG    1       -4.966   2.151  -5.327  0.00  0.00    +0.171 C 
BRANCH  30  31
ATOM     31  O   LIG    1       -4.113   1.939  -6.454  0.00  0.00    -0.394 OA
ATOM     32  H   LIG    1       -3.785   2.754  -6.858  0.00  0.00    +0.209 HD
ENDBRANCH  30  31
ENDBRANCH  29  30
ENDBRANCH  26  29
ENDBRANCH  21  22
ENDBRANCH  20  21
ENDBRANCH  13  20
TORSDOF 7
