REMARK  Name = ZINC20534273
REMARK                            x       y       z     vdW  Elec       q    Type
REMARK                         _______ _______ _______ _____ _____    ______ ____
ROOT
ATOM      1  N   LIG    1        2.421   7.088  -1.365  0.00  0.00    -0.294 NA
ATOM      2  C   LIG    1        3.289   6.213  -2.166  0.00  0.00    +0.103 C 
ATOM      3  C   LIG    1        3.321   6.716  -3.611  0.00  0.00    +0.120 C 
ATOM      4  N   LIG    1        3.810   8.102  -3.634  0.00  0.00    -0.327 N 
ATOM      5  C   LIG    1        2.943   8.977  -2.833  0.00  0.00    +0.120 C 
ATOM      6  C   LIG    1        2.911   8.474  -1.388  0.00  0.00    +0.103 C 
ENDROOT
BRANCH   4   7
ATOM      7  C   LIG    1        3.921   8.572  -4.945  0.00  0.00    +0.030 A 
ATOM      8  C   LIG    1        3.249   9.725  -5.331  0.00  0.00    +0.024 A 
ATOM      9  C   LIG    1        3.366  10.191  -6.625  0.00  0.00    +0.022 A 
ATOM     10  C   LIG    1        4.142   9.503  -7.542  0.00  0.00    +0.041 A 
ATOM     11 CL   LIG    1        4.280  10.087  -9.171  0.00  0.00    -0.084 Cl
ATOM     12  C   LIG    1        4.808   8.351  -7.162  0.00  0.00    +0.022 A 
ATOM     13  C   LIG    1        4.700   7.884  -5.867  0.00  0.00    +0.024 A 
ENDBRANCH   4   7
BRANCH   1  14
ATOM     14  C   LIG    1        2.304   6.594   0.014  0.00  0.00    +0.141 C 
BRANCH  14  20
ATOM     15  C   LIG    1       -1.240   1.758   0.018  0.00  0.00    +0.005 A 
ATOM     16  C   LIG    1       -0.013   1.076   0.008  0.00  0.00    +0.018 A 
ATOM     17  C   LIG    1        1.149   1.763   0.001  0.00  0.00    +0.092 A 
ATOM     18  N   LIG    1        1.148   3.128   0.007  0.00  0.00    -0.306 N 
ATOM     19  C   LIG    1        2.156   4.054   0.002  0.00  0.00    +0.117 A 
ATOM     20  C   LIG    1        1.576   5.274   0.014  0.00  0.00    +0.074 A 
ATOM     21  N   LIG    1        0.250   5.117   0.026  0.00  0.00    -0.231 NA
ATOM     22  C   LIG    1       -0.034   3.822   0.022  0.00  0.00    +0.138 A 
ATOM     23  C   LIG    1       -1.255   3.119   0.031  0.00  0.00    +0.047 A 
ENDBRANCH  14  20
ENDBRANCH   1  14
TORSDOF 3
