REMARK  Name = ZINC63059969
REMARK                            x       y       z     vdW  Elec       q    Type
REMARK                         _______ _______ _______ _____ _____    ______ ____
ROOT
ATOM      1  C   LIG    1        0.026  -2.817  -2.483  0.00  0.00    +0.248 C 
ATOM      2  N   LIG    1        0.046  -4.165  -2.486  0.00  0.00    -0.281 N 
ATOM      3  H   LIG    1        0.132  -4.651  -1.651  0.00  0.00    +0.155 HD
ATOM      4  O   LIG    1        0.004  -2.207  -3.534  0.00  0.00    -0.270 OA
ENDROOT
BRANCH   1   8
ATOM      5  C   LIG    1       -0.009   1.503   0.011  0.00  0.00    +0.047 C 
ATOM      6  C   LIG    1        0.014  -0.004   0.003  0.00  0.00    -0.015 A 
ATOM      7  C   LIG    1        0.010  -0.686  -1.196  0.00  0.00    +0.019 A 
ATOM      8  C   LIG    1        0.031  -2.082  -1.202  0.00  0.00    +0.037 A 
ATOM      9  C   LIG    1        0.056  -2.780   0.007  0.00  0.00    +0.016 A 
ATOM     10  C   LIG    1        0.060  -2.089   1.199  0.00  0.00    +0.039 A 
ATOM     11  C   LIG    1        0.045  -0.703   1.200  0.00  0.00    +0.126 A 
ATOM     12  F   LIG    1        0.054  -0.030   2.371  0.00  0.00    -0.205 F 
ENDBRANCH   1   8
BRANCH   2  13
ATOM     13  C   LIG    1       -0.056  -4.863  -3.694  0.00  0.00    +0.037 A 
ATOM     14  C   LIG    1       -0.741  -6.070  -3.744  0.00  0.00    +0.023 A 
ATOM     15  C   LIG    1       -0.842  -6.760  -4.936  0.00  0.00    +0.005 A 
ATOM     16  C   LIG    1       -0.262  -6.251  -6.083  0.00  0.00    +0.046 A 
ATOM     17  C   LIG    1        0.425  -5.045  -6.039  0.00  0.00    +0.122 A 
ATOM     18  C   LIG    1        0.522  -4.347  -4.845  0.00  0.00    +0.069 A 
BRANCH  17  19
ATOM     19  O   LIG    1        0.996  -4.547  -7.167  0.00  0.00    -0.495 OA
ATOM     20  C   LIG    1        0.850  -5.316  -8.362  0.00  0.00    +0.277 C 
ENDBRANCH  17  19
ENDBRANCH   2  13
TORSDOF 3
