REMARK  Name = ZINC27727562
REMARK                            x       y       z     vdW  Elec       q    Type
REMARK                         _______ _______ _______ _____ _____    ______ ____
ROOT
ATOM      1  C   LIG    1        5.981  -0.737  -0.058  0.00  0.00    +0.149 A 
ATOM      2  N   LIG    1        6.592  -1.183   1.000  0.00  0.00    -0.225 NA
ATOM      3  C   LIG    1        7.636  -1.967   0.627  0.00  0.00    +0.131 A 
ATOM      4  C   LIG    1        7.655  -1.985  -0.777  0.00  0.00    +0.073 A 
ATOM      5  C   LIG    1        8.630  -2.712  -1.448  0.00  0.00    +0.028 A 
ATOM      6  C   LIG    1        9.577  -3.415  -0.736  0.00  0.00    +0.006 A 
ATOM      7  C   LIG    1        9.566  -3.404   0.651  0.00  0.00    +0.048 A 
ATOM      8  C   LIG    1        8.605  -2.687   1.338  0.00  0.00    +0.148 A 
ATOM      9  N   LIG    1        6.596  -1.197  -1.182  0.00  0.00    -0.325 N 
ENDROOT
BRANCH   1  10
ATOM     10  C   LIG    1        4.772   0.164  -0.042  0.00  0.00    +0.303 C 
BRANCH  10  11
ATOM     11  O   LIG    1        3.586  -0.632  -0.035  0.00  0.00    -0.484 OA
BRANCH  11  15
ATOM     12  C   LIG    1       -0.017   1.378   0.010  0.00  0.00    +0.000 A 
ATOM     13  C   LIG    1        1.170   2.088   0.002  0.00  0.00    +0.004 A 
ATOM     14  C   LIG    1        2.377   1.417  -0.013  0.00  0.00    +0.045 A 
ATOM     15  C   LIG    1        2.399   0.030  -0.021  0.00  0.00    +0.121 A 
ATOM     16  C   LIG    1        1.207  -0.680  -0.013  0.00  0.00    +0.045 A 
ATOM     17  C   LIG    1        0.002  -0.004   0.002  0.00  0.00    +0.004 A 
ENDBRANCH  11  15
ENDBRANCH  10  11
ENDBRANCH   1  10
BRANCH   8  18
ATOM     18  O   LIG    1        8.601  -2.680   2.697  0.00  0.00    -0.490 OA
BRANCH  18  19
ATOM     19  C   LIG    1        9.620  -3.437   3.354  0.00  0.00    +0.227 C 
BRANCH  19  20
ATOM     20  C   LIG    1        9.453  -3.309   4.869  0.00  0.00    +0.022 C 
BRANCH  20  21
ATOM     21  C   LIG    1       10.544  -4.119   5.572  0.00  0.00    -0.076 C 
BRANCH  21  22
ATOM     22  N   LIG    1       10.385  -3.996   7.027  0.00  0.00    +0.380 N 
ATOM     23  H   LIG    1        9.344  -4.250   7.277  0.00  0.00    -0.082 HD
ATOM     24  C   LIG    1       10.628  -2.617   7.469  0.00  0.00    -0.079 C 
ATOM     25  C   LIG    1       10.312  -2.494   8.961  0.00  0.00    -0.019 C 
ATOM     26  C   LIG    1       11.198  -3.465   9.747  0.00  0.00    -0.004 C 
ATOM     27  C   LIG    1       10.962  -4.888   9.234  0.00  0.00    -0.019 C 
ATOM     28  C   LIG    1       11.258  -4.942   7.734  0.00  0.00    -0.079 C 
ENDBRANCH  21  22
ENDBRANCH  20  21
ENDBRANCH  19  20
ENDBRANCH  18  19
ENDBRANCH   8  18
BRANCH   9  29
ATOM     29  C   LIG    1        6.206  -0.910  -2.565  0.00  0.00    +0.123 C 
BRANCH  29  30
ATOM     30  C   LIG    1        6.931   0.347  -3.049  0.00  0.00    +0.022 C 
BRANCH  30  31
ATOM     31  C   LIG    1        6.524   0.646  -4.493  0.00  0.00    +0.005 C 
BRANCH  31  32
ATOM     32  C   LIG    1        7.249   1.904  -4.977  0.00  0.00    -0.014 C 
ATOM     33  C   LIG    1        6.774   3.113  -4.166  0.00  0.00    -0.016 C 
ATOM     34  C   LIG    1        7.456   4.376  -4.696  0.00  0.00    -0.082 C 
ATOM     35  N   LIG    1        7.126   4.554  -6.116  0.00  0.00    +0.379 N 
ATOM     36  H   LIG    1        7.592   5.479  -6.488  0.00  0.00    -0.086 HD
ATOM     37  H   LIG    1        6.035   4.621  -6.234  0.00  0.00    -0.086 HD
ATOM     38  C   LIG    1        7.616   3.427  -6.920  0.00  0.00    -0.082 C 
ATOM     39  C   LIG    1        6.938   2.136  -6.458  0.00  0.00    -0.016 C 
ENDBRANCH  31  32
ENDBRANCH  30  31
ENDBRANCH  29  30
ENDBRANCH   9  29
TORSDOF 12
