REMARK  Name = ZINC13817924
REMARK                            x       y       z     vdW  Elec       q    Type
REMARK                         _______ _______ _______ _____ _____    ______ ____
ROOT
ATOM      1  C   LIG    1       -0.018   1.503   0.010  0.00  0.00    +0.065 C 
ATOM      2  C   LIG    1        0.002  -0.004   0.002  0.00  0.00    +0.039 A 
ATOM      3  C   LIG    1        0.005  -0.676  -1.219  0.00  0.00    +0.023 A 
ATOM      4  C   LIG    1        0.024  -2.041  -1.245  0.00  0.00    +0.012 A 
ATOM      5  C   LIG    1        0.040  -2.729  -0.016  0.00  0.00    +0.002 A 
ATOM      6  C   LIG    1        0.060  -4.133   0.034  0.00  0.00    +0.010 A 
ATOM      7  C   LIG    1        0.076  -4.769   1.237  0.00  0.00    +0.003 A 
ATOM      8  C   LIG    1        0.071  -4.049   2.429  0.00  0.00    +0.026 A 
ATOM      9  C   LIG    1        0.051  -2.672   2.421  0.00  0.00    +0.074 A 
ATOM     10  C   LIG    1        0.035  -1.983   1.187  0.00  0.00    +0.094 A 
ATOM     11  N   LIG    1        0.022  -0.648   1.143  0.00  0.00    -0.250 NA
ENDROOT
BRANCH   9  12
ATOM     12  N   LIG    1        0.045  -1.962   3.621  0.00  0.00    -0.214 N 
ATOM     13  H   LIG    1        0.031  -0.978   3.611  0.00  0.00    +0.174 HD
BRANCH  12  14
ATOM     14  S   LIG    1        0.063  -2.776   5.064  0.00  0.00    +0.079 S 
ATOM     15  O   LIG    1        1.319  -3.437   5.142  0.00  0.00    -0.149 OA
ATOM     16  O   LIG    1       -1.172  -3.473   5.152  0.00  0.00    -0.149 OA
BRANCH  14  17
ATOM     17  C   LIG    1        0.051  -1.566   6.344  0.00  0.00    +0.147 A 
ATOM     18  C   LIG    1       -1.008  -0.999   6.973  0.00  0.00    +0.038 A 
ATOM     19  C   LIG    1       -0.778  -0.060   7.960  0.00  0.00    +0.025 A 
ATOM     20  C   LIG    1        0.501   0.267   8.271  0.00  0.00    +0.057 A 
ATOM     21 BR   LIG    1        1.137   1.499   9.557  0.00  0.00    -0.043 Br
ATOM     22  S   LIG    1        1.429  -0.774   7.156  0.00  0.00    -0.061 S 
ENDBRANCH  14  17
ENDBRANCH  12  14
ENDBRANCH   9  12
TORSDOF 3
