REMARK  Name = ZINC34016620
REMARK                            x       y       z     vdW  Elec       q    Type
REMARK                         _______ _______ _______ _____ _____    ______ ____
ROOT
ATOM      1  CA  LIG    1       -3.815  -0.651  -2.731  0.00  0.00    +0.145 C 
ENDROOT
BRANCH   1   2
ATOM      2  C   LIG    1       -5.306  -0.826  -2.604  0.00  0.00    +0.231 C 
ATOM      3  N   LIG    1       -6.114  -0.492  -3.630  0.00  0.00    -0.301 N 
ATOM      4  H   LIG    1       -5.735  -0.139  -4.450  0.00  0.00    +0.150 HD
ATOM      5  O   LIG    1       -5.780  -1.268  -1.579  0.00  0.00    -0.274 OA
BRANCH   3   6
ATOM      6  CA  LIG    1       -7.564  -0.663  -3.507  0.00  0.00    +0.182 C 
BRANCH   6   7
ATOM      7  C   LIG    1       -7.935  -2.079  -3.864  0.00  0.00    +0.325 C 
ATOM      8  O   LIG    1       -8.905  -2.604  -3.346  0.00  0.00    -0.249 OA
BRANCH   7   9
ATOM      9  OXT LIG    1       -7.265  -2.700  -4.672  0.00  0.00    -0.479 OA
ATOM     10  HXT LIG    1       -6.519  -2.296  -5.071  0.00  0.00    +0.295 HD
ENDBRANCH   7   9
ENDBRANCH   6   7
BRANCH   6  11
ATOM     11  CB  LIG    1       -8.274   0.305  -4.455  0.00  0.00    +0.044 C 
BRANCH  11  12
ATOM     12  CG  LIG    1       -7.997   1.745  -4.016  0.00  0.00    +0.071 C 
BRANCH  12  13
ATOM     13  SD  LIG    1       -8.838   2.893  -5.140  0.00  0.00    -0.164 S 
ATOM     14  CE  LIG    1       -8.415   4.533  -4.490  0.00  0.00    +0.084 C 
ENDBRANCH  12  13
ENDBRANCH  11  12
ENDBRANCH   6  11
ENDBRANCH   3   6
ENDBRANCH   1   2
BRANCH   1  15
ATOM     15  N   LIG    1       -3.163  -1.083  -1.488  0.00  0.00    -0.307 NA
ATOM     16  H   LIG    1       -2.726  -1.985  -1.603  0.00  0.00    +0.123 HD
BRANCH  15  17
ATOM     17  C   ACE A  0       -2.191  -0.082  -1.027  0.00  0.00    +0.066 C 
BRANCH  17  18
ATOM     18  C   LIG    1       -1.651  -0.490   0.345  0.00  0.00    -0.055 C 
BRANCH  18  20
ATOM     19  C   LIG    1        0.578   0.460  -0.266  0.00  0.00    +0.005 C 
ATOM     20  C   LIG    1       -0.549   0.483   0.769  0.00  0.00    -0.030 C 
ATOM     21  C   LIG    1       -1.126   1.897   0.863  0.00  0.00    +0.005 C 
ENDBRANCH  18  20
BRANCH  18  22
ATOM     22  N   LIG    1       -1.100  -1.850   0.270  0.00  0.00    +0.381 N 
ATOM     23  H   LIG    1       -0.301  -1.856  -0.345  0.00  0.00    -0.086 HD
ATOM     24  H   LIG    1       -1.804  -2.478  -0.087  0.00  0.00    -0.086 HD
BRANCH  22  25
ATOM     25  C   LIG    1       -0.689  -2.287   1.611  0.00  0.00    -0.098 C 
BRANCH  25  26
ATOM     26  C   LIG    1       -0.223  -3.743   1.553  0.00  0.00    -0.083 C 
BRANCH  26  27
ATOM     27  N   LIG    1        0.835  -3.878   0.543  0.00  0.00    +0.379 N 
ATOM     28  H   LIG    1        1.143  -4.838   0.504  0.00  0.00    -0.090 HD
ATOM     29  H   LIG    1        1.614  -3.285   0.790  0.00  0.00    -0.090 HD
ATOM     30  H   LIG    1        0.476  -3.603  -0.359  0.00  0.00    -0.090 HD
ENDBRANCH  26  27
BRANCH  26  31
ATOM     31  C   LIG    1        0.321  -4.159   2.921  0.00  0.00    +0.047 C 
BRANCH  31  32
ATOM     32  S   LIG    1        0.874  -5.885   2.851  0.00  0.00    -0.180 S 
ATOM     33  H   LIG    1        1.325  -6.133   4.094  0.00  0.00    +0.102 HD
ENDBRANCH  31  32
ENDBRANCH  26  31
ENDBRANCH  25  26
ENDBRANCH  22  25
ENDBRANCH  18  22
ENDBRANCH  17  18
ENDBRANCH  15  17
ENDBRANCH   1  15
BRANCH   1  34
ATOM     34  CB  LIG    1       -3.299  -1.496  -3.897  0.00  0.00    +0.063 C 
BRANCH  34  35
ATOM     35  CG  LIG    1       -1.822  -1.259  -4.075  0.00  0.00    -0.045 A 
ATOM     36  CD2 LIG    1       -1.379  -0.167  -4.797  0.00  0.00    +0.004 A 
ATOM     37  CE2 LIG    1       -0.023   0.050  -4.960  0.00  0.00    +0.000 A 
ATOM     38  CZ  LIG    1        0.889  -0.825  -4.400  0.00  0.00    +0.000 A 
ATOM     39  CE1 LIG    1        0.446  -1.916  -3.677  0.00  0.00    +0.000 A 
ATOM     40  CD1 LIG    1       -0.909  -2.131  -3.511  0.00  0.00    +0.004 A 
ENDBRANCH  34  35
ENDBRANCH   1  34
TORSDOF 19
