REMARK  Name = ZINC18142562
REMARK                            x       y       z     vdW  Elec       q    Type
REMARK                         _______ _______ _______ _____ _____    ______ ____
ROOT
ATOM      1  N   LIG    1        2.517  -2.482   4.196  0.00  0.00    -0.242 NA
ATOM      2  C   LIG    1        1.911  -3.446   4.847  0.00  0.00    +0.135 C 
ATOM      3  C   LIG    1        0.606  -4.067   4.530  0.00  0.00    +0.027 A 
ATOM      4  C   LIG    1       -0.331  -3.852   3.524  0.00  0.00    +0.012 A 
ATOM      5  C   LIG    1       -1.484  -4.609   3.490  0.00  0.00    +0.001 A 
ATOM      6  C   LIG    1       -1.708  -5.577   4.455  0.00  0.00    +0.002 A 
ATOM      7  C   LIG    1       -0.784  -5.798   5.457  0.00  0.00    +0.024 A 
ATOM      8  C   LIG    1        0.384  -5.046   5.508  0.00  0.00    +0.043 A 
ATOM      9  N   LIG    1        1.456  -5.066   6.394  0.00  0.00    -0.280 N 
ATOM     10  H   LIG    1        1.525  -5.663   7.156  0.00  0.00    +0.155 HD
ATOM     11  C   LIG    1        2.387  -4.156   6.059  0.00  0.00    +0.267 C 
ATOM     12  O   LIG    1        3.432  -3.950   6.646  0.00  0.00    -0.268 OA
ENDROOT
BRANCH   1  16
ATOM     13  C   LIG    1        0.577  -0.535   1.121  0.00  0.00    +0.120 A 
ATOM     14  C   LIG    1        1.752  -1.233   0.865  0.00  0.00    +0.048 A 
ATOM     15  C   LIG    1        2.402  -1.882   1.883  0.00  0.00    +0.031 A 
ATOM     16  C   LIG    1        1.879  -1.841   3.184  0.00  0.00    +0.065 A 
ATOM     17  C   LIG    1        0.694  -1.135   3.435  0.00  0.00    +0.031 A 
ATOM     18  C   LIG    1        0.056  -0.486   2.409  0.00  0.00    +0.048 A 
BRANCH  13  20
ATOM     19  C   LIG    1        0.527   0.016  -1.190  0.00  0.00    +0.277 C 
ATOM     20  O   LIG    1       -0.062   0.106   0.109  0.00  0.00    -0.495 OA
ENDBRANCH  13  20
ENDBRANCH   1  16
TORSDOF 2
