REMARK  Name = ZINC29056306
REMARK                            x       y       z     vdW  Elec       q    Type
REMARK                         _______ _______ _______ _____ _____    ______ ____
ROOT
ATOM      1  C   LIG    1        2.043   4.519  -6.606  0.00  0.00    +0.142 A 
ATOM      2  C   LIG    1        0.864   5.033  -7.163  0.00  0.00    +0.060 A 
ATOM      3  C   LIG    1       -0.445   4.619  -6.659  0.00  0.00    +0.022 A 
ATOM      4  C   LIG    1       -1.554   5.151  -7.237  0.00  0.00    +0.093 A 
ATOM      5  C   LIG    1       -1.419   6.075  -8.293  0.00  0.00    +0.337 A 
ATOM      6  O   LIG    1       -0.216   6.452  -8.752  0.00  0.00    -0.422 OA
ATOM      7  O   LIG    1       -2.421   6.544  -8.801  0.00  0.00    -0.245 OA
ATOM      8  C   LIG    1        0.928   5.962  -8.223  0.00  0.00    +0.146 A 
ATOM      9  C   LIG    1        2.155   6.368  -8.715  0.00  0.00    +0.094 A 
ATOM     10  C   LIG    1        3.330   5.864  -8.169  0.00  0.00    +0.142 A 
ATOM     11  O   LIG    1        4.633   6.075  -8.442  0.00  0.00    -0.463 OA
ATOM     12  C   LIG    1        5.420   5.345  -7.630  0.00  0.00    +0.196 A 
ATOM     13  C   LIG    1        4.670   4.622  -6.788  0.00  0.00    +0.053 A 
ATOM     14  C   LIG    1        3.272   4.941  -7.108  0.00  0.00    +0.063 A 
ENDROOT
BRANCH   1  15
ATOM     15  O   LIG    1        1.988   3.625  -5.587  0.00  0.00    -0.487 OA
BRANCH  15  16
ATOM     16  C   LIG    1        1.941   2.241  -5.939  0.00  0.00    +0.256 C 
BRANCH  16  19
ATOM     17  C   LIG    1        1.040   0.407  -4.604  0.00  0.00    -0.071 C 
ATOM     18  C   LIG    1        0.127   0.093  -5.761  0.00  0.00    +0.039 C 
ATOM     19  C   LIG    1        1.883   1.406  -4.687  0.00  0.00    +0.012 C 
BRANCH  17  20
ATOM     20  C   LIG    1        0.982  -0.429  -3.351  0.00  0.00    +0.065 C 
BRANCH  20  21
ATOM     21  C   LIG    1       -0.122   0.102  -2.434  0.00  0.00    +0.141 C 
BRANCH  21  25
ATOM     22  C   LIG    1       -0.074   1.503   0.012  0.00  0.00    +0.038 C 
ATOM     23  C   LIG    1       -0.019  -0.003   0.003  0.00  0.00    -0.077 C 
ATOM     24  C   LIG    1        0.128  -0.760   1.298  0.00  0.00    +0.038 C 
ATOM     25  C   LIG    1       -0.099  -0.654  -1.131  0.00  0.00    +0.003 C 
ENDBRANCH  21  25
BRANCH  21  26
ATOM     26  O   LIG    1       -1.391  -0.075  -3.065  0.00  0.00    -0.387 OA
ATOM     27  H   LIG    1       -1.596   0.406  -4.033  0.00  0.00    +0.210 HD
ENDBRANCH  21  26
ENDBRANCH  20  21
ENDBRANCH  17  20
ENDBRANCH  16  19
ENDBRANCH  15  16
ENDBRANCH   1  15
TORSDOF 7
