REMARK  Name = ZINC15924305
REMARK                            x       y       z     vdW  Elec       q    Type
REMARK                         _______ _______ _______ _____ _____    ______ ____
ROOT
ATOM      1  C   LIG    1        4.963   1.501  -0.691  0.00  0.00    +0.393 C 
ATOM      2  N   LIG    1        4.921   0.199  -0.679  0.00  0.00    -0.129 NA
ATOM      3  H   LIG    1        5.560  -0.302  -0.147  0.00  0.00    +0.306 HD
ENDROOT
BRANCH   1   4
ATOM      4  N   LIG    1        3.995   2.214  -1.361  0.00  0.00    -0.243 N 
ATOM      5  H   LIG    1        4.071   3.178  -1.440  0.00  0.00    +0.265 HD
BRANCH   4   8
ATOM      6  C   LIG    1        0.576   1.492  -2.502  0.00  0.00    +0.005 A 
ATOM      7  C   LIG    1        1.652   2.151  -1.941  0.00  0.00    +0.042 A 
ATOM      8  C   LIG    1        2.904   1.549  -1.929  0.00  0.00    +0.101 A 
ATOM      9  C   LIG    1        3.069   0.286  -2.482  0.00  0.00    +0.062 A 
ATOM     10  C   LIG    1        1.988  -0.368  -3.042  0.00  0.00    +0.044 A 
ATOM     11 CL   LIG    1        2.193  -1.947  -3.735  0.00  0.00    -0.083 Cl
ATOM     12  C   LIG    1        0.742   0.235  -3.052  0.00  0.00    +0.020 A 
ENDBRANCH   4   8
ENDBRANCH   1   4
BRANCH   1  13
ATOM     13  N   LIG    1        5.977   2.165  -0.032  0.00  0.00    -0.186 N 
ATOM     14  H   LIG    1        6.709   1.664   0.361  0.00  0.00    +0.271 HD
BRANCH  13  15
ATOM     15  C   LIG    1        5.951   3.540   0.067  0.00  0.00    +0.385 C 
ATOM     16  N   LIG    1        7.058   4.202   0.245  0.00  0.00    -0.129 NA
ATOM     17  H   LIG    1        7.909   3.736   0.235  0.00  0.00    +0.306 HD
BRANCH  15  18
ATOM     18  N   LIG    1        4.755   4.213  -0.022  0.00  0.00    -0.289 N 
ATOM     19  H   LIG    1        4.747   5.172  -0.162  0.00  0.00    +0.255 HD
ATOM     20  H   LIG    1        3.919   3.728   0.057  0.00  0.00    +0.255 HD
ENDBRANCH  15  18
ENDBRANCH  13  15
ENDBRANCH   1  13
TORSDOF 5
