REMARK  Name = ZINC13813304
REMARK                            x       y       z     vdW  Elec       q    Type
REMARK                         _______ _______ _______ _____ _____    ______ ____
ROOT
ATOM      1  C   LIG    1        5.385  -1.642   1.400  0.00  0.00    +0.160 C 
ENDROOT
BRANCH   1   2
ATOM      2  O   LIG    1        4.141  -0.946   1.304  0.00  0.00    -0.375 OA
BRANCH   2   3
ATOM      3  C   LIG    1        3.711  -0.707  -0.038  0.00  0.00    +0.195 C 
BRANCH   3   7
ATOM      4  C   LIG    1       -0.017   1.378   0.010  0.00  0.00    +0.000 A 
ATOM      5  C   LIG    1        1.171   2.086   0.002  0.00  0.00    +0.000 A 
ATOM      6  C   LIG    1        2.377   1.411  -0.013  0.00  0.00    +0.006 A 
ATOM      7  C   LIG    1        2.396   0.029  -0.020  0.00  0.00    -0.022 A 
ATOM      8  C   LIG    1        1.208  -0.679  -0.012  0.00  0.00    +0.006 A 
ATOM      9  C   LIG    1        0.002  -0.004   0.002  0.00  0.00    +0.000 A 
ENDBRANCH   3   7
ENDBRANCH   2   3
ENDBRANCH   1   2
BRANCH   1  10
ATOM     10  C   LIG    1        5.745  -1.842   2.874  0.00  0.00    +0.034 C 
BRANCH  10  11
ATOM     11  C   LIG    1        7.077  -2.587   2.977  0.00  0.00    +0.057 C 
BRANCH  11  12
ATOM     12  C   LIG    1        7.432  -2.784   4.429  0.00  0.00    +0.035 A 
ATOM     13  C   LIG    1        8.062  -1.903   5.228  0.00  0.00    +0.133 A 
ATOM     14  N   LIG    1        8.187  -2.459   6.442  0.00  0.00    -0.244 NA
ATOM     15  C   LIG    1        7.657  -3.651   6.426  0.00  0.00    +0.196 A 
ATOM     16  N   LIG    1        7.170  -3.892   5.189  0.00  0.00    -0.348 N 
ATOM     17  H   LIG    1        6.720  -4.699   4.895  0.00  0.00    +0.166 HD
ENDBRANCH  11  12
ENDBRANCH  10  11
ENDBRANCH   1  10
TORSDOF 6
