REMARK  Name = ZINC18456289
REMARK                            x       y       z     vdW  Elec       q    Type
REMARK                         _______ _______ _______ _____ _____    ______ ____
ROOT
ATOM      1  C   UNK A  0       -0.017   1.394   0.010  0.00  0.00    +0.015 A 
ATOM      2  C   UNK A  0        1.166   2.096   0.002  0.00  0.00    +0.023 A 
ATOM      3  C   UNK A  0        2.381   1.417  -0.013  0.00  0.00    +0.027 A 
ATOM      4  C   UNK A  0        2.403   0.025  -0.021  0.00  0.00    +0.023 A 
ATOM      5  C   UNK A  0        1.224  -0.684  -0.014  0.00  0.00    +0.015 A 
ATOM      6  C   UNK A  0        0.002  -0.004   0.002  0.00  0.00    +0.037 A 
ENDROOT
BRANCH   6   7
ATOM      7  C   UNK A  0       -1.264  -0.760   0.011  0.00  0.00    +0.245 C 
ATOM      8  N   GLU A  1       -1.244  -2.108   0.003  0.00  0.00    -0.298 N 
ATOM      9  H   GLU A  1       -0.397  -2.581  -0.008  0.00  0.00    +0.150 HD
ATOM     10  O   UNK A  0       -2.326  -0.168   0.024  0.00  0.00    -0.270 OA
BRANCH   8  11
ATOM     11  CA  GLU A  1       -2.502  -2.859   0.012  0.00  0.00    +0.182 C 
BRANCH  11  12
ATOM     12  C   GLU A  1       -2.983  -3.018   1.431  0.00  0.00    +0.325 C 
ATOM     13  O   GLU A  1       -2.335  -2.547   2.350  0.00  0.00    -0.249 OA
BRANCH  12  14
ATOM     14  OXT GLU A  1       -4.020  -3.617   1.660  0.00  0.00    -0.479 OA
ATOM     15  HXT GLU A  1       -4.518  -3.979   0.953  0.00  0.00    +0.295 HD
ENDBRANCH  12  14
ENDBRANCH  11  12
BRANCH  11  16
ATOM     16  CB  GLU A  1       -2.276  -4.240  -0.608  0.00  0.00    +0.045 C 
BRANCH  16  17
ATOM     17  CG  GLU A  1       -1.908  -4.082  -2.085  0.00  0.00    +0.123 C 
BRANCH  17  18
ATOM     18  CD  GLU A  1       -1.685  -5.442  -2.695  0.00  0.00    +0.305 C 
ATOM     19  OE1 GLU A  1       -1.809  -6.444  -2.011  0.00  0.00    -0.251 OA
BRANCH  18  20
ATOM     20  OE2 GLU A  1       -1.381  -5.540  -3.871  0.00  0.00    -0.481 OA
ATOM     21  HE2 GLU A  1       -1.287  -4.770  -4.396  0.00  0.00    +0.295 HD
ENDBRANCH  18  20
ENDBRANCH  17  18
ENDBRANCH  16  17
ENDBRANCH  11  16
ENDBRANCH   8  11
ENDBRANCH   6   7
BRANCH   3  22
ATOM     22  N   UNK A  0        3.575   2.130  -0.021  0.00  0.00    -0.338 N 
ATOM     23  H   UNK A  0        3.561   3.100  -0.016  0.00  0.00    +0.146 HD
BRANCH  22  24
ATOM     24  C   UNK A  0        4.854   1.416  -0.037  0.00  0.00    +0.158 C 
BRANCH  24  25
ATOM     25  C   UNK A  0        5.985   2.412  -0.043  0.00  0.00    +0.077 A 
ATOM     26  C   UNK A  0        6.588   2.779   1.156  0.00  0.00    +0.138 A 
ATOM     27  N   UNK A  0        7.578   3.649   1.173  0.00  0.00    -0.232 NA
ATOM     28  C   UNK A  0        8.007   4.183   0.029  0.00  0.00    +0.187 A 
ATOM     29  N   UNK A  0        9.015   5.075   0.003  0.00  0.00    -0.195 NA
ATOM     30  C   UNK A  0        9.440   5.603  -1.118  0.00  0.00    +0.195 A 
ATOM     31  N   UNK A  0        8.905   5.298  -2.335  0.00  0.00    -0.293 N 
ATOM     32  H   UNK A  0        9.258   5.718  -3.135  0.00  0.00    +0.172 HD
ATOM     33  C   UNK A  0        7.886   4.413  -2.433  0.00  0.00    +0.280 A 
ATOM     34  O   UNK A  0        7.397   4.130  -3.511  0.00  0.00    -0.265 OA
ATOM     35  C   UNK A  0        7.390   3.805  -1.186  0.00  0.00    +0.172 A 
ATOM     36  N   UNK A  0        6.399   2.925  -1.185  0.00  0.00    -0.240 NA
BRANCH  30  37
ATOM     37  N   UNK A  0       10.472   6.504  -1.065  0.00  0.00    -0.329 N 
ATOM     38  H   UNK A  0       10.869   6.737  -0.212  0.00  0.00    +0.145 HD
ATOM     39  H   UNK A  0       10.804   6.908  -1.882  0.00  0.00    +0.145 HD
ENDBRANCH  30  37
ENDBRANCH  24  25
ENDBRANCH  22  24
ENDBRANCH   3  22
TORSDOF 12
