REMARK  Name = ZINC28235260
REMARK                            x       y       z     vdW  Elec       q    Type
REMARK                         _______ _______ _______ _____ _____    ______ ____
ROOT
ATOM      1  C   LIG    1        7.753   2.646  -0.862  0.00  0.00    +0.138 C 
ATOM      2  N   LIG    1        6.295   2.726  -0.742  0.00  0.00    -0.272 N 
ATOM      3  C   LIG    1        5.676   1.837   0.123  0.00  0.00    +0.045 A 
ATOM      4  C   LIG    1        6.307   1.584   1.343  0.00  0.00    +0.024 A 
ATOM      5  C   LIG    1        5.753   0.711   2.253  0.00  0.00    +0.002 A 
ATOM      6  C   LIG    1        4.558   0.072   1.964  0.00  0.00    +0.001 A 
ATOM      7  C   LIG    1        3.922   0.309   0.768  0.00  0.00    +0.012 A 
ATOM      8  C   LIG    1        4.473   1.197  -0.169  0.00  0.00    +0.022 A 
ATOM      9  C   LIG    1        3.736   1.407  -1.425  0.00  0.00    +0.078 C 
ATOM     10  N   LIG    1        3.588   2.544  -2.012  0.00  0.00    -0.270 NA
ATOM     11  C   LIG    1        4.169   3.772  -1.469  0.00  0.00    +0.196 C 
ATOM     12  C   LIG    1        5.668   3.646  -1.472  0.00  0.00    +0.244 C 
ATOM     13  O   LIG    1        6.323   4.403  -2.157  0.00  0.00    -0.273 OA
ENDROOT
BRANCH   9  14
ATOM     14  C   LIG    1        3.116   0.223  -2.062  0.00  0.00    +0.036 A 
ATOM     15  C   LIG    1        3.350  -1.053  -1.547  0.00  0.00    +0.013 A 
ATOM     16  C   LIG    1        2.770  -2.152  -2.144  0.00  0.00    +0.001 A 
ATOM     17  C   LIG    1        1.956  -1.994  -3.252  0.00  0.00    +0.003 A 
ATOM     18  C   LIG    1        1.719  -0.734  -3.769  0.00  0.00    +0.039 A 
ATOM     19  C   LIG    1        2.290   0.378  -3.177  0.00  0.00    +0.133 A 
ATOM     20  F   LIG    1        2.054   1.609  -3.680  0.00  0.00    -0.205 F 
ENDBRANCH   9  14
BRANCH  11  21
ATOM     21  C   LIG    1        3.675   3.982  -0.037  0.00  0.00    +0.073 C 
BRANCH  21  22
ATOM     22  C   LIG    1        2.188   4.225  -0.049  0.00  0.00    -0.020 A 
ATOM     23  C   LIG    1        1.573   5.418  -0.058  0.00  0.00    +0.087 A 
ATOM     24  N   LIG    1        0.216   5.244  -0.068  0.00  0.00    -0.360 N 
ATOM     25  C   LIG    1       -0.083   3.900  -0.065  0.00  0.00    +0.047 A 
ATOM     26  C   LIG    1       -1.276   3.184  -0.072  0.00  0.00    +0.026 A 
ATOM     27  C   LIG    1       -1.248   1.807  -0.072  0.00  0.00    +0.002 A 
ATOM     28  C   LIG    1       -0.040   1.124  -0.055  0.00  0.00    +0.001 A 
ATOM     29  C   LIG    1        1.144   1.807  -0.048  0.00  0.00    +0.010 A 
ATOM     30  H   LIG    1       -0.451   6.119  -0.076  0.00  0.00    +0.165 HD
ATOM     31  C   LIG    1        1.139   3.203  -0.053  0.00  0.00    +0.003 A 
ENDBRANCH  21  22
ENDBRANCH  11  21
TORSDOF 3
