REMARK  Name = ZINC23379295
REMARK                            x       y       z     vdW  Elec       q    Type
REMARK                         _______ _______ _______ _____ _____    ______ ____
ROOT
ATOM      1  N   LIG    1       -7.021   2.491   2.727  0.00  0.00    -0.300 NA
ATOM      2  C   LIG    1       -7.458   1.779   1.519  0.00  0.00    +0.103 C 
ATOM      3  C   LIG    1       -6.455   0.667   1.194  0.00  0.00    +0.123 C 
ATOM      4  N   LIG    1       -5.111   1.259   1.115  0.00  0.00    -0.299 N 
ATOM      5  C   LIG    1       -4.318   1.035   0.049  0.00  0.00    +0.222 C 
ATOM      6  O   LIG    1       -4.742   0.414  -0.903  0.00  0.00    -0.275 OA
ATOM      7  C   LIG    1       -4.652   2.096   2.234  0.00  0.00    +0.123 C 
ATOM      8  C   LIG    1       -5.729   3.157   2.515  0.00  0.00    +0.103 C 
ENDROOT
BRANCH   5   9
ATOM      9  C   LIG    1       -2.904   1.556   0.038  0.00  0.00    +0.048 C 
ATOM     10  C   LIG    1       -2.168   1.008  -1.186  0.00  0.00    +0.019 C 
ATOM     11  C   LIG    1       -0.732   1.537  -1.196  0.00  0.00    -0.009 C 
ATOM     12  C   LIG    1       -0.013   1.086   0.076  0.00  0.00    +0.007 C 
ATOM     13  C   LIG    1       -0.749   1.634   1.300  0.00  0.00    -0.009 C 
ATOM     14  C   LIG    1       -0.769   3.162   1.241  0.00  0.00    +0.007 C 
ATOM     15  C   LIG    1       -1.489   3.614  -0.032  0.00  0.00    -0.009 C 
ATOM     16  C   LIG    1       -0.752   3.066  -1.256  0.00  0.00    +0.007 C 
ATOM     17  C   LIG    1       -2.924   3.085  -0.021  0.00  0.00    +0.019 C 
ATOM     18  C   LIG    1       -2.185   1.105   1.311  0.00  0.00    +0.019 C 
ENDBRANCH   5   9
BRANCH   1  20
ATOM     19  C   LIG    1       -7.669   3.989   4.554  0.00  0.00    +0.020 C 
ATOM     20  C   LIG    1       -8.041   3.451   3.170  0.00  0.00    +0.081 C 
ENDBRANCH   1  20
TORSDOF 2
