REMARK  Name = ZINC19632718
REMARK                            x       y       z     vdW  Elec       q    Type
REMARK                         _______ _______ _______ _____ _____    ______ ____
ROOT
ATOM      1  C   LIG    1        0.217   1.496   0.124  0.00  0.00    +0.061 C 
ATOM      2  C   LIG    1        0.117  -0.006   0.059  0.00  0.00    +0.016 C 
ATOM      3  C   LIG    1       -1.088  -0.596   0.146  0.00  0.00    +0.065 C 
ATOM      4  C   LIG    1       -1.235  -2.090   0.095  0.00  0.00    +0.096 C 
ATOM      5  C   LIG    1        0.015  -2.729  -0.441  0.00  0.00    +0.065 C 
ATOM      6  C   LIG    1        1.176  -2.054  -0.504  0.00  0.00    +0.016 C 
ATOM      7  C   LIG    1        2.406  -2.739  -1.040  0.00  0.00    +0.061 C 
ATOM      8  N   LIG    1        1.253  -0.753  -0.092  0.00  0.00    -0.321 N 
ATOM      9  H   LIG    1        2.119  -0.359   0.097  0.00  0.00    +0.152 HD
ENDROOT
BRANCH   4  10
ATOM     10  C   LIG    1       -1.500  -2.610   1.485  0.00  0.00    -0.033 A 
ATOM     11  C   LIG    1       -0.580  -2.390   2.493  0.00  0.00    +0.005 A 
ATOM     12  C   LIG    1       -0.824  -2.866   3.767  0.00  0.00    +0.003 A 
ATOM     13  C   LIG    1       -1.988  -3.563   4.034  0.00  0.00    +0.032 A 
ATOM     14  C   LIG    1       -2.908  -3.782   3.026  0.00  0.00    +0.122 A 
ATOM     15  C   LIG    1       -2.667  -3.301   1.752  0.00  0.00    +0.037 A 
BRANCH  14  16
ATOM     16  N   LIG    1       -4.154  -4.528   3.312  0.00  0.00    +0.006 N 
ATOM     17  O   LIG    1       -4.367  -4.946   4.426  0.00  0.00    -0.130 OA
BRANCH  16  18
ATOM     18  O   LIG    1       -4.960  -4.720   2.430  0.00  0.00    -0.396 OA
ATOM     19  H   LIG    1       -4.795  -4.396   1.567  0.00  0.00    +0.329 HD
ENDBRANCH  16  18
ENDBRANCH  14  16
ENDBRANCH   4  10
BRANCH   3  20
ATOM     20  C   LIG    1       -2.243   0.208   0.288  0.00  0.00    +0.338 C 
ATOM     21  O   LIG    1       -2.139   1.420   0.331  0.00  0.00    -0.245 OA
BRANCH  20  22
ATOM     22  O   LIG    1       -3.460  -0.368   0.376  0.00  0.00    -0.459 OA
BRANCH  22  23
ATOM     23  C   LIG    1       -4.582   0.504   0.518  0.00  0.00    +0.260 C 
BRANCH  23  24
ATOM     24  C   LIG    1       -5.866  -0.325   0.601  0.00  0.00    +0.200 C 
BRANCH  24  25
ATOM     25  O   LIG    1       -5.847  -1.113   1.793  0.00  0.00    -0.380 OA
ATOM     26  C   LIG    1       -7.006  -1.930   1.968  0.00  0.00    +0.194 C 
ENDBRANCH  24  25
ENDBRANCH  23  24
ENDBRANCH  22  23
ENDBRANCH  20  22
ENDBRANCH   3  20
BRANCH   5  27
ATOM     27  C   LIG    1       -0.031  -4.070  -0.888  0.00  0.00    +0.338 C 
ATOM     28  O   LIG    1       -0.460  -4.327  -1.998  0.00  0.00    -0.245 OA
BRANCH  27  29
ATOM     29  O   LIG    1        0.400  -5.064  -0.085  0.00  0.00    -0.459 OA
BRANCH  29  30
ATOM     30  C   LIG    1        0.325  -6.395  -0.601  0.00  0.00    +0.171 C 
ATOM     31  C   LIG    1        0.115  -7.378   0.552  0.00  0.00    +0.052 C 
ATOM     32  C   LIG    1        1.627  -6.733  -1.330  0.00  0.00    +0.052 C 
ENDBRANCH  29  30
ENDBRANCH  27  29
ENDBRANCH   5  27
TORSDOF 11
