REMARK  Name = ZINC17836932
REMARK                            x       y       z     vdW  Elec       q    Type
REMARK                         _______ _______ _______ _____ _____    ______ ____
ROOT
ATOM      1  C   LIG    1       -0.017   1.397   0.010  0.00  0.00    +0.028 A 
ATOM      2  C   LIG    1        1.270   1.820  -0.000  0.00  0.00    +0.084 A 
ATOM      3  N   LIG    1        2.102   0.741  -0.004  0.00  0.00    -0.357 N 
ATOM      4  C   LIG    1        1.352  -0.388   0.029  0.00  0.00    +0.109 A 
ATOM      5  C   LIG    1        1.734  -1.804   0.127  0.00  0.00    +0.261 C 
ATOM      6  O   LIG    1        2.628  -2.168   0.870  0.00  0.00    -0.269 OA
ATOM      7  N   LIG    1        1.052  -2.692  -0.642  0.00  0.00    -0.310 N 
ATOM      8  H   LIG    1        1.110  -3.640  -0.446  0.00  0.00    +0.149 HD
ATOM      9  C   LIG    1        0.234  -2.236  -1.756  0.00  0.00    +0.109 C 
ATOM     10  C   LIG    1       -1.178  -1.816  -1.338  0.00  0.00    +0.058 C 
ATOM     11  C   LIG    1       -1.095  -0.975  -0.079  0.00  0.00    +0.007 C 
ATOM     12  C   LIG    1       -1.996  -1.113   0.926  0.00  0.00    +0.177 C 
ATOM     13  C   LIG    1       -3.141  -2.044   0.990  0.00  0.00    +0.370 C 
ATOM     14  N   LIG    1       -3.741  -1.821   2.167  0.00  0.00    -0.001 NA
ATOM     15  C   LIG    1       -3.113  -0.875   2.832  0.00  0.00    +0.365 C 
ATOM     16  O   LIG    1       -3.474  -2.854   0.140  0.00  0.00    -0.245 OA
ATOM     17  N   LIG    1       -2.041  -0.410   2.134  0.00  0.00    -0.202 N 
ATOM     18  H   LIG    1       -1.425   0.283   2.420  0.00  0.00    +0.251 HD
ATOM     19  H   LIG    1        3.071   0.775  -0.026  0.00  0.00    +0.165 HD
ATOM     20  C   LIG    1        0.002  -0.004   0.002  0.00  0.00    +0.011 A 
ENDROOT
BRANCH  15  21
ATOM     21  N   LIG    1       -3.486  -0.422   4.068  0.00  0.00    -0.253 N 
ATOM     22  H   LIG    1       -2.976   0.280   4.501  0.00  0.00    +0.241 HD
ATOM     23  H   LIG    1       -4.260  -0.803   4.511  0.00  0.00    +0.241 HD
ENDBRANCH  15  21
TORSDOF 1
