REMARK  Name = ZINC20149036
REMARK                            x       y       z     vdW  Elec       q    Type
REMARK                         _______ _______ _______ _____ _____    ______ ____
ROOT
ATOM      1  C   LIG    1        2.365  -4.574  -0.045  0.00  0.00    +0.109 A 
ATOM      2  C   LIG    1        2.235  -5.254   1.153  0.00  0.00    +0.031 A 
ATOM      3  C   LIG    1        1.962  -6.606   1.156  0.00  0.00    +0.029 A 
ATOM      4  C   LIG    1        1.816  -7.288  -0.054  0.00  0.00    +0.064 A 
ATOM      5  C   LIG    1        1.949  -6.595  -1.260  0.00  0.00    +0.029 A 
ATOM      6  C   LIG    1        2.218  -5.242  -1.248  0.00  0.00    +0.031 A 
ENDROOT
BRANCH   1   7
ATOM      7  S   LIG    1        2.714  -2.847  -0.039  0.00  0.00    +0.073 S 
ATOM      8  O   LIG    1        3.346  -2.564   1.202  0.00  0.00    -0.150 OA
ATOM      9  O   LIG    1        3.323  -2.551  -1.289  0.00  0.00    -0.150 OA
BRANCH   7  10
ATOM     10  N   LIG    1        1.260  -2.054  -0.021  0.00  0.00    -0.199 N 
ATOM     11  H   LIG    1        0.420  -2.566  -0.016  0.00  0.00    +0.175 HD
BRANCH  10  16
ATOM     12  C   LIG    1       -0.017   1.379   0.010  0.00  0.00    +0.005 A 
ATOM     13  C   LIG    1        1.195   2.058   0.002  0.00  0.00    +0.020 A 
ATOM     14  C   LIG    1        2.373   1.339  -0.013  0.00  0.00    +0.113 A 
ATOM     15  N   LIG    1        2.361   0.020  -0.020  0.00  0.00    -0.239 NA
ATOM     16  C   LIG    1        1.227  -0.664  -0.013  0.00  0.00    +0.138 A 
ATOM     17  C   LIG    1        0.002  -0.004   0.002  0.00  0.00    +0.045 A 
ENDBRANCH  10  16
ENDBRANCH   7  10
ENDBRANCH   1   7
BRANCH   4  18
ATOM     18  N   LIG    1        1.546  -8.629  -0.059  0.00  0.00    -0.255 NA
ATOM     19  C   LIG    1        0.626  -9.109  -0.858  0.00  0.00    +0.125 C 
BRANCH  19  20
ATOM     20  C   LIG    1        0.345 -10.498  -0.863  0.00  0.00    +0.063 A 
ATOM     21  C   LIG    1       -0.649 -11.196  -1.701  0.00  0.00    +0.028 A 
ATOM     22  C   LIG    1       -0.562 -12.553  -1.353  0.00  0.00    +0.051 A 
ATOM     23  N   LIG    1        0.410 -12.681  -0.377  0.00  0.00    -0.325 N 
ATOM     24  H   LIG    1        0.669 -13.518   0.039  0.00  0.00    +0.169 HD
ATOM     25  C   LIG    1       -1.397 -13.470  -1.991  0.00  0.00    +0.028 A 
ATOM     26  C   LIG    1       -2.288 -13.080  -2.939  0.00  0.00    +0.031 A 
ATOM     27  C   LIG    1       -2.406 -11.722  -3.319  0.00  0.00    +0.079 A 
ATOM     28  N   LIG    1       -3.222 -11.149  -4.228  0.00  0.00    -0.247 NA
ATOM     29  C   LIG    1       -3.209  -9.869  -4.462  0.00  0.00    +0.157 A 
ATOM     30  S   LIG    1       -2.029  -9.268  -3.424  0.00  0.00    -0.075 S 
ATOM     31  C   LIG    1       -1.559 -10.802  -2.667  0.00  0.00    +0.049 A 
ATOM     32  C   LIG    1        0.955 -11.471  -0.086  0.00  0.00    +0.200 A 
BRANCH  32  33
ATOM     33  O   LIG    1        1.934 -11.250   0.820  0.00  0.00    -0.493 OA
ATOM     34  H   LIG    1        2.255 -10.381   0.961  0.00  0.00    +0.294 HD
ENDBRANCH  32  33
ENDBRANCH  19  20
ENDBRANCH   4  18
TORSDOF 6
