REMARK  Name = ZINC13829433
REMARK                            x       y       z     vdW  Elec       q    Type
REMARK                         _______ _______ _______ _____ _____    ______ ____
ROOT
ATOM      1  C   LIG    1       -0.204  -0.694   2.175  0.00  0.00    +0.202 C 
ENDROOT
BRANCH   1   2
ATOM      2  C   LIG    1        0.091  -1.871   3.068  0.00  0.00    +0.007 A 
ATOM      3  C   LIG    1        0.859  -2.917   2.600  0.00  0.00    +0.008 A 
ATOM      4  C   LIG    1        1.132  -4.002   3.416  0.00  0.00    +0.002 A 
ATOM      5  C   LIG    1        0.639  -4.044   4.704  0.00  0.00    +0.028 A 
ATOM      6  C   LIG    1       -0.135  -2.995   5.188  0.00  0.00    +0.066 A 
ATOM      7  N   LIG    1       -0.629  -3.045   6.489  0.00  0.00    -0.316 N 
ATOM      8  H   LIG    1       -0.432  -3.809   7.052  0.00  0.00    +0.169 HD
ATOM      9  C   LIG    1       -1.365  -2.024   6.971  0.00  0.00    +0.314 A 
ATOM     10  O   LIG    1       -1.793  -2.060   8.108  0.00  0.00    -0.262 OA
ATOM     11  C   LIG    1       -1.661  -0.856   6.092  0.00  0.00    +0.314 A 
ATOM     12  O   LIG    1       -2.332   0.069   6.505  0.00  0.00    -0.262 OA
ATOM     13  N   LIG    1       -1.175  -0.837   4.834  0.00  0.00    -0.316 N 
ATOM     14  H   LIG    1       -1.361  -0.082   4.254  0.00  0.00    +0.169 HD
ATOM     15  C   LIG    1       -0.406  -1.899   4.367  0.00  0.00    +0.071 A 
ENDBRANCH   1   2
BRANCH   1  16
ATOM     16  N   LIG    1        0.744  -0.681   1.052  0.00  0.00    -0.293 NA
ATOM     17  H   LIG    1        0.324  -1.069   0.221  0.00  0.00    +0.124 HD
BRANCH  16  19
ATOM     18  C   LIG    1        2.462   0.939   1.698  0.00  0.00    +0.029 C 
ATOM     19  C   LIG    1        1.249   0.675   0.804  0.00  0.00    +0.082 C 
BRANCH  19  20
ATOM     20  C   LIG    1        1.652   0.804  -0.642  0.00  0.00    -0.031 A 
ATOM     21  C   LIG    1        2.296  -0.242  -1.276  0.00  0.00    +0.006 A 
ATOM     22  C   LIG    1        2.666  -0.124  -2.602  0.00  0.00    +0.015 A 
ATOM     23  C   LIG    1        2.392   1.041  -3.296  0.00  0.00    +0.018 A 
ATOM     24 BR   LIG    1        2.898   1.203  -5.111  0.00  0.00    -0.050 Br
ATOM     25  C   LIG    1        1.748   2.088  -2.661  0.00  0.00    +0.015 A 
ATOM     26  C   LIG    1        1.373   1.967  -1.336  0.00  0.00    +0.006 A 
ENDBRANCH  19  20
ENDBRANCH  16  19
ENDBRANCH   1  16
BRANCH   1  27
ATOM     27  P   LIG    1       -1.905  -0.829   1.533  0.00  0.00    +0.349 P 
ATOM     28  O   LIG    1       -2.082  -2.191   0.826  0.00  0.00    -0.257 OA
BRANCH  27  29
ATOM     29  O   LIG    1       -2.178   0.360   0.482  0.00  0.00    -0.323 OA
ATOM     30  H   LIG    1       -3.066   0.351   0.099  0.00  0.00    +0.220 HD
ENDBRANCH  27  29
BRANCH  27  31
ATOM     31  O   LIG    1       -2.907  -0.722   2.704  0.00  0.00    -0.323 OA
ATOM     32  H   LIG    1       -2.743  -1.438   3.337  0.00  0.00    +0.220 HD
ENDBRANCH  27  31
ENDBRANCH   1  27
TORSDOF 7
