REMARK  Name = ZINC22222987
REMARK                            x       y       z     vdW  Elec       q    Type
REMARK                         _______ _______ _______ _____ _____    ______ ____
ROOT
ATOM      1  C   LIG    1        5.288  -1.589  -1.586  0.00  0.00    +0.122 A 
ATOM      2  C   LIG    1        6.041  -2.004  -0.495  0.00  0.00    +0.047 A 
ATOM      3  C   LIG    1        7.234  -2.676  -0.677  0.00  0.00    +0.027 A 
ATOM      4  C   LIG    1        7.702  -2.938  -1.958  0.00  0.00    +0.045 A 
ATOM      5  C   LIG    1        6.944  -2.515  -3.061  0.00  0.00    +0.052 A 
ATOM      6  C   LIG    1        7.685  -2.930  -4.267  0.00  0.00    +0.249 C 
ATOM      7  C   LIG    1        8.912  -3.616  -3.746  0.00  0.00    +0.289 C 
ATOM      8  O   LIG    1        9.796  -4.111  -4.415  0.00  0.00    -0.266 OA
ATOM      9  O   LIG    1        7.370  -2.754  -5.426  0.00  0.00    -0.282 OA
ATOM     10  N   LIG    1        8.856  -3.584  -2.403  0.00  0.00    -0.278 N 
ATOM     11  H   LIG    1        9.576  -3.986  -1.676  0.00  0.00    +0.155 HD
ATOM     12  C   LIG    1        5.737  -1.840  -2.871  0.00  0.00    +0.059 A 
ENDROOT
BRANCH   1  13
ATOM     13  O   LIG    1        4.113  -0.932  -1.392  0.00  0.00    -0.487 OA
BRANCH  13  14
ATOM     14  C   LIG    1        3.711  -0.707  -0.039  0.00  0.00    +0.264 C 
BRANCH  14  18
ATOM     15  C   LIG    1       -0.017   1.378   0.010  0.00  0.00    +0.000 A 
ATOM     16  C   LIG    1        1.171   2.086   0.002  0.00  0.00    +0.000 A 
ATOM     17  C   LIG    1        2.377   1.411  -0.014  0.00  0.00    +0.007 A 
ATOM     18  C   LIG    1        2.396   0.029  -0.022  0.00  0.00    -0.010 A 
ATOM     19  C   LIG    1        1.208  -0.679  -0.014  0.00  0.00    +0.007 A 
ATOM     20  C   LIG    1        0.002  -0.004   0.002  0.00  0.00    +0.000 A 
ENDBRANCH  14  18
ENDBRANCH  13  14
ENDBRANCH   1  13
TORSDOF 3
