REMARK  Name = ZINC29133824
REMARK                            x       y       z     vdW  Elec       q    Type
REMARK                         _______ _______ _______ _____ _____    ______ ____
ROOT
ATOM      1  N   LIG    1       -0.044   5.197   0.046  0.00  0.00    -0.314 N 
ATOM      2  H   LIG    1       -1.008   5.716  -0.057  0.00  0.00    +0.152 HD
ENDROOT
BRANCH   1   3
ATOM      3  C   LIG    1        1.134   5.929   0.135  0.00  0.00    +0.046 A 
ATOM      4  C   LIG    1        1.484   6.546   1.330  0.00  0.00    +0.027 A 
ATOM      5  C   LIG    1        2.653   7.272   1.417  0.00  0.00    +0.040 A 
ATOM      6  C   LIG    1        3.489   7.393   0.316  0.00  0.00    +0.124 A 
ATOM      7  F   LIG    1        4.631   8.108   0.414  0.00  0.00    -0.205 F 
ATOM      8  C   LIG    1        3.159   6.788  -0.879  0.00  0.00    +0.055 A 
ATOM      9  C   LIG    1        1.980   6.043  -0.980  0.00  0.00    +0.083 A 
BRANCH   9  10
ATOM     10  C   LIG    1        1.623   5.389  -2.250  0.00  0.00    +0.339 C 
ATOM     11  O   LIG    1        0.544   4.843  -2.371  0.00  0.00    -0.245 OA
BRANCH  10  12
ATOM     12  O   LIG    1        2.494   5.395  -3.279  0.00  0.00    -0.477 OA
ATOM     13  H   LIG    1        3.326   5.815  -3.186  0.00  0.00    +0.295 HD
ENDBRANCH  10  12
ENDBRANCH   9  10
ENDBRANCH   1   3
BRANCH   1  18
ATOM     14  C   LIG    1        1.254   1.760   0.171  0.00  0.00    +0.002 A 
ATOM     15  C   LIG    1        0.076   1.036   0.167  0.00  0.00    +0.012 A 
ATOM     16  C   LIG    1       -1.141   1.690   0.118  0.00  0.00    +0.057 A 
ATOM     17  C   LIG    1       -1.185   3.070   0.083  0.00  0.00    +0.035 A 
ATOM     18  C   LIG    1       -0.004   3.800   0.087  0.00  0.00    +0.032 A 
ATOM     19  C   LIG    1        1.218   3.140   0.131  0.00  0.00    +0.023 A 
BRANCH  16  20
ATOM     20  C   LIG    1       -2.422   0.895   0.107  0.00  0.00    +0.417 C 
ATOM     21  F   LIG    1       -3.136   1.178  -1.062  0.00  0.00    -0.166 F 
ATOM     22  F   LIG    1       -3.195   1.242   1.221  0.00  0.00    -0.166 F 
ATOM     23  F   LIG    1       -2.124  -0.471   0.153  0.00  0.00    -0.166 F 
ENDBRANCH  16  20
ENDBRANCH   1  18
TORSDOF 5
