REMARK  Name = ZINC37866152
REMARK                            x       y       z     vdW  Elec       q    Type
REMARK                         _______ _______ _______ _____ _____    ______ ____
ROOT
ATOM      1  C   LIG    1       -1.477  -4.889   0.057  0.00  0.00    +0.011 A 
ATOM      2  C   LIG    1       -1.060  -5.766  -0.964  0.00  0.00    +0.037 A 
ATOM      3  C   LIG    1        0.214  -6.155  -0.680  0.00  0.00    +0.048 A 
ATOM      4  N   LIG    1        0.609  -5.551   0.485  0.00  0.00    -0.354 N 
ATOM      5  H   LIG    1        1.473  -5.658   0.911  0.00  0.00    +0.166 HD
ATOM      6  C   LIG    1       -0.418  -4.766   0.946  0.00  0.00    +0.055 A 
ENDROOT
BRANCH   1  13
ATOM      7  C   LIG    1       -3.670  -4.546   1.200  0.00  0.00    +0.128 A 
ATOM      8  C   LIG    1       -4.898  -3.911   1.292  0.00  0.00    +0.047 A 
ATOM      9  C   LIG    1       -5.258  -2.961   0.355  0.00  0.00    +0.019 A 
ATOM     10  C   LIG    1       -4.396  -2.639  -0.680  0.00  0.00    +0.019 A 
ATOM     11 BR   LIG    1       -4.902  -1.338  -1.956  0.00  0.00    -0.050 Br
ATOM     12  C   LIG    1       -3.170  -3.264  -0.784  0.00  0.00    +0.027 A 
ATOM     13  C   LIG    1       -2.795  -4.219   0.160  0.00  0.00    +0.027 A 
BRANCH   7  14
ATOM     14  O   LIG    1       -3.315  -5.480   2.121  0.00  0.00    -0.491 OA
BRANCH  14  15
ATOM     15  C   LIG    1       -4.260  -5.763   3.155  0.00  0.00    +0.229 C 
BRANCH  15  17
ATOM     16  C   LIG    1       -4.700  -7.134   5.197  0.00  0.00    +0.007 C 
ATOM     17  C   LIG    1       -3.689  -6.832   4.090  0.00  0.00    +0.038 C 
ENDBRANCH  15  17
ENDBRANCH  14  15
ENDBRANCH   7  14
ENDBRANCH   1  13
BRANCH   3  18
ATOM     18  C   LIG    1        1.035  -7.076  -1.494  0.00  0.00    -0.002 A 
ATOM     19  C   LIG    1        0.517  -7.624  -2.669  0.00  0.00    +0.011 A 
ATOM     20  C   LIG    1        1.288  -8.483  -3.424  0.00  0.00    +0.020 A 
ATOM     21  C   LIG    1        2.573  -8.803  -3.018  0.00  0.00    +0.041 A 
ATOM     22 CL   LIG    1        3.536  -9.887  -3.973  0.00  0.00    -0.084 Cl
ATOM     23  C   LIG    1        3.092  -8.263  -1.853  0.00  0.00    +0.020 A 
ATOM     24  C   LIG    1        2.333  -7.398  -1.093  0.00  0.00    +0.011 A 
ENDBRANCH   3  18
BRANCH   6  25
ATOM     25  C   LIG    1       -0.401  -3.943   2.169  0.00  0.00    +0.002 A 
ATOM     26  C   LIG    1       -0.861  -2.619   2.153  0.00  0.00    +0.029 A 
ATOM     27  C   LIG    1       -0.827  -1.886   3.320  0.00  0.00    +0.111 A 
ATOM     28  N   LIG    1       -0.370  -2.415   4.439  0.00  0.00    -0.263 NA
ATOM     29  C   LIG    1        0.072  -3.657   4.499  0.00  0.00    +0.111 A 
ATOM     30  C   LIG    1        0.070  -4.464   3.382  0.00  0.00    +0.029 A 
ENDBRANCH   6  25
TORSDOF 6
