REMARK  Name = ZINC53064442
REMARK                            x       y       z     vdW  Elec       q    Type
REMARK                         _______ _______ _______ _____ _____    ______ ____
ROOT
ATOM      1  N   LIG    1        0.097  -2.777  -0.113  0.00  0.00    -0.325 N 
ATOM      2  C   LIG    1       -1.306  -3.214  -0.188  0.00  0.00    +0.120 C 
ATOM      3  C   LIG    1       -1.357  -4.728   0.043  0.00  0.00    +0.103 C 
ATOM      4  N   LIG    1       -0.672  -5.051   1.302  0.00  0.00    -0.298 NA
ATOM      5  C   LIG    1        0.752  -4.696   1.240  0.00  0.00    +0.103 C 
ATOM      6  C   LIG    1        0.891  -3.186   1.055  0.00  0.00    +0.120 C 
ENDROOT
BRANCH   1  12
ATOM      7  C   LIG    1        0.606  -0.608  -1.057  0.00  0.00    +0.141 A 
ATOM      8  C   LIG    1        1.173   0.158  -2.062  0.00  0.00    +0.047 A 
ATOM      9  C   LIG    1        1.786  -0.457  -3.138  0.00  0.00    +0.004 A 
ATOM     10  C   LIG    1        1.837  -1.836  -3.214  0.00  0.00    +0.002 A 
ATOM     11  C   LIG    1        1.274  -2.608  -2.214  0.00  0.00    +0.027 A 
ATOM     12  C   LIG    1        0.662  -1.998  -1.129  0.00  0.00    +0.072 A 
BRANCH   7  14
ATOM     13  C   LIG    1       -0.017   1.425   0.010  0.00  0.00    +0.277 C 
ATOM     14  O   LIG    1        0.002  -0.004   0.002  0.00  0.00    -0.493 OA
ENDBRANCH   7  14
ENDBRANCH   1  12
BRANCH   4  15
ATOM     15  C   LIG    1       -0.847  -6.468   1.648  0.00  0.00    +0.104 C 
BRANCH  15  16
ATOM     16  C   LIG    1       -0.342  -6.712   3.071  0.00  0.00    +0.131 C 
BRANCH  16  17
ATOM     17  N   LIG    1       -0.516  -8.125   3.416  0.00  0.00    -0.241 N 
ATOM     18  C   LIG    1       -1.669  -8.509   3.983  0.00  0.00    +0.222 C 
ATOM     19  C   LIG    1       -1.905  -9.944   4.379  0.00  0.00    +0.103 C 
ATOM     20  C   LIG    1       -1.093 -10.858   3.464  0.00  0.00    -0.013 C 
ATOM     21  C   LIG    1        0.377 -10.441   3.495  0.00  0.00    +0.103 C 
ATOM     22  C   LIG    1       -1.237 -12.319   3.912  0.00  0.00    +0.008 C 
ATOM     23  C   LIG    1       -1.864 -13.080   2.724  0.00  0.00    +0.001 C 
ATOM     24  C   LIG    1       -1.501 -12.221   1.487  0.00  0.00    +0.001 C 
ATOM     25  C   LIG    1       -1.631 -10.773   2.025  0.00  0.00    +0.008 C 
ATOM     26  O   LIG    1       -2.537  -7.687   4.182  0.00  0.00    -0.275 OA
ATOM     27  C   LIG    1        0.482  -8.979   3.145  0.00  0.00    +0.222 C 
ATOM     28  O   LIG    1        1.489  -8.566   2.612  0.00  0.00    -0.275 OA
ENDBRANCH  16  17
ENDBRANCH  15  16
ENDBRANCH   4  15
TORSDOF 5
