REMARK  Name = ZINC29319828
REMARK                            x       y       z     vdW  Elec       q    Type
REMARK                         _______ _______ _______ _____ _____    ______ ____
ROOT
ATOM      1  C   LIG    1        2.038  -3.339  -2.662  0.00  0.00    +0.088 A 
ATOM      2  N   LIG    1        3.179  -3.974  -2.588  0.00  0.00    -0.349 N 
ATOM      3  H   LIG    1        3.768  -3.975  -1.817  0.00  0.00    +0.166 HD
ATOM      4  C   LIG    1        3.413  -4.620  -3.730  0.00  0.00    +0.110 A 
ATOM      5  C   LIG    1        2.346  -4.372  -4.574  0.00  0.00    +0.060 A 
ATOM      6  N   LIG    1        1.481  -3.557  -3.868  0.00  0.00    -0.325 N 
ENDROOT
BRANCH   5   7
ATOM      7  C   LIG    1        2.173  -4.858  -5.892  0.00  0.00    +0.038 C 
ATOM      8  C   LIG    1        3.194  -5.502  -6.518  0.00  0.00    +0.043 C 
BRANCH   8   9
ATOM      9  C   LIG    1        2.966  -6.159  -7.743  0.00  0.00    +0.333 C 
ATOM     10  O   LIG    1        1.750  -6.149  -8.288  0.00  0.00    -0.245 OA
BRANCH   9  11
ATOM     11  O   LIG    1        3.966  -6.789  -8.357  0.00  0.00    -0.477 OA
ATOM     12  H   LIG    1        4.821  -6.796  -7.974  0.00  0.00    +0.295 HD
ENDBRANCH   9  11
ENDBRANCH   8   9
BRANCH   8  13
ATOM     13  C   LIG    1        4.569  -5.512  -5.902  0.00  0.00    +0.084 C 
BRANCH  13  14
ATOM     14  C   LIG    1        4.768  -6.796  -5.138  0.00  0.00    -0.006 A 
ATOM     15  C   LIG    1        5.387  -7.936  -5.531  0.00  0.00    +0.011 A 
ATOM     16  C   LIG    1        5.452  -9.001  -4.653  0.00  0.00    +0.008 A 
ATOM     17  C   LIG    1        4.893  -8.874  -3.424  0.00  0.00    +0.045 A 
ATOM     18  S   LIG    1        4.255  -7.208  -3.479  0.00  0.00    -0.101 S 
ENDBRANCH  13  14
ENDBRANCH   8  13
ENDBRANCH   5   7
BRANCH   1  19
ATOM     19  C   LIG    1        1.436  -2.499  -1.565  0.00  0.00    +0.072 C 
BRANCH  19  20
ATOM     20  C   LIG    1        2.003  -1.080  -1.640  0.00  0.00    +0.007 C 
BRANCH  20  22
ATOM     21  C   LIG    1        1.959   1.192  -0.602  0.00  0.00    +0.004 C 
ATOM     22  C   LIG    1        1.392  -0.227  -0.526  0.00  0.00    -0.003 C 
ENDBRANCH  20  22
ENDBRANCH  19  20
ENDBRANCH   1  19
BRANCH   6  23
ATOM     23  C   LIG    1        0.200  -3.028  -4.344  0.00  0.00    +0.158 C 
BRANCH  23  24
ATOM     24  C   LIG    1        0.439  -1.763  -5.126  0.00  0.00    -0.028 A 
ATOM     25  C   LIG    1        0.326  -0.534  -4.499  0.00  0.00    +0.006 A 
ATOM     26  C   LIG    1        0.542   0.628  -5.209  0.00  0.00    +0.015 A 
ATOM     27  C   LIG    1        0.878   0.564  -6.564  0.00  0.00    +0.059 A 
ATOM     28  C   LIG    1        0.991  -0.680  -7.190  0.00  0.00    +0.015 A 
ATOM     29  C   LIG    1        0.776  -1.835  -6.466  0.00  0.00    +0.006 A 
BRANCH  27  30
ATOM     30  C   LIG    1        1.111   1.803  -7.330  0.00  0.00    +0.337 C 
ATOM     31  O   LIG    1        0.920   2.891  -6.805  0.00  0.00    -0.245 OA
BRANCH  30  32
ATOM     32  O   LIG    1        1.494   1.742  -8.489  0.00  0.00    -0.477 OA
ATOM     33  H   LIG    1        1.641   0.908  -8.891  0.00  0.00    +0.295 HD
ENDBRANCH  30  32
ENDBRANCH  27  30
ENDBRANCH  23  24
ENDBRANCH   6  23
TORSDOF 12
