REMARK  Name = ZINC00057001
REMARK                            x       y       z     vdW  Elec       q    Type
REMARK                         _______ _______ _______ _____ _____    ______ ____
ROOT
ATOM      1  C   LIG    1        0.707  -0.490  -1.238  0.00  0.00    +0.220 C 
ATOM      2  N   LIG    1        0.231  -0.164  -2.456  0.00  0.00    -0.288 N 
ATOM      3  C   LIG    1       -0.961   0.662  -2.719  0.00  0.00    +0.109 C 
ATOM      4  C   LIG    1       -1.432   0.239  -4.133  0.00  0.00    +0.021 C 
ATOM      5  C   LIG    1       -0.079   0.010  -4.856  0.00  0.00    +0.035 C 
ATOM      6  C   LIG    1        0.818  -0.569  -3.742  0.00  0.00    +0.184 C 
ATOM      7  O   LIG    1        1.704  -1.174  -1.140  0.00  0.00    -0.275 OA
ENDROOT
BRANCH   1   9
ATOM      8  C   LIG    1       -0.019   1.526   0.010  0.00  0.00    +0.018 C 
ATOM      9  C   LIG    1        0.002  -0.004   0.002  0.00  0.00    +0.082 C 
BRANCH   9  10
ATOM     10  C   LIG    1        0.742  -0.511   1.242  0.00  0.00    +0.078 C 
BRANCH  10  11
ATOM     11  S   LIG    1       -0.187  -0.052   2.730  0.00  0.00    -0.178 S 
ATOM     12  H   LIG    1        0.552  -0.545   3.740  0.00  0.00    +0.102 HD
ENDBRANCH  10  11
ENDBRANCH   9  10
ENDBRANCH   1   9
BRANCH   6  13
ATOM     13  C   LIG    1        2.214  -0.016  -3.865  0.00  0.00    +0.325 C 
ATOM     14  O   LIG    1        2.939  -0.386  -4.773  0.00  0.00    -0.249 OA
BRANCH  13  15
ATOM     15  O   LIG    1        2.619   0.802  -3.056  0.00  0.00    -0.479 OA
ATOM     16  H   LIG    1        2.062   1.087  -2.358  0.00  0.00    +0.295 HD
ENDBRANCH  13  15
ENDBRANCH   6  13
TORSDOF 5
