REMARK  Name = ZINC20149028
REMARK                            x       y       z     vdW  Elec       q    Type
REMARK                         _______ _______ _______ _____ _____    ______ ____
ROOT
ATOM      1  C   LIG    1        4.851   0.941   1.920  0.00  0.00    +0.021 A 
ATOM      2  C   LIG    1        6.009   0.243   2.315  0.00  0.00    +0.042 A 
ATOM      3  CA  LIG    1        5.646  -0.590   3.335  0.00  0.00    +0.102 A 
ATOM      4  N   LIG    1        4.300  -0.415   3.568  0.00  0.00    -0.356 N 
ATOM      5  H   LIG    1        3.779  -0.881   4.241  0.00  0.00    +0.165 HD
ATOM      6  C   LIG    1        3.825   0.515   2.714  0.00  0.00    +0.093 A 
ENDROOT
BRANCH   1  12
ATOM      7  C   LIG    1        3.660   2.166  -0.022  0.00  0.00    +0.027 A 
ATOM      8  C   LIG    1        3.982   3.193  -0.858  0.00  0.00    +0.114 A 
ATOM      9  N   LIG    1        5.226   3.607  -0.543  0.00  0.00    -0.284 N 
ATOM     10  H   LIG    1        5.711   4.327  -0.977  0.00  0.00    +0.188 HD
ATOM     11  N   LIG    1        5.698   2.823   0.516  0.00  0.00    -0.173 NA
ATOM     12  C   LIG    1        4.764   1.958   0.842  0.00  0.00    +0.102 A 
BRANCH   7  15
ATOM     13  C   LIG    1       -0.017   1.379   0.010  0.00  0.00    +0.002 A 
ATOM     14  C   LIG    1        1.168   2.088   0.002  0.00  0.00    +0.009 A 
ATOM     15  C   LIG    1        2.384   1.409  -0.013  0.00  0.00    -0.013 A 
ATOM     16  C   LIG    1        2.398   0.015  -0.021  0.00  0.00    +0.028 A 
ATOM     17  C   LIG    1        1.208  -0.685  -0.013  0.00  0.00    +0.042 A 
ATOM     18 CL   LIG    1        1.223  -2.421  -0.023  0.00  0.00    -0.084 Cl
ATOM     19  C   LIG    1        0.002  -0.004   0.002  0.00  0.00    +0.020 A 
ENDBRANCH   7  15
ENDBRANCH   1  12
BRANCH   3  20
ATOM     20  C   LIG    1        6.534  -1.510   4.056  0.00  0.00    +0.261 C 
ATOM     21  N   LIG    1        6.045  -2.280   5.048  0.00  0.00    -0.301 N 
ATOM     22  H   LIG    1        5.106  -2.226   5.286  0.00  0.00    +0.150 HD
ATOM     23  O   LIG    1        7.711  -1.577   3.757  0.00  0.00    -0.269 OA
BRANCH  21  24
ATOM     24  CA  LIG    1        6.931  -3.199   5.767  0.00  0.00    +0.129 C 
BRANCH  24  25
ATOM     25  C   LIG    1        6.371  -3.465   7.141  0.00  0.00    -0.023 A 
ATOM     26  C   LIG    1        5.010  -3.639   7.309  0.00  0.00    +0.008 A 
ATOM     27  C   LIG    1        4.494  -3.884   8.568  0.00  0.00    +0.040 A 
ATOM     28  C   LIG    1        5.341  -3.954   9.661  0.00  0.00    +0.142 A 
ATOM     29  F   LIG    1        4.839  -4.193  10.892  0.00  0.00    -0.204 F 
ATOM     30  C   LIG    1        6.705  -3.780   9.491  0.00  0.00    +0.076 A 
ATOM     31 CL   LIG    1        7.770  -3.868  10.860  0.00  0.00    -0.081 Cl
ATOM     32  C   LIG    1        7.219  -3.540   8.229  0.00  0.00    +0.028 A 
ENDBRANCH  24  25
BRANCH  24  33
ATOM     33  C   LIG    1        7.036  -4.515   4.995  0.00  0.00    +0.182 C 
BRANCH  33  34
ATOM     34  O   LIG    1        5.760  -5.159   4.975  0.00  0.00    -0.393 OA
ATOM     35  H   LIG    1        5.752  -6.002   4.501  0.00  0.00    +0.209 HD
ENDBRANCH  33  34
ENDBRANCH  24  33
ENDBRANCH  21  24
ENDBRANCH   3  20
TORSDOF 7
