REMARK  Name = ZINC29488267
REMARK                            x       y       z     vdW  Elec       q    Type
REMARK                         _______ _______ _______ _____ _____    ______ ____
ROOT
ATOM      1  C   LIG    1       -1.413  -2.041   0.005  0.00  0.00    +0.089 A 
ATOM      2  C   LIG    1       -1.407  -2.857  -1.147  0.00  0.00    +0.119 A 
ATOM      3  C   LIG    1       -1.387  -4.192  -0.701  0.00  0.00    +0.146 A 
ATOM      4  N   LIG    1       -1.381  -4.150   0.667  0.00  0.00    -0.270 N 
ATOM      5  H   LIG    1       -1.368  -4.917   1.261  0.00  0.00    +0.189 HD
ATOM      6  C   LIG    1       -1.378  -5.216  -1.657  0.00  0.00    +0.242 A 
ATOM      7  N   LIG    1       -1.388  -4.889  -2.940  0.00  0.00    -0.191 NA
ATOM      8  C   LIG    1       -1.407  -3.616  -3.327  0.00  0.00    +0.168 A 
ATOM      9  N   LIG    1       -1.416  -2.616  -2.463  0.00  0.00    -0.224 NA
ATOM     10  N   LIG    1       -1.392  -2.805   1.060  0.00  0.00    -0.176 NA
ENDROOT
BRANCH   8  11
ATOM     11  C   LIG    1       -1.419  -3.309  -4.776  0.00  0.00    +0.061 A 
ATOM     12  C   LIG    1       -1.433  -1.985  -5.212  0.00  0.00    +0.015 A 
ATOM     13  C   LIG    1       -1.443  -1.704  -6.562  0.00  0.00    +0.001 A 
ATOM     14  C   LIG    1       -1.440  -2.733  -7.488  0.00  0.00    +0.004 A 
ATOM     15  C   LIG    1       -1.426  -4.049  -7.069  0.00  0.00    +0.046 A 
ATOM     16  C   LIG    1       -1.409  -4.346  -5.715  0.00  0.00    +0.131 A 
BRANCH  16  17
ATOM     17  O   LIG    1       -1.390  -5.639  -5.301  0.00  0.00    -0.492 OA
BRANCH  17  18
ATOM     18  C   LIG    1       -1.381  -6.645  -6.315  0.00  0.00    +0.226 C 
ATOM     19  C   LIG    1       -1.359  -8.029  -5.662  0.00  0.00    +0.048 C 
ENDBRANCH  17  18
ENDBRANCH  16  17
ENDBRANCH   8  11
BRANCH   6  20
ATOM     20  O   LIG    1       -1.359  -6.516  -1.275  0.00  0.00    -0.491 OA
ATOM     21  H   LIG    1       -1.351  -6.737  -0.365  0.00  0.00    +0.294 HD
ENDBRANCH   6  20
BRANCH   1  22
ATOM     22  C   LIG    1       -1.433  -0.534   0.013  0.00  0.00    +0.059 C 
BRANCH  22  24
ATOM     23  C   LIG    1       -0.019   1.526   0.010  0.00  0.00    +0.004 C 
ATOM     24  C   LIG    1        0.002  -0.004   0.002  0.00  0.00    +0.003 C 
ENDBRANCH  22  24
ENDBRANCH   1  22
TORSDOF 6
