REMARK  Name = ZINC29413191
REMARK                            x       y       z     vdW  Elec       q    Type
REMARK                         _______ _______ _______ _____ _____    ______ ____
ROOT
ATOM      1  N   LIG    1       -2.447   1.739   0.022  0.00  0.00    -0.332 N 
ATOM      2  C   LIG    1       -2.240   0.301  -0.197  0.00  0.00    +0.086 C 
ATOM      3  C   LIG    1       -3.598  -0.402  -0.268  0.00  0.00    -0.063 C 
ATOM      4  N   LIG    1       -4.336  -0.163   0.981  0.00  0.00    +0.381 N 
ATOM      5  H   LIG    1       -3.765  -0.572   1.828  0.00  0.00    -0.086 HD
ATOM      6  H   LIG    1       -5.317  -0.658   0.927  0.00  0.00    -0.086 HD
ATOM      7  C   LIG    1       -4.542   1.275   1.200  0.00  0.00    -0.063 C 
ATOM      8  C   LIG    1       -3.185   1.978   1.271  0.00  0.00    +0.086 C 
ENDROOT
BRANCH   1  15
ATOM      9  C   LIG    1       -0.023   1.733   0.048  0.00  0.00    +0.044 A 
ATOM     10  C   LIG    1        1.157   2.448   0.051  0.00  0.00    +0.112 A 
ATOM     11  N   LIG    1        1.148   3.768   0.025  0.00  0.00    -0.262 NA
ATOM     12  C   LIG    1        0.024   4.458  -0.006  0.00  0.00    +0.132 A 
ATOM     13  C   LIG    1       -1.199   3.818  -0.012  0.00  0.00    +0.080 A 
ATOM     14 CL   LIG    1       -2.672   4.735  -0.052  0.00  0.00    -0.080 Cl
ATOM     15  C   LIG    1       -1.234   2.423   0.021  0.00  0.00    +0.051 A 
ENDBRANCH   1  15
TORSDOF 1
