REMARK  Name = ZINC16052825
REMARK                            x       y       z     vdW  Elec       q    Type
REMARK                         _______ _______ _______ _____ _____    ______ ____
ROOT
ATOM      1  C   LIG    1        0.050  -2.682   2.486  0.00  0.00    +0.092 A 
ATOM      2  C   LIG    1        0.512  -2.180   3.690  0.00  0.00    +0.098 A 
ATOM      3  N   LIG    1        0.340  -3.139   4.618  0.00  0.00    -0.231 NA
ATOM      4  C   LIG    1       -0.194  -4.192   4.064  0.00  0.00    +0.114 A 
ATOM      5  N   LIG    1       -0.397  -3.958   2.750  0.00  0.00    -0.340 N 
ATOM      6  H   LIG    1       -0.784  -4.575   2.109  0.00  0.00    +0.167 HD
ENDROOT
BRANCH   2   7
ATOM      7  C   LIG    1        1.089  -0.834   3.916  0.00  0.00    +0.006 A 
ATOM      8  C   LIG    1        1.861  -0.230   2.925  0.00  0.00    +0.014 A 
ATOM      9  C   LIG    1        2.398   1.024   3.136  0.00  0.00    +0.050 A 
ATOM     10  C   LIG    1        2.171   1.687   4.333  0.00  0.00    +0.166 A 
ATOM     11  C   LIG    1        1.399   1.088   5.328  0.00  0.00    +0.167 A 
ATOM     12  O   LIG    1        1.328   1.936   6.395  0.00  0.00    -0.453 OA
ATOM     13  C   LIG    1        2.398   2.881   6.207  0.00  0.00    +0.466 C 
ATOM     14  O   LIG    1        2.582   2.910   4.779  0.00  0.00    -0.453 OA
ATOM     15  C   LIG    1        0.855  -0.167   5.118  0.00  0.00    +0.059 A 
ENDBRANCH   2   7
BRANCH   1  21
ATOM     16  C   LIG    1       -0.018   1.503   0.010  0.00  0.00    +0.065 C 
ATOM     17  C   LIG    1        0.002  -0.004   0.002  0.00  0.00    +0.039 A 
ATOM     18  C   LIG    1        0.005  -0.679  -1.205  0.00  0.00    +0.023 A 
ATOM     19  C   LIG    1        0.024  -2.067  -1.210  0.00  0.00    +0.004 A 
ATOM     20  C   LIG    1        0.039  -2.733   0.002  0.00  0.00    +0.030 A 
ATOM     21  C   LIG    1        0.035  -1.989   1.184  0.00  0.00    +0.090 A 
ATOM     22  N   LIG    1        0.022  -0.660   1.145  0.00  0.00    -0.250 NA
ENDBRANCH   1  21
BRANCH   4  23
ATOM     23  C   LIG    1       -0.537  -5.472   4.781  0.00  0.00    +0.020 C 
ATOM     24  C   LIG    1       -1.930  -5.938   4.355  0.00  0.00    +0.018 C 
ATOM     25  C   LIG    1       -0.519  -5.231   6.292  0.00  0.00    +0.018 C 
ATOM     26  C   LIG    1        0.492  -6.548   4.424  0.00  0.00    +0.018 C 
ENDBRANCH   4  23
TORSDOF 3
