REMARK  Name = ZINC18125083
REMARK                            x       y       z     vdW  Elec       q    Type
REMARK                         _______ _______ _______ _____ _____    ______ ____
ROOT
ATOM      1  C   LIG    1        3.740   1.823  -0.024  0.00  0.00    +0.010 A 
ATOM      2  C   LIG    1        4.131   2.771  -0.913  0.00  0.00    +0.057 A 
ATOM      3  S   LIG    1        5.853   3.017  -0.524  0.00  0.00    -0.076 S 
ATOM      4  C   LIG    1        6.008   1.855   0.808  0.00  0.00    +0.116 A 
ATOM      5  N   LIG    1        7.008   1.479   1.602  0.00  0.00    -0.230 NA
ATOM      6  C   LIG    1        6.824   0.585   2.536  0.00  0.00    +0.200 A 
ATOM      7  N   LIG    1        5.613  -0.002   2.718  0.00  0.00    -0.313 N 
ATOM      8  H   LIG    1        5.508  -0.669   3.415  0.00  0.00    +0.170 HD
ATOM      9  C   LIG    1        4.556   0.323   1.951  0.00  0.00    +0.260 A 
ATOM     10  O   LIG    1        3.476  -0.213   2.127  0.00  0.00    -0.267 OA
ATOM     11  C   LIG    1        4.720   1.307   0.925  0.00  0.00    +0.080 A 
ENDROOT
BRANCH   1  14
ATOM     12  C   LIG    1       -0.016   1.353   0.009  0.00  0.00    +0.008 A 
ATOM     13  C   LIG    1        1.179   2.041   0.002  0.00  0.00    +0.016 A 
ATOM     14  C   LIG    1        2.348   1.328  -0.013  0.00  0.00    +0.021 A 
ATOM     15  S   LIG    1        1.752  -0.355  -0.017  0.00  0.00    -0.097 S 
ATOM     16  C   LIG    1        0.002  -0.004   0.002  0.00  0.00    +0.046 A 
ENDBRANCH   1  14
TORSDOF 1
