REMARK  Name = ZINC33966196
REMARK                            x       y       z     vdW  Elec       q    Type
REMARK                         _______ _______ _______ _____ _____    ______ ____
ROOT
ATOM      1  C   LIG    1        0.323  -0.303  -1.537  0.00  0.00    -0.011 C 
ATOM      2  C   LIG    1       -0.274  -0.171  -2.960  0.00  0.00    +0.004 C 
ATOM      3  C   LIG    1        0.443  -1.267  -3.775  0.00  0.00    +0.006 C 
ATOM      4  C   LIG    1        0.917  -2.326  -2.764  0.00  0.00    -0.035 C 
ATOM      5  C   LIG    1        0.476  -1.835  -1.368  0.00  0.00    +0.009 C 
ENDROOT
BRANCH   1   7
ATOM      6  C   LIG    1       -0.721   1.784  -0.646  0.00  0.00    +0.004 C 
ATOM      7  C   LIG    1       -0.638   0.264  -0.491  0.00  0.00    +0.000 C 
ENDBRANCH   1   7
BRANCH   4   8
ATOM      8  C   LIG    1        0.269  -3.676  -3.077  0.00  0.00    -0.079 C 
BRANCH   8   9
ATOM      9  N   LIG    1        0.721  -4.143  -4.394  0.00  0.00    +0.378 N 
ATOM     10  H   LIG    1        1.729  -4.180  -4.410  0.00  0.00    -0.090 HD
ATOM     11  H   LIG    1        0.396  -3.507  -5.106  0.00  0.00    -0.090 HD
ATOM     12  H   LIG    1        0.348  -5.064  -4.571  0.00  0.00    -0.090 HD
ENDBRANCH   8   9
ENDBRANCH   4   8
BRANCH   4  13
ATOM     13  C   LIG    1        2.441  -2.452  -2.813  0.00  0.00    +0.125 C 
BRANCH  13  14
ATOM     14  C   LIG    1        2.903  -3.393  -1.730  0.00  0.00    +0.305 C 
ATOM     15  O   LIG    1        2.084  -3.981  -1.044  0.00  0.00    -0.251 OA
BRANCH  14  16
ATOM     16  O   LIG    1        4.095  -3.566  -1.540  0.00  0.00    -0.481 OA
ATOM     17  H   LIG    1        4.724  -3.114  -2.068  0.00  0.00    +0.295 HD
ENDBRANCH  14  16
ENDBRANCH  13  14
ENDBRANCH   4  13
TORSDOF 6
