REMARK  Name = ZINC19350021
REMARK                            x       y       z     vdW  Elec       q    Type
REMARK                         _______ _______ _______ _____ _____    ______ ____
ROOT
ATOM      1  C   LIG    1        0.252  -2.036   5.330  0.00  0.00    +0.002 A 
ATOM      2  C   LIG    1        0.301  -3.405   5.519  0.00  0.00    +0.004 A 
ATOM      3  C   LIG    1        0.308  -4.257   4.431  0.00  0.00    +0.048 A 
ATOM      4  C   LIG    1        0.262  -3.740   3.146  0.00  0.00    +0.150 A 
ATOM      5  C   LIG    1        0.219  -2.361   2.954  0.00  0.00    +0.076 A 
ATOM      6  C   LIG    1        0.212  -1.512   4.052  0.00  0.00    +0.027 A 
ENDROOT
BRANCH   5   7
ATOM      7  N   LIG    1        0.178  -1.833   1.657  0.00  0.00    -0.281 N 
ATOM      8  H   LIG    1       -0.355  -2.372   0.861  0.00  0.00    +0.155 HD
ATOM      9  C   LIG    1        0.792  -0.664   1.386  0.00  0.00    +0.237 C 
ATOM     10  O   LIG    1        1.321  -0.035   2.279  0.00  0.00    -0.274 OA
BRANCH   9  11
ATOM     11  C   LIG    1        0.823  -0.140  -0.026  0.00  0.00    +0.218 C 
BRANCH  11  12
ATOM     12  N   LIG    1        1.544   1.136  -0.058  0.00  0.00    -0.330 N 
ATOM     13  C   LIG    1        0.998   2.381   0.099  0.00  0.00    +0.105 A 
ATOM     14  C   LIG    1        2.010   3.265   0.004  0.00  0.00    +0.101 A 
ATOM     15  N   LIG    1        3.141   2.578  -0.214  0.00  0.00    -0.352 N 
ATOM     16  H   LIG    1        4.096   3.113  -0.328  0.00  0.00    +0.166 HD
ATOM     17  C   LIG    1        2.870   1.302  -0.252  0.00  0.00    +0.174 A 
ENDBRANCH  11  12
ENDBRANCH   9  11
ENDBRANCH   5   7
BRANCH   4  18
ATOM     18  O   LIG    1        0.264  -4.577   2.075  0.00  0.00    -0.454 OA
BRANCH  18  19
ATOM     19  C   LIG    1        1.459  -4.880   1.503  0.00  0.00    +0.129 A 
ATOM     20  C   LIG    1        2.617  -4.255   1.942  0.00  0.00    +0.049 A 
ATOM     21  C   LIG    1        3.832  -4.567   1.364  0.00  0.00    +0.042 A 
ATOM     22  C   LIG    1        3.893  -5.496   0.339  0.00  0.00    +0.124 A 
ATOM     23  F   LIG    1        5.082  -5.797  -0.229  0.00  0.00    -0.205 F 
ATOM     24  C   LIG    1        2.738  -6.117  -0.104  0.00  0.00    +0.042 A 
ATOM     25  C   LIG    1        1.522  -5.811   0.476  0.00  0.00    +0.049 A 
ENDBRANCH  18  19
ENDBRANCH   4  18
TORSDOF 5
