REMARK  Name = ZINC29043859
REMARK                            x       y       z     vdW  Elec       q    Type
REMARK                         _______ _______ _______ _____ _____    ______ ____
ROOT
ATOM      1  C   LIG    1       -4.995   5.276  -1.867  0.00  0.00    +0.233 C 
ATOM      2  N   LIG    1       -4.434   4.555  -0.877  0.00  0.00    -0.298 N 
ATOM      3  C   LIG    1       -5.080   4.460   0.440  0.00  0.00    +0.108 C 
ATOM      4  C   LIG    1       -4.070   4.871   1.516  0.00  0.00    +0.020 C 
ATOM      5  C   LIG    1       -2.805   4.021   1.373  0.00  0.00    +0.011 C 
ATOM      6  C   LIG    1       -2.175   4.266   0.001  0.00  0.00    +0.038 C 
ATOM      7  C   LIG    1       -3.164   3.848  -1.093  0.00  0.00    +0.067 C 
ATOM      8  O   LIG    1       -4.500   5.275  -2.974  0.00  0.00    -0.274 OA
ENDROOT
BRANCH   6   9
ATOM      9  C   LIG    1       -0.912   3.453  -0.126  0.00  0.00    -0.043 A 
ATOM     10  C   LIG    1       -0.923   2.107   0.188  0.00  0.00    +0.004 A 
ATOM     11  C   LIG    1        0.237   1.362   0.078  0.00  0.00    +0.000 A 
ATOM     12  C   LIG    1        1.404   1.961  -0.357  0.00  0.00    +0.000 A 
ATOM     13  C   LIG    1        1.413   3.306  -0.677  0.00  0.00    +0.000 A 
ATOM     14  C   LIG    1        0.255   4.052  -0.561  0.00  0.00    +0.004 A 
ENDBRANCH   6   9
BRANCH   1  15
ATOM     15  C   LIG    1       -6.239   6.084  -1.599  0.00  0.00    +0.200 C 
BRANCH  15  17
ATOM     16  C   LIG    1       -7.743   6.012  -3.641  0.00  0.00    +0.130 C 
ATOM     17  N   LIG    1       -6.710   6.684  -2.849  0.00  0.00    -0.324 N 
BRANCH  17  18
ATOM     18  C   LIG    1       -6.174   7.898  -3.287  0.00  0.00    +0.031 A 
ATOM     19  C   LIG    1       -6.620   8.469  -4.472  0.00  0.00    +0.024 A 
ATOM     20  C   LIG    1       -6.089   9.669  -4.903  0.00  0.00    +0.023 A 
ATOM     21  C   LIG    1       -5.113  10.303  -4.155  0.00  0.00    +0.059 A 
ATOM     22 CL   LIG    1       -4.446  11.811  -4.700  0.00  0.00    -0.082 Cl
ATOM     23  C   LIG    1       -4.666   9.737  -2.973  0.00  0.00    +0.061 A 
ATOM     24 CL   LIG    1       -3.441  10.536  -2.037  0.00  0.00    -0.082 Cl
ATOM     25  C   LIG    1       -5.199   8.539  -2.534  0.00  0.00    +0.044 A 
ENDBRANCH  17  18
ENDBRANCH  15  17
ENDBRANCH   1  15
BRANCH   7  26
ATOM     26  C   LIG    1       -2.597   4.219  -2.465  0.00  0.00    -0.056 C 
BRANCH  26  27
ATOM     27  N   LIG    1       -1.361   3.463  -2.705  0.00  0.00    +0.381 N 
ATOM     28  H   LIG    1       -0.670   3.757  -1.901  0.00  0.00    -0.082 HD
ATOM     29  C   LIG    1       -1.622   2.001  -2.702  0.00  0.00    -0.079 C 
ATOM     30  C   LIG    1       -0.403   1.422  -3.465  0.00  0.00    -0.020 C 
ATOM     31  C   LIG    1       -0.150   2.478  -4.565  0.00  0.00    -0.020 C 
ATOM     32  C   LIG    1       -0.802   3.771  -4.039  0.00  0.00    -0.079 C 
ENDBRANCH  26  27
ENDBRANCH   7  26
TORSDOF 6
