REMARK  Name = ZINC18189751
REMARK                            x       y       z     vdW  Elec       q    Type
REMARK                         _______ _______ _______ _____ _____    ______ ____
ROOT
ATOM      1  N   LIG    1        1.996  -6.411  -0.328  0.00  0.00    -0.170 NA
ATOM      2  C   LIG    1        3.224  -6.729  -0.052  0.00  0.00    +0.075 C 
ATOM      3  C   LIG    1        3.559  -8.133   0.382  0.00  0.00    +0.068 C 
ENDROOT
BRANCH   2   4
ATOM      4  C   LIG    1        4.289  -5.719  -0.164  0.00  0.00    +0.124 A 
ATOM      5  C   LIG    1        4.691  -4.992   0.954  0.00  0.00    +0.143 A 
ATOM      6  C   LIG    1        5.759  -4.000   0.779  0.00  0.00    +0.060 A 
ATOM      7  C   LIG    1        6.212  -3.235   1.857  0.00  0.00    +0.015 A 
ATOM      8  C   LIG    1        7.208  -2.318   1.667  0.00  0.00    +0.001 A 
ATOM      9  C   LIG    1        7.770  -2.141   0.412  0.00  0.00    +0.004 A 
ATOM     10  C   LIG    1        7.336  -2.886  -0.665  0.00  0.00    +0.047 A 
ATOM     11  C   LIG    1        6.326  -3.825  -0.495  0.00  0.00    +0.143 A 
ATOM     12  O   LIG    1        5.892  -4.562  -1.540  0.00  0.00    -0.422 OA
ATOM     13  C   LIG    1        4.922  -5.479  -1.410  0.00  0.00    +0.350 A 
ATOM     14  O   LIG    1        4.574  -6.118  -2.386  0.00  0.00    -0.244 OA
BRANCH   5  15
ATOM     15  O   LIG    1        4.117  -5.194   2.162  0.00  0.00    -0.505 OA
ATOM     16  H   LIG    1        3.437  -5.832   2.256  0.00  0.00    +0.292 HD
ENDBRANCH   5  15
ENDBRANCH   2   4
BRANCH   1  17
ATOM     17  N   LIG    1        1.667  -5.082  -0.625  0.00  0.00    -0.136 N 
ATOM     18  H   LIG    1        2.367  -4.390  -0.625  0.00  0.00    +0.197 HD
BRANCH  17  19
ATOM     19  S   LIG    1        0.100  -4.676  -0.977  0.00  0.00    +0.086 S 
ATOM     20  O   LIG    1       -0.221  -5.318  -2.203  0.00  0.00    -0.149 OA
ATOM     21  O   LIG    1       -0.650  -4.885   0.212  0.00  0.00    -0.149 OA
BRANCH  19  26
ATOM     22  C   LIG    1       -0.007   1.259  -2.061  0.00  0.00    +0.044 C 
ATOM     23  C   LIG    1        0.020  -0.223  -1.790  0.00  0.00    -0.050 A 
ATOM     24  C   LIG    1        0.240  -1.112  -2.827  0.00  0.00    +0.005 A 
ATOM     25  C   LIG    1        0.265  -2.471  -2.578  0.00  0.00    +0.029 A 
ATOM     26  C   LIG    1        0.070  -2.943  -1.293  0.00  0.00    +0.110 A 
ATOM     27  C   LIG    1       -0.149  -2.054  -0.257  0.00  0.00    +0.029 A 
ATOM     28  C   LIG    1       -0.169  -0.695  -0.505  0.00  0.00    +0.005 A 
ENDBRANCH  19  26
ENDBRANCH  17  19
ENDBRANCH   1  17
TORSDOF 5
