REMARK  Name = ZINC17953024
REMARK                            x       y       z     vdW  Elec       q    Type
REMARK                         _______ _______ _______ _____ _____    ______ ____
ROOT
ATOM      1  N   LIG    1       -2.197  -0.236  -0.709  0.00  0.00    -0.381 N 
ATOM      2  H   LIG    1       -2.680   0.535  -0.373  0.00  0.00    +0.160 HD
ATOM      3  C   LIG    1       -2.769  -1.045  -1.581  0.00  0.00    +0.059 A 
ATOM      4  C   LIG    1       -2.021  -2.087  -2.175  0.00  0.00    +0.055 A 
ATOM      5  C   LIG    1       -2.615  -2.919  -3.073  0.00  0.00    +0.075 A 
ATOM      6  N   LIG    1       -1.903  -3.943  -3.664  0.00  0.00    -0.306 N 
ATOM      7  C   LIG    1       -2.551  -4.762  -4.570  0.00  0.00    +0.073 A 
ATOM      8  C   LIG    1       -1.864  -5.804  -5.185  0.00  0.00    +0.028 A 
ATOM      9  C   LIG    1       -2.514  -6.618  -6.087  0.00  0.00    +0.002 A 
ATOM     10  C   LIG    1       -3.854  -6.406  -6.390  0.00  0.00    +0.002 A 
ATOM     11  C   LIG    1       -4.549  -5.391  -5.801  0.00  0.00    +0.030 A 
ATOM     12  C   LIG    1       -3.910  -4.546  -4.876  0.00  0.00    +0.088 A 
ATOM     13  N   LIG    1       -4.601  -3.550  -4.300  0.00  0.00    -0.244 NA
ATOM     14  C   LIG    1       -4.032  -2.737  -3.428  0.00  0.00    +0.090 A 
ATOM     15  C   LIG    1       -4.779  -1.691  -2.831  0.00  0.00    +0.055 A 
ATOM     16  C   LIG    1       -4.189  -0.865  -1.931  0.00  0.00    +0.057 A 
ENDROOT
BRANCH   6  17
ATOM     17  C   LIG    1       -0.556  -4.148  -3.354  0.00  0.00    +0.047 A 
ATOM     18  C   LIG    1        0.434  -3.525  -4.105  0.00  0.00    +0.027 A 
ATOM     19  C   LIG    1        1.764  -3.728  -3.795  0.00  0.00    +0.022 A 
ATOM     20  C   LIG    1        2.112  -4.552  -2.739  0.00  0.00    +0.041 A 
ATOM     21 CL   LIG    1        3.785  -4.806  -2.353  0.00  0.00    -0.084 Cl
ATOM     22  C   LIG    1        1.129  -5.174  -1.990  0.00  0.00    +0.022 A 
ATOM     23  C   LIG    1       -0.203  -4.970  -2.290  0.00  0.00    +0.027 A 
ENDBRANCH   6  17
BRANCH   1  25
ATOM     24  C   LIG    1        0.091   0.627  -0.708  0.00  0.00    +0.030 C 
ATOM     25  C   LIG    1       -0.832  -0.503  -0.248  0.00  0.00    +0.073 C 
ATOM     26  C   LIG    1       -0.817  -0.585   1.279  0.00  0.00    +0.030 C 
ENDBRANCH   1  25
BRANCH  16  27
ATOM     27  N   LIG    1       -4.924   0.156  -1.343  0.00  0.00    -0.313 N 
ATOM     28  H   LIG    1       -5.328   0.843  -1.895  0.00  0.00    +0.152 HD
BRANCH  27  29
ATOM     29  C   LIG    1       -5.082   0.193   0.045  0.00  0.00    +0.031 A 
ATOM     30  C   LIG    1       -5.754   1.252   0.641  0.00  0.00    +0.024 A 
ATOM     31  C   LIG    1       -5.908   1.286   2.013  0.00  0.00    +0.022 A 
ATOM     32  C   LIG    1       -5.394   0.266   2.794  0.00  0.00    +0.041 A 
ATOM     33 CL   LIG    1       -5.590   0.312   4.518  0.00  0.00    -0.084 Cl
ATOM     34  C   LIG    1       -4.724  -0.791   2.203  0.00  0.00    +0.022 A 
ATOM     35  C   LIG    1       -4.571  -0.833   0.831  0.00  0.00    +0.024 A 
ENDBRANCH  27  29
ENDBRANCH  16  27
TORSDOF 4
