REMARK  Name = ZINC36330562
REMARK                            x       y       z     vdW  Elec       q    Type
REMARK                         _______ _______ _______ _____ _____    ______ ____
ROOT
ATOM      1  N   LIG    1       -4.225  -2.534   2.195  0.00  0.00    -0.296 N 
ATOM      2  H   LIG    1       -4.300  -2.022   3.016  0.00  0.00    +0.151 HD
ATOM      3  C   LIG    1       -4.881  -3.704   2.068  0.00  0.00    +0.300 C 
ATOM      4  N   LIG    1       -5.642  -4.163   3.082  0.00  0.00    -0.294 N 
ATOM      5  H   LIG    1       -5.718  -3.651   3.902  0.00  0.00    +0.151 HD
ATOM      6  O   LIG    1       -4.787  -4.346   1.040  0.00  0.00    -0.253 OA
ENDROOT
BRANCH   4   7
ATOM      7  C   LIG    1       -6.356  -5.435   2.944  0.00  0.00    +0.037 C 
ATOM      8  C   LIG    1       -5.349  -6.561   2.698  0.00  0.00    +0.029 C 
ATOM      9  C   LIG    1       -6.094  -7.889   2.554  0.00  0.00    -0.008 C 
ATOM     10  C   LIG    1       -6.878  -8.176   3.837  0.00  0.00    +0.007 C 
ATOM     11  C   LIG    1       -7.885  -7.050   4.082  0.00  0.00    -0.008 C 
ATOM     12  C   LIG    1       -8.853  -6.966   2.901  0.00  0.00    +0.007 C 
ATOM     13  C   LIG    1       -8.070  -6.679   1.619  0.00  0.00    -0.008 C 
ATOM     14  C   LIG    1       -7.063  -7.805   1.373  0.00  0.00    +0.007 C 
ATOM     15  C   LIG    1       -7.325  -5.351   1.762  0.00  0.00    +0.029 C 
ATOM     16  C   LIG    1       -7.139  -5.722   4.226  0.00  0.00    +0.029 C 
ENDBRANCH   4   7
BRANCH   1  22
ATOM     17  C   LIG    1       -0.018   1.503   0.010  0.00  0.00    +0.109 C 
ATOM     18  C   LIG    1        0.002  -0.004   0.002  0.00  0.00    +0.212 C 
ATOM     19  N   LIG    1       -1.156  -0.694   0.009  0.00  0.00    -0.302 N 
ATOM     20  C   LIG    1       -2.446   0.009   0.019  0.00  0.00    +0.109 C 
ATOM     21  C   LIG    1       -3.283  -0.512   1.192  0.00  0.00    +0.041 C 
ATOM     22  C   LIG    1       -3.397  -2.035   1.094  0.00  0.00    +0.077 C 
ATOM     23  C   LIG    1       -2.003  -2.660   1.180  0.00  0.00    +0.041 C 
ATOM     24  C   LIG    1       -1.152  -2.163   0.001  0.00  0.00    +0.109 C 
ATOM     25  O   LIG    1        1.060  -0.596  -0.011  0.00  0.00    -0.276 OA
ENDBRANCH   1  22
TORSDOF 2
