REMARK  Name = ZINC29043612
REMARK                            x       y       z     vdW  Elec       q    Type
REMARK                         _______ _______ _______ _____ _____    ______ ____
ROOT
ATOM      1  C   LIG    1       -0.137   1.339  -0.054  0.00  0.00    +0.001 A 
ATOM      2  C   LIG    1        1.025   2.091  -0.075  0.00  0.00    +0.002 A 
ATOM      3  C   LIG    1        2.259   1.470  -0.071  0.00  0.00    +0.024 A 
ATOM      4  C   LIG    1        2.339   0.085  -0.045  0.00  0.00    +0.043 A 
ATOM      5  C   LIG    1        1.166  -0.678  -0.023  0.00  0.00    +0.023 A 
ATOM      6  C   LIG    1       -0.072  -0.040  -0.028  0.00  0.00    +0.012 A 
ENDROOT
BRANCH   5   7
ATOM      7  C   LIG    1        1.241  -2.159   0.005  0.00  0.00    +0.092 A 
ATOM      8  C   LIG    1        0.190  -3.010  -0.075  0.00  0.00    +0.122 A 
ATOM      9  N   LIG    1        0.692  -4.306  -0.013  0.00  0.00    -0.296 N 
ATOM     10  C   LIG    1        0.208  -5.596  -0.037  0.00  0.00    +0.046 A 
ATOM     11  C   LIG    1        1.035  -6.637   0.050  0.00  0.00    +0.071 A 
ATOM     12  S   LIG    1        2.626  -5.835   0.179  0.00  0.00    -0.057 S 
ATOM     13  C   LIG    1        2.050  -4.155   0.104  0.00  0.00    +0.178 A 
ATOM     14  N   LIG    1        2.368  -2.893   0.109  0.00  0.00    -0.221 NA
BRANCH  10  15
ATOM     15  C   LIG    1       -1.275  -5.832  -0.164  0.00  0.00    +0.138 C 
BRANCH  15  16
ATOM     16  N   LIG    1       -1.896  -5.770   1.166  0.00  0.00    -0.300 NA
ATOM     17  C   LIG    1       -1.810  -4.414   1.725  0.00  0.00    +0.066 C 
ATOM     18  C   LIG    1       -2.413  -4.406   3.131  0.00  0.00    -0.067 C 
ATOM     19  N   LIG    1       -3.815  -4.838   3.066  0.00  0.00    +0.381 N 
ATOM     20  H   LIG    1       -4.331  -4.214   2.464  0.00  0.00    -0.086 HD
ATOM     21  H   LIG    1       -4.216  -4.821   3.991  0.00  0.00    -0.086 HD
ATOM     22  C   LIG    1       -3.883  -6.204   2.528  0.00  0.00    -0.067 C 
ATOM     23  C   LIG    1       -3.292  -6.227   1.117  0.00  0.00    +0.066 C 
ENDBRANCH  15  16
ENDBRANCH  10  15
ENDBRANCH   5   7
BRANCH   4  24
ATOM     24  N   LIG    1        3.586  -0.545  -0.041  0.00  0.00    -0.280 N 
ATOM     25  H   LIG    1        3.673  -1.450  -0.379  0.00  0.00    +0.155 HD
ATOM     26  C   LIG    1        4.668   0.104   0.433  0.00  0.00    +0.268 C 
ATOM     27  O   LIG    1        4.543   1.198   0.949  0.00  0.00    -0.268 OA
BRANCH  26  28
ATOM     28  C   LIG    1        6.010  -0.515   0.326  0.00  0.00    +0.144 A 
ATOM     29  C   LIG    1        7.134   0.164   0.827  0.00  0.00    +0.144 A 
ATOM     30  N   LIG    1        8.330  -0.369   0.741  0.00  0.00    -0.251 NA
ATOM     31  C   LIG    1        8.483  -1.570   0.171  0.00  0.00    +0.089 A 
ATOM     32  C   LIG    1        9.752  -2.166   0.066  0.00  0.00    +0.030 A 
ATOM     33  C   LIG    1        9.878  -3.388  -0.518  0.00  0.00    +0.002 A 
ATOM     34  C   LIG    1        8.765  -4.065  -1.017  0.00  0.00    +0.002 A 
ATOM     35  C   LIG    1        7.521  -3.522  -0.934  0.00  0.00    +0.030 A 
ATOM     36  C   LIG    1        7.349  -2.259  -0.336  0.00  0.00    +0.090 A 
ATOM     37  N   LIG    1        6.140  -1.704  -0.236  0.00  0.00    -0.239 NA
ENDBRANCH  26  28
ENDBRANCH   4  24
TORSDOF 5
