REMARK  Name = ZINC35379666
REMARK                            x       y       z     vdW  Elec       q    Type
REMARK                         _______ _______ _______ _____ _____    ______ ____
ROOT
ATOM      1  C   LIG    1       -2.643  -4.402  -1.363  0.00  0.00    +0.142 C 
ATOM      2  C   LIG    1       -1.932  -5.755  -1.326  0.00  0.00    +0.033 C 
ATOM      3  C   LIG    1       -2.139  -6.477  -2.660  0.00  0.00    +0.039 C 
ATOM      4  C   LIG    1       -1.966  -5.516  -3.805  0.00  0.00    -0.026 A 
ATOM      5  C   LIG    1       -0.806  -5.526  -4.555  0.00  0.00    +0.005 A 
ATOM      6  C   LIG    1       -0.660  -4.648  -5.613  0.00  0.00    +0.000 A 
ATOM      7  C   LIG    1       -1.672  -3.760  -5.926  0.00  0.00    +0.002 A 
ATOM      8  C   LIG    1       -2.833  -3.742  -5.177  0.00  0.00    +0.024 A 
ATOM      9  C   LIG    1       -2.978  -4.619  -4.112  0.00  0.00    +0.040 A 
ATOM     10  N   LIG    1       -4.136  -4.591  -3.322  0.00  0.00    -0.259 N 
ATOM     11  C   LIG    1       -4.005  -4.539  -1.983  0.00  0.00    +0.237 C 
ATOM     12  O   LIG    1       -4.989  -4.601  -1.276  0.00  0.00    -0.274 OA
ENDROOT
BRANCH   1  13
ATOM     13  N   LIG    1       -2.784  -3.892   0.008  0.00  0.00    -0.293 NA
ATOM     14  H   LIG    1       -2.024  -4.208   0.591  0.00  0.00    +0.123 HD
BRANCH  13  15
ATOM     15  C   LIG    1       -2.881  -2.427   0.017  0.00  0.00    +0.164 C 
BRANCH  15  16
ATOM     16  C   LIG    1       -1.496  -1.832   0.006  0.00  0.00    +0.324 C 
ATOM     17  O   LIG    1       -0.528  -2.555  -0.007  0.00  0.00    -0.249 OA
BRANCH  16  18
ATOM     18  O   LIG    1       -1.339  -0.499   0.012  0.00  0.00    -0.464 OA
BRANCH  18  20
ATOM     19  C   LIG    1       -0.019   1.526   0.010  0.00  0.00    +0.048 C 
ATOM     20  C   LIG    1        0.002  -0.004   0.002  0.00  0.00    +0.229 C 
ENDBRANCH  18  20
ENDBRANCH  16  18
ENDBRANCH  15  16
BRANCH  15  21
ATOM     21  C   LIG    1       -3.622  -1.972   1.275  0.00  0.00    +0.035 C 
BRANCH  21  22
ATOM     22  C   LIG    1       -5.067  -2.473   1.225  0.00  0.00    +0.037 C 
BRANCH  22  23
ATOM     23  C   LIG    1       -5.797  -2.025   2.465  0.00  0.00    -0.047 A 
ATOM     24  C   LIG    1       -5.798  -2.824   3.593  0.00  0.00    +0.003 A 
ATOM     25  C   LIG    1       -6.468  -2.413   4.731  0.00  0.00    +0.000 A 
ATOM     26  C   LIG    1       -7.136  -1.203   4.740  0.00  0.00    +0.000 A 
ATOM     27  C   LIG    1       -7.135  -0.404   3.612  0.00  0.00    +0.000 A 
ATOM     28  C   LIG    1       -6.462  -0.813   2.476  0.00  0.00    +0.003 A 
ENDBRANCH  22  23
ENDBRANCH  21  22
ENDBRANCH  15  21
ENDBRANCH  13  15
ENDBRANCH   1  13
BRANCH  10  29
ATOM     29  C   LIG    1       -5.463  -4.620  -3.942  0.00  0.00    +0.234 C 
BRANCH  29  30
ATOM     30  C   LIG    1       -5.913  -6.050  -4.098  0.00  0.00    +0.323 C 
ATOM     31  O   LIG    1       -5.192  -6.960  -3.727  0.00  0.00    -0.249 OA
BRANCH  30  32
ATOM     32  O   LIG    1       -6.998  -6.296  -4.597  0.00  0.00    -0.480 OA
ATOM     33  H   LIG    1       -7.552  -5.596  -4.883  0.00  0.00    +0.295 HD
ENDBRANCH  30  32
ENDBRANCH  29  30
ENDBRANCH  10  29
TORSDOF 11
