REMARK  Name = ZINC19418959
REMARK                            x       y       z     vdW  Elec       q    Type
REMARK                         _______ _______ _______ _____ _____    ______ ____
ROOT
ATOM      1  N   LIG    1        3.347  -6.422   2.154  0.00  0.00    -0.298 N 
ATOM      2  C   LIG    1        2.795  -6.576   3.423  0.00  0.00    +0.048 A 
ATOM      3  C   LIG    1        1.644  -5.863   3.744  0.00  0.00    +0.024 A 
ATOM      4  C   LIG    1        1.066  -5.997   4.992  0.00  0.00    +0.002 A 
ATOM      5  C   LIG    1        1.627  -6.840   5.932  0.00  0.00    +0.001 A 
ATOM      6  C   LIG    1        2.772  -7.552   5.625  0.00  0.00    +0.017 A 
ATOM      7  C   LIG    1        3.359  -7.421   4.374  0.00  0.00    +0.034 A 
ATOM      8  S   LIG    1        4.822  -8.329   4.004  0.00  0.00    -0.086 S 
ATOM      9  C   LIG    1        5.478  -7.517   2.584  0.00  0.00    +0.034 A 
ATOM     10  C   LIG    1        6.800  -7.736   2.222  0.00  0.00    +0.017 A 
ATOM     11  C   LIG    1        7.326  -7.118   1.109  0.00  0.00    +0.013 A 
ATOM     12  C   LIG    1        6.539  -6.266   0.357  0.00  0.00    +0.057 A 
ATOM     13  C   LIG    1        5.222  -6.041   0.713  0.00  0.00    +0.037 A 
ATOM     14  C   LIG    1        4.678  -6.668   1.828  0.00  0.00    +0.048 A 
ENDROOT
BRANCH  12  15
ATOM     15  C   LIG    1        7.118  -5.581  -0.854  0.00  0.00    +0.417 C 
ATOM     16  F   LIG    1        6.106  -5.363  -1.795  0.00  0.00    -0.166 F 
ATOM     17  F   LIG    1        8.111  -6.390  -1.417  0.00  0.00    -0.166 F 
ATOM     18  F   LIG    1        7.674  -4.355  -0.474  0.00  0.00    -0.166 F 
ENDBRANCH  12  15
BRANCH   1  19
ATOM     19  C   LIG    1        2.459  -5.972   1.079  0.00  0.00    +0.112 C 
BRANCH  19  20
ATOM     20  C   LIG    1        2.476  -4.444   1.010  0.00  0.00    +0.035 C 
BRANCH  20  21
ATOM     21  C   LIG    1        1.549  -3.974  -0.113  0.00  0.00    +0.086 C 
BRANCH  21  27
ATOM     22  C   LIG    1        0.420   1.543  -0.319  0.00  0.00    -0.096 C 
ATOM     23  N   LIG    1        0.349   0.077  -0.250  0.00  0.00    +0.379 N 
ATOM     24  H   LIG    1       -0.617  -0.210  -0.201  0.00  0.00    -0.082 HD
ATOM     25  C   LIG    1        0.970  -0.500  -1.450  0.00  0.00    -0.064 C 
ATOM     26  C   LIG    1        0.879  -2.026  -1.387  0.00  0.00    +0.066 C 
ATOM     27  N   LIG    1        1.565  -2.506  -0.180  0.00  0.00    -0.306 NA
ATOM     28  C   LIG    1        0.970  -1.917   1.028  0.00  0.00    +0.066 C 
ATOM     29  C   LIG    1        1.060  -0.392   0.946  0.00  0.00    -0.064 C 
ENDBRANCH  21  27
ENDBRANCH  20  21
ENDBRANCH  19  20
ENDBRANCH   1  19
TORSDOF 5
