REMARK  Name = ZINC14975027
REMARK                            x       y       z     vdW  Elec       q    Type
REMARK                         _______ _______ _______ _____ _____    ______ ____
ROOT
ATOM      1  C   LIG    1        5.814   3.477  -2.510  0.00  0.00    +0.037 A 
ATOM      2  C   LIG    1        5.127   3.080  -3.659  0.00  0.00    +0.046 A 
ATOM      3  C   LIG    1        3.948   2.379  -3.529  0.00  0.00    +0.044 A 
ATOM      4  C   LIG    1        3.200   1.948  -4.764  0.00  0.00    +0.066 C 
ATOM      5  N   LIG    1        3.465   2.079  -2.337  0.00  0.00    -0.217 NA
ATOM      6  C   LIG    1        4.085   2.435  -1.222  0.00  0.00    +0.225 A 
ATOM      7  C   LIG    1        5.273   3.148  -1.270  0.00  0.00    +0.032 A 
ATOM      8  C   LIG    1        5.971   3.557   0.002  0.00  0.00    +0.051 C 
ENDROOT
BRANCH   1   9
ATOM      9  N   LIG    1        7.008   4.187  -2.601  0.00  0.00    -0.341 N 
ATOM     10  H   LIG    1        7.537   4.492  -1.687  0.00  0.00    +0.146 HD
BRANCH   9  11
ATOM     11  C   LIG    1        7.558   4.528  -3.915  0.00  0.00    +0.070 C 
BRANCH  11  13
ATOM     12  C   LIG    1        5.423   5.599  -4.649  0.00  0.00    +0.006 C 
ATOM     13  C   LIG    1        6.918   5.825  -4.415  0.00  0.00    +0.019 C 
ENDBRANCH  11  13
BRANCH  11  14
ATOM     14  C   LIG    1        9.072   4.717  -3.801  0.00  0.00    +0.019 C 
ATOM     15  C   LIG    1        9.725   3.386  -3.421  0.00  0.00    +0.006 C 
ENDBRANCH  11  14
ENDBRANCH   9  11
ENDBRANCH   1   9
BRANCH   6  16
ATOM     16  O   LIG    1        3.549   2.103  -0.021  0.00  0.00    -0.437 OA
BRANCH  16  17
ATOM     17  C   LIG    1        2.380   1.409  -0.014  0.00  0.00    +0.136 A 
ATOM     18  C   LIG    1        1.169   2.087   0.002  0.00  0.00    -0.008 A 
ATOM     19  C   LIG    1        1.148   3.593   0.010  0.00  0.00    +0.047 C 
ATOM     20  C   LIG    1       -0.017   1.379   0.010  0.00  0.00    +0.010 A 
ATOM     21  C   LIG    1        0.002  -0.004   0.002  0.00  0.00    -0.050 A 
ATOM     22  C   LIG    1       -1.293  -0.774   0.010  0.00  0.00    +0.044 C 
ATOM     23  C   LIG    1        1.207  -0.681  -0.013  0.00  0.00    +0.010 A 
ATOM     24  C   LIG    1        2.396   0.022  -0.021  0.00  0.00    -0.008 A 
ATOM     25  C   LIG    1        3.710  -0.717  -0.038  0.00  0.00    +0.047 C 
ENDBRANCH  16  17
ENDBRANCH   6  16
TORSDOF 6
