REMARK  Name = ZINC34924544
REMARK                            x       y       z     vdW  Elec       q    Type
REMARK                         _______ _______ _______ _____ _____    ______ ____
ROOT
ATOM      1  C   LIG    1        0.679  -2.115   1.088  0.00  0.00    +0.168 C 
ATOM      2  C   LIG    1        1.799  -2.619   0.169  0.00  0.00    +0.067 C 
ATOM      3  C   LIG    1        2.014  -4.084   0.455  0.00  0.00    -0.016 A 
ATOM      4  C   LIG    1        2.713  -5.078  -0.327  0.00  0.00    +0.003 A 
ATOM      5  C   LIG    1        3.393  -5.022  -1.549  0.00  0.00    +0.010 A 
ATOM      6  C   LIG    1        3.951  -6.190  -2.003  0.00  0.00    +0.001 A 
ATOM      7  C   LIG    1        3.854  -7.377  -1.296  0.00  0.00    +0.002 A 
ATOM      8  C   LIG    1        3.188  -7.462  -0.085  0.00  0.00    +0.026 A 
ATOM      9  C   LIG    1        2.611  -6.292   0.402  0.00  0.00    +0.047 A 
ATOM     10  N   LIG    1        1.898  -6.026   1.536  0.00  0.00    -0.357 N 
ATOM     11  H   LIG    1        1.676  -6.676   2.221  0.00  0.00    +0.166 HD
ATOM     12  C   LIG    1        1.544  -4.705   1.562  0.00  0.00    +0.034 A 
ATOM     13  C   LIG    1        0.755  -3.990   2.633  0.00  0.00    +0.135 C 
ATOM     14  N   LIG    1        0.950  -2.541   2.469  0.00  0.00    -0.298 NA
ATOM     15  H   LIG    1        1.878  -2.266   2.756  0.00  0.00    +0.123 HD
ENDROOT
BRANCH   1  16
ATOM     16  C   LIG    1        0.618  -0.611   1.029  0.00  0.00    +0.324 C 
ATOM     17  O   LIG    1        1.124   0.049   1.905  0.00  0.00    -0.249 OA
BRANCH  16  19
ATOM     18  C   LIG    1       -0.017   1.425   0.010  0.00  0.00    +0.280 C 
ATOM     19  O   LIG    1        0.002  -0.004   0.002  0.00  0.00    -0.467 OA
ENDBRANCH  16  19
ENDBRANCH   1  16
TORSDOF 2
