REMARK  Name = ZINC27322680
REMARK                            x       y       z     vdW  Elec       q    Type
REMARK                         _______ _______ _______ _____ _____    ______ ____
ROOT
ATOM      1  C   LIG    1       -0.109   1.057  -2.412  0.00  0.00    +0.105 C 
ATOM      2  N   LIG    1       -0.724   1.573  -1.182  0.00  0.00    -0.302 NA
ATOM      3  C   LIG    1       -0.013   1.086   0.008  0.00  0.00    +0.103 C 
ATOM      4  C   LIG    1       -0.730   1.580   1.267  0.00  0.00    +0.122 C 
ATOM      5  N   LIG    1       -0.783   3.048   1.252  0.00  0.00    -0.313 N 
ATOM      6  C   LIG    1       -1.495   3.536   0.062  0.00  0.00    +0.122 C 
ATOM      7  C   LIG    1       -0.777   3.042  -1.196  0.00  0.00    +0.103 C 
ENDROOT
BRANCH   5   8
ATOM      8  C   LIG    1       -1.366   3.537   2.416  0.00  0.00    +0.123 A 
ATOM      9  C   LIG    1       -0.837   3.183   3.653  0.00  0.00    +0.044 A 
ATOM     10  C   LIG    1       -1.422   3.680   4.803  0.00  0.00    +0.006 A 
ATOM     11  C   LIG    1       -2.528   4.510   4.678  0.00  0.00    +0.040 A 
ATOM     12  C   LIG    1       -3.005   4.817   3.418  0.00  0.00    +0.131 A 
ATOM     13 CL   LIG    1       -4.388   5.854   3.254  0.00  0.00    -0.062 Cl
ATOM     14  N   LIG    1       -2.422   4.331   2.337  0.00  0.00    -0.221 NA
ENDBRANCH   5   8
TORSDOF 1
