REMARK  Name = ZINC52962012
REMARK                            x       y       z     vdW  Elec       q    Type
REMARK                         _______ _______ _______ _____ _____    ______ ____
ROOT
ATOM      1  N   LIG    1        6.700  -5.362   4.053  0.00  0.00    -0.340 N 
ATOM      2  H   LIG    1        7.125  -5.101   3.221  0.00  0.00    +0.146 HD
ENDROOT
BRANCH   1   3
ATOM      3  C   LIG    1        6.438  -6.692   4.304  0.00  0.00    +0.079 C 
ATOM      4  C   LIG    1        5.251  -7.299   3.848  0.00  0.00    +0.026 C 
ATOM      5  C   LIG    1        4.298  -6.565   3.121  0.00  0.00    +0.007 C 
ATOM      6  C   LIG    1        3.161  -7.177   2.692  0.00  0.00    +0.000 C 
ATOM      7  C   LIG    1        2.927  -8.525   2.964  0.00  0.00    +0.002 C 
ATOM      8  C   LIG    1        3.826  -9.266   3.664  0.00  0.00    +0.019 C 
ATOM      9  C   LIG    1        5.018  -8.671   4.127  0.00  0.00    +0.059 C 
ATOM     10  N   LIG    1        5.907  -9.387   4.813  0.00  0.00    -0.310 NA
ATOM     11  H   LIG    1        5.723 -10.323   4.989  0.00  0.00    +0.122 HD
ATOM     12  C   LIG    1        7.042  -8.855   5.264  0.00  0.00    +0.059 C 
ATOM     13  C   LIG    1        7.961  -9.642   5.988  0.00  0.00    +0.019 C 
ATOM     14  C   LIG    1        9.122  -9.091   6.430  0.00  0.00    +0.002 C 
ATOM     15  C   LIG    1        9.419  -7.749   6.194  0.00  0.00    +0.000 C 
ATOM     16  C   LIG    1        8.556  -6.955   5.504  0.00  0.00    +0.007 C 
ATOM     17  C   LIG    1        7.350  -7.491   5.022  0.00  0.00    +0.026 C 
ENDBRANCH   1   3
BRANCH   1  21
ATOM     18  C   LIG    1        5.666  -2.465   6.866  0.00  0.00    +0.030 A 
ATOM     19  C   LIG    1        6.382  -2.107   5.731  0.00  0.00    +0.025 A 
ATOM     20  C   LIG    1        6.724  -3.066   4.800  0.00  0.00    +0.025 A 
ATOM     21  C   LIG    1        6.354  -4.390   4.997  0.00  0.00    +0.027 A 
ATOM     22  C   LIG    1        5.638  -4.748   6.133  0.00  0.00    +0.025 A 
ATOM     23  C   LIG    1        5.300  -3.790   7.067  0.00  0.00    +0.025 A 
BRANCH  18  27
ATOM     24  N   LIG    1        3.869   0.548   9.035  0.00  0.00    -0.300 NA
ATOM     25  C   LIG    1        4.602   0.838   7.795  0.00  0.00    +0.103 C 
ATOM     26  C   LIG    1        5.802  -0.109   7.682  0.00  0.00    +0.120 C 
ATOM     27  N   LIG    1        5.319  -1.493   7.811  0.00  0.00    -0.327 N 
ATOM     28  C   LIG    1        4.462  -1.827   8.958  0.00  0.00    +0.120 C 
ATOM     29  C   LIG    1        3.315  -0.812   9.021  0.00  0.00    +0.103 C 
BRANCH  24  31
ATOM     30  C   LIG    1        3.451   2.911   9.523  0.00  0.00    +0.020 C 
ATOM     31  C   LIG    1        2.814   1.544   9.267  0.00  0.00    +0.081 C 
ENDBRANCH  24  31
ENDBRANCH  18  27
ENDBRANCH   1  21
TORSDOF 4
