REMARK  Name = ZINC14828480
REMARK                            x       y       z     vdW  Elec       q    Type
REMARK                         _______ _______ _______ _____ _____    ______ ____
ROOT
ATOM      1  C   LIG    1        1.588  -2.816   5.436  0.00  0.00    +0.145 C 
ATOM      2  N   LIG    1        0.366  -2.436   5.253  0.00  0.00    -0.087 NA
ENDROOT
BRANCH   1   3
ATOM      3  C   LIG    1        1.976  -3.467   6.702  0.00  0.00    +0.262 C 
ATOM      4  N   LIG    1        3.269  -3.769   6.936  0.00  0.00    -0.310 N 
ATOM      5  H   LIG    1        3.953  -3.493   6.307  0.00  0.00    +0.149 HD
ATOM      6  O   LIG    1        1.130  -3.731   7.534  0.00  0.00    -0.269 OA
BRANCH   4   7
ATOM      7  C   LIG    1        3.640  -4.514   8.141  0.00  0.00    +0.110 C 
BRANCH   7   8
ATOM      8  C   LIG    1        5.156  -4.723   8.165  0.00  0.00    +0.073 C 
BRANCH   8   9
ATOM      9  C   LIG    1        5.538  -5.490   9.404  0.00  0.00    +0.035 A 
ATOM     10  C   LIG    1        5.762  -4.963  10.623  0.00  0.00    +0.105 A 
ATOM     11  N   LIG    1        6.080  -6.005  11.453  0.00  0.00    -0.352 N 
ATOM     12  C   LIG    1        6.039  -7.133  10.711  0.00  0.00    +0.171 A 
ATOM     13  H   LIG    1        6.294  -5.944  12.397  0.00  0.00    +0.166 HD
ATOM     14  N   LIG    1        5.709  -6.818   9.488  0.00  0.00    -0.350 N 
ATOM     15  H   LIG    1        5.606  -7.445   8.755  0.00  0.00    +0.166 HD
ENDBRANCH   8   9
ENDBRANCH   7   8
ENDBRANCH   4   7
ENDBRANCH   1   3
BRANCH   2  16
ATOM     16  O   LIG    1       -0.623  -2.741   6.219  0.00  0.00    -0.409 OA
ATOM     17  H   LIG    1       -1.506  -2.416   5.995  0.00  0.00    +0.328 HD
ENDBRANCH   2  16
BRANCH   1  18
ATOM     18  C   LIG    1        2.616  -2.595   4.356  0.00  0.00    +0.099 C 
BRANCH  18  22
ATOM     19  C   LIG    1        0.777  -0.674   1.010  0.00  0.00    +0.134 A 
ATOM     20  C   LIG    1        1.340   0.086   2.025  0.00  0.00    +0.047 A 
ATOM     21  C   LIG    1        1.933  -0.537   3.106  0.00  0.00    +0.007 A 
ATOM     22  C   LIG    1        1.967  -1.918   3.176  0.00  0.00    -0.040 A 
ATOM     23  C   LIG    1        1.408  -2.678   2.166  0.00  0.00    +0.023 A 
ATOM     24  C   LIG    1        0.807  -2.059   1.086  0.00  0.00    +0.060 A 
ATOM     25 BR   LIG    1        0.035  -3.099  -0.292  0.00  0.00    -0.047 Br
BRANCH  19  27
ATOM     26  C   LIG    1        0.199   1.367  -0.065  0.00  0.00    +0.277 C 
ATOM     27  O   LIG    1        0.193  -0.062  -0.054  0.00  0.00    -0.494 OA
ENDBRANCH  19  27
ENDBRANCH  18  22
ENDBRANCH   1  18
TORSDOF 8
