REMARK  Name = ZINC53275074
REMARK                            x       y       z     vdW  Elec       q    Type
REMARK                         _______ _______ _______ _____ _____    ______ ____
ROOT
ATOM      1  N   LIG    1        5.944  -4.037  -1.477  0.00  0.00    -0.295 NA
ATOM      2  C   LIG    1        4.660  -4.233  -2.164  0.00  0.00    +0.103 C 
ATOM      3  C   LIG    1        4.917  -4.508  -3.650  0.00  0.00    +0.120 C 
ATOM      4  N   LIG    1        5.860  -5.631  -3.761  0.00  0.00    -0.327 N 
ATOM      5  C   LIG    1        7.111  -5.568  -2.990  0.00  0.00    +0.120 C 
ATOM      6  C   LIG    1        6.768  -5.252  -1.530  0.00  0.00    +0.103 C 
ENDROOT
BRANCH   4   7
ATOM      7  C   LIG    1        5.575  -6.729  -4.577  0.00  0.00    +0.030 A 
ATOM      8  C   LIG    1        4.342  -6.825  -5.209  0.00  0.00    +0.026 A 
ATOM      9  C   LIG    1        4.062  -7.911  -6.016  0.00  0.00    +0.040 A 
ATOM     10  C   LIG    1        5.011  -8.904  -6.195  0.00  0.00    +0.124 A 
ATOM     11  F   LIG    1        4.735  -9.965  -6.984  0.00  0.00    -0.205 F 
ATOM     12  C   LIG    1        6.241  -8.811  -5.566  0.00  0.00    +0.040 A 
ATOM     13  C   LIG    1        6.527  -7.724  -4.763  0.00  0.00    +0.026 A 
ENDBRANCH   4   7
BRANCH   1  14
ATOM     14  C   LIG    1        5.736  -3.602  -0.089  0.00  0.00    +0.122 C 
BRANCH  14  17
ATOM     15  N   LIG    1        3.624  -0.627  -0.071  0.00  0.00    -0.240 N 
ATOM     16  C   LIG    1        3.776  -1.970  -0.081  0.00  0.00    +0.119 A 
ATOM     17  C   LIG    1        5.104  -2.234  -0.081  0.00  0.00    +0.004 A 
ATOM     18  C   LIG    1        5.785  -1.012  -0.071  0.00  0.00    +0.139 A 
ATOM     19  N   LIG    1        4.899  -0.049  -0.071  0.00  0.00    -0.174 NA
BRANCH  15  23
ATOM     20  C   LIG    1       -0.002   1.430  -0.064  0.00  0.00    +0.000 A 
ATOM     21  C   LIG    1        1.189   2.132  -0.062  0.00  0.00    +0.002 A 
ATOM     22  C   LIG    1        2.392   1.453  -0.065  0.00  0.00    +0.028 A 
ATOM     23  C   LIG    1        2.404   0.065  -0.069  0.00  0.00    +0.065 A 
ATOM     24  C   LIG    1        1.206  -0.637  -0.070  0.00  0.00    +0.028 A 
ATOM     25  C   LIG    1        0.007   0.047  -0.068  0.00  0.00    +0.002 A 
ENDBRANCH  15  23
ENDBRANCH  14  17
ENDBRANCH   1  14
TORSDOF 4
