REMARK  Name = ZINC28824594
REMARK                            x       y       z     vdW  Elec       q    Type
REMARK                         _______ _______ _______ _____ _____    ______ ____
ROOT
ATOM      1  C   LIG    1       -3.288   2.466   0.025  0.00  0.00    +0.141 A 
ATOM      2  N   LIG    1       -2.511   3.594   0.042  0.00  0.00    -0.208 NA
ATOM      3  C   LIG    1       -1.193   3.186   0.029  0.00  0.00    +0.178 A 
ATOM      4  N   LIG    1       -0.038   3.831   0.026  0.00  0.00    -0.233 NA
ATOM      5  C   LIG    1        1.112   3.188   0.017  0.00  0.00    +0.128 A 
ATOM      6  C   LIG    1        1.164   1.802   0.010  0.00  0.00    +0.038 A 
ATOM      7 BR   LIG    1        2.833   0.913  -0.004  0.00  0.00    -0.049 Br
ATOM      8  C   LIG    1       -0.013   1.076   0.008  0.00  0.00    +0.046 A 
ATOM      9  C   LIG    1       -1.222   1.778   0.017  0.00  0.00    +0.087 A 
ATOM     10  N   LIG    1       -2.523   1.401   0.018  0.00  0.00    -0.337 N 
ATOM     11  H   LIG    1       -2.785   0.332   0.013  0.00  0.00    +0.167 HD
ENDROOT
BRANCH   1  15
ATOM     12  C   LIG    1       -7.536   2.424   0.006  0.00  0.00    +0.029 A 
ATOM     13  C   LIG    1       -6.830   1.225   0.008  0.00  0.00    +0.024 A 
ATOM     14  C   LIG    1       -5.453   1.235   0.014  0.00  0.00    +0.013 A 
ATOM     15  C   LIG    1       -4.765   2.451   0.018  0.00  0.00    +0.017 A 
ATOM     16  C   LIG    1       -5.477   3.653   0.022  0.00  0.00    +0.013 A 
ATOM     17  C   LIG    1       -6.854   3.636   0.010  0.00  0.00    +0.024 A 
BRANCH  12  19
ATOM     18  C   LIG    1       -9.650   1.134  -0.006  0.00  0.00    +0.129 C 
ATOM     19  N   LIG    1       -8.930   2.410  -0.001  0.00  0.00    -0.336 N 
ATOM     20  C   LIG    1       -9.675   3.672  -0.003  0.00  0.00    +0.129 C 
ENDBRANCH  12  19
ENDBRANCH   1  15
TORSDOF 2
