REMARK  Name = ZINC00033901
REMARK                            x       y       z     vdW  Elec       q    Type
REMARK                         _______ _______ _______ _____ _____    ______ ____
ROOT
ATOM      1  C   LIG    1       -2.487   4.228  -0.495  0.00  0.00    +0.124 C 
ATOM      2  N   LIG    1       -2.332   3.884   0.751  0.00  0.00    -0.178 NA
ATOM      3  N   LIG    1       -1.820   2.658   1.136  0.00  0.00    -0.239 N 
ATOM      4  H   LIG    1       -1.707   2.408   2.067  0.00  0.00    +0.170 HD
ATOM      5  C   LIG    1       -1.463   1.768   0.032  0.00  0.00    +0.203 C 
ATOM      6  C   LIG    1       -0.017   1.390   0.010  0.00  0.00    +0.018 A 
ATOM      7  C   LIG    1        1.160   2.105   0.002  0.00  0.00    +0.009 A 
ATOM      8  C   LIG    1        2.374   1.443  -0.013  0.00  0.00    +0.000 A 
ATOM      9  C   LIG    1        2.405   0.060  -0.020  0.00  0.00    +0.002 A 
ATOM     10  C   LIG    1        1.229  -0.662  -0.012  0.00  0.00    +0.024 A 
ATOM     11  C   LIG    1        0.002  -0.004   0.002  0.00  0.00    +0.043 A 
ATOM     12  N   LIG    1       -1.302  -0.506   0.011  0.00  0.00    -0.271 N 
ATOM     13  C   LIG    1       -1.630  -1.934   0.004  0.00  0.00    +0.138 C 
ATOM     14  C   LIG    1       -2.225   0.479   0.026  0.00  0.00    +0.260 C 
ATOM     15  O   LIG    1       -3.431   0.346   0.036  0.00  0.00    -0.271 OA
ATOM     16  S   LIG    1       -1.908   2.805  -1.409  0.00  0.00    -0.063 S 
ENDROOT
BRANCH   1  21
ATOM     17  C   LIG    1       -4.558   9.178  -2.575  0.00  0.00    +0.044 C 
ATOM     18  C   LIG    1       -4.016   7.882  -2.031  0.00  0.00    -0.050 A 
ATOM     19  C   LIG    1       -3.925   7.694  -0.663  0.00  0.00    +0.004 A 
ATOM     20  C   LIG    1       -3.429   6.510  -0.158  0.00  0.00    +0.011 A 
ATOM     21  C   LIG    1       -3.020   5.500  -1.030  0.00  0.00    +0.008 A 
ATOM     22  C   LIG    1       -3.110   5.698  -2.408  0.00  0.00    +0.011 A 
ATOM     23  C   LIG    1       -3.612   6.885  -2.900  0.00  0.00    +0.004 A 
ENDBRANCH   1  21
TORSDOF 1
