REMARK  Name = ZINC14953618
REMARK                            x       y       z     vdW  Elec       q    Type
REMARK                         _______ _______ _______ _____ _____    ______ ____
ROOT
ATOM      1  N   LIG    1        0.412  -2.417  -2.153  0.00  0.00    -0.302 N 
ATOM      2  H   LIG    1        1.364  -2.540  -2.014  0.00  0.00    +0.150 HD
ATOM      3  C   LIG    1       -0.113  -2.554  -3.387  0.00  0.00    +0.214 C 
ATOM      4  O   LIG    1       -1.303  -2.400  -3.561  0.00  0.00    -0.276 OA
ENDROOT
BRANCH   1   5
ATOM      5  C   LIG    1       -0.456  -2.081  -1.022  0.00  0.00    +0.182 C 
BRANCH   5   6
ATOM      6  C   LIG    1       -0.637  -0.586  -0.954  0.00  0.00    +0.327 C 
ATOM      7  O   LIG    1       -0.097   0.125  -1.768  0.00  0.00    -0.249 OA
BRANCH   6   9
ATOM      8  C   LIG    1       -1.526   1.378   0.014  0.00  0.00    +0.280 C 
ATOM      9  O   LIG    1       -1.399  -0.045   0.010  0.00  0.00    -0.467 OA
ENDBRANCH   6   9
ENDBRANCH   5   6
BRANCH   5  10
ATOM     10  C   LIG    1        0.184  -2.576   0.277  0.00  0.00    +0.037 C 
BRANCH  10  11
ATOM     11  C   LIG    1        0.254  -4.104   0.260  0.00  0.00    +0.039 C 
BRANCH  11  12
ATOM     12  C   LIG    1        0.894  -4.600   1.558  0.00  0.00    +0.196 C 
BRANCH  12  13
ATOM     13  N   LIG    1        0.961  -6.063   1.542  0.00  0.00    -0.279 N 
ATOM     14  H   LIG    1        0.624  -6.556   0.778  0.00  0.00    +0.258 HD
BRANCH  13  15
ATOM     15  C   LIG    1        1.499  -6.735   2.606  0.00  0.00    +0.341 C 
ATOM     16  N   LIG    1        1.560  -8.065   2.591  0.00  0.00    -0.292 N 
ATOM     17  H   LIG    1        1.941  -8.542   3.345  0.00  0.00    +0.255 HD
ATOM     18  H   LIG    1        1.223  -8.558   1.827  0.00  0.00    +0.255 HD
BRANCH  15  19
ATOM     19  N   LIG    1        1.962  -6.059   3.655  0.00  0.00    -0.292 N 
ATOM     20  H   LIG    1        2.343  -6.535   4.410  0.00  0.00    +0.255 HD
ATOM     21  H   LIG    1        1.918  -5.090   3.666  0.00  0.00    +0.255 HD
ENDBRANCH  15  19
ENDBRANCH  13  15
ENDBRANCH  12  13
ENDBRANCH  11  12
ENDBRANCH  10  11
ENDBRANCH   5  10
ENDBRANCH   1   5
BRANCH   3  22
ATOM     22  C   LIG    1        0.780  -2.900  -4.551  0.00  0.00    +0.096 C 
BRANCH  22  23
ATOM     23  C   LIG    1       -0.060  -2.996  -5.827  0.00  0.00    +0.014 C 
BRANCH  23  24
ATOM     24  C   LIG    1        0.847  -3.347  -7.008  0.00  0.00    +0.038 C 
BRANCH  24  25
ATOM     25  C   LIG    1        0.005  -3.559  -8.241  0.00  0.00    -0.014 A 
ATOM     26  C   LIG    1       -0.292  -2.567  -9.273  0.00  0.00    +0.009 A 
ATOM     27  C   LIG    1        0.061  -1.226  -9.455  0.00  0.00    +0.048 A 
ATOM     28  C   LIG    1       -0.393  -0.546 -10.564  0.00  0.00    +0.127 A 
ATOM     29  F   LIG    1       -0.055   0.749 -10.743  0.00  0.00    -0.205 F 
ATOM     30  C   LIG    1       -1.199  -1.186 -11.499  0.00  0.00    +0.078 A 
ATOM     31  C   LIG    1       -1.555  -2.508 -11.333  0.00  0.00    +0.150 A 
ATOM     32  F   LIG    1       -2.339  -3.118 -12.249  0.00  0.00    -0.203 F 
ATOM     33  C   LIG    1       -1.106  -3.214 -10.220  0.00  0.00    +0.083 A 
ATOM     34  N   LIG    1       -1.290  -4.512  -9.788  0.00  0.00    -0.352 N 
ATOM     35  H   LIG    1       -1.812  -5.185 -10.251  0.00  0.00    +0.166 HD
ATOM     36  C   LIG    1       -0.615  -4.708  -8.606  0.00  0.00    +0.051 A 
BRANCH  36  37
ATOM     37  C   LIG    1       -0.575  -5.978  -7.848  0.00  0.00    -0.001 A 
ATOM     38  C   LIG    1        0.643  -6.479  -7.384  0.00  0.00    +0.010 A 
ATOM     39  C   LIG    1        0.673  -7.663  -6.678  0.00  0.00    +0.001 A 
ATOM     40  C   LIG    1       -0.499  -8.354  -6.428  0.00  0.00    +0.000 A 
ATOM     41  C   LIG    1       -1.709  -7.863  -6.885  0.00  0.00    +0.001 A 
ATOM     42  C   LIG    1       -1.754  -6.676  -7.588  0.00  0.00    +0.010 A 
ENDBRANCH  36  37
ENDBRANCH  24  25
ENDBRANCH  23  24
ENDBRANCH  22  23
ENDBRANCH   3  22
TORSDOF 14
