REMARK  Name = ZINC16990429
REMARK                            x       y       z     vdW  Elec       q    Type
REMARK                         _______ _______ _______ _____ _____    ______ ____
ROOT
ATOM      1  C   LIG    1        0.421  -5.045   0.251  0.00  0.00    +0.059 A 
ATOM      2  C   LIG    1        1.819  -5.033   0.246  0.00  0.00    +0.015 A 
ATOM      3  C   LIG    1        2.492  -3.848   0.156  0.00  0.00    +0.009 A 
ATOM      4  C   LIG    1        1.781  -2.644   0.068  0.00  0.00    -0.024 A 
ATOM      5  C   LIG    1        0.381  -2.657   0.079  0.00  0.00    +0.009 A 
ATOM      6  C   LIG    1       -0.290  -3.844   0.164  0.00  0.00    +0.015 A 
ENDROOT
BRANCH   4   7
ATOM      7  C   LIG    1        2.504  -1.369  -0.029  0.00  0.00    +0.028 C 
ATOM      8  C   LIG    1        1.857  -0.252  -0.444  0.00  0.00    +0.080 C 
ATOM      9  C   LIG    1        2.323   1.153  -0.476  0.00  0.00    +0.258 C 
ATOM     10  N   LIG    1        1.466   2.048  -0.938  0.00  0.00    -0.243 N 
ATOM     11  H   LIG    1        1.730   2.981  -0.977  0.00  0.00    +0.159 HD
ATOM     12  C   LIG    1        0.234   1.695  -1.357  0.00  0.00    +0.283 C 
ATOM     13  O   LIG    1       -0.644   2.408  -1.804  0.00  0.00    -0.262 OA
ATOM     14  O   LIG    1        3.435   1.467  -0.097  0.00  0.00    -0.269 OA
ATOM     15  S   LIG    1        0.205  -0.072  -1.104  0.00  0.00    -0.026 S 
ENDBRANCH   4   7
BRANCH   1  16
ATOM     16  C   LIG    1       -0.305  -6.326   0.348  0.00  0.00    +0.339 C 
ATOM     17  O   LIG    1        0.312  -7.370   0.424  0.00  0.00    -0.245 OA
BRANCH  16  19
ATOM     18  C   LIG    1       -2.300  -7.635   0.451  0.00  0.00    +0.280 C 
ATOM     19  O   LIG    1       -1.653  -6.338   0.353  0.00  0.00    -0.464 OA
ENDBRANCH  16  19
ENDBRANCH   1  16
TORSDOF 3
