REMARK  Name = ZINC32779618
REMARK                            x       y       z     vdW  Elec       q    Type
REMARK                         _______ _______ _______ _____ _____    ______ ____
ROOT
ATOM      1  N   LIG    1       -1.156  -0.694   0.009  0.00  0.00    -0.295 N 
ATOM      2  H   LIG    1       -1.141  -1.794  -0.002  0.00  0.00    +0.151 HD
ATOM      3  C   LIG    1        0.002  -0.004   0.002  0.00  0.00    +0.303 C 
ATOM      4  N   LIG    1        1.177  -0.659   0.089  0.00  0.00    -0.283 N 
ATOM      5  C   LIG    1        2.446   0.078   0.186  0.00  0.00    +0.124 C 
ATOM      6  C   LIG    1        3.233  -0.474   1.386  0.00  0.00    +0.103 C 
ATOM      7  N   LIG    1        3.370  -1.930   1.247  0.00  0.00    -0.296 NA
ATOM      8  C   LIG    1        2.060  -2.594   1.280  0.00  0.00    +0.103 C 
ATOM      9  C   LIG    1        1.224  -2.129   0.083  0.00  0.00    +0.124 C 
ATOM     10  O   LIG    1       -0.013   1.209  -0.083  0.00  0.00    -0.253 OA
ENDROOT
BRANCH   7  11
ATOM     11  C   LIG    1        4.263  -2.476   2.278  0.00  0.00    +0.057 C 
ATOM     12  C   LIG    1        3.680  -2.203   3.680  0.00  0.00    +0.019 C 
ATOM     13  C   LIG    1        4.922  -1.899   4.554  0.00  0.00    +0.002 C 
ATOM     14  C   LIG    1        5.826  -1.087   3.594  0.00  0.00    +0.002 C 
ATOM     15  C   LIG    1        5.627  -1.766   2.223  0.00  0.00    +0.019 C 
ENDBRANCH   7  11
BRANCH   1  16
ATOM     16  C   LIG    1       -2.434   0.021   0.032  0.00  0.00    +0.141 C 
BRANCH  16  20
ATOM     17  C   LIG    1       -5.643  -2.798   0.043  0.00  0.00    +0.000 A 
ATOM     18  C   LIG    1       -5.110  -2.353   1.238  0.00  0.00    +0.000 A 
ATOM     19  C   LIG    1       -4.071  -1.441   1.235  0.00  0.00    +0.005 A 
ATOM     20  C   LIG    1       -3.566  -0.973   0.036  0.00  0.00    -0.030 A 
ATOM     21  C   LIG    1       -4.104  -1.414  -1.159  0.00  0.00    +0.005 A 
ATOM     22  C   LIG    1       -5.139  -2.330  -1.156  0.00  0.00    +0.000 A 
ENDBRANCH  16  20
ENDBRANCH   1  16
TORSDOF 3
