REMARK  Name = ZINC22032760
REMARK                            x       y       z     vdW  Elec       q    Type
REMARK                         _______ _______ _______ _____ _____    ______ ____
ROOT
ATOM      1  C   LIG    1        1.247  -4.025  -0.070  0.00  0.00    -0.032 C 
ATOM      2  C   LIG    1        2.029  -4.511   1.108  0.00  0.00    +0.025 C 
ATOM      3  C   LIG    1        1.785  -5.955   1.406  0.00  0.00    -0.035 A 
ATOM      4  C   LIG    1        0.949  -6.300   2.461  0.00  0.00    +0.004 A 
ATOM      5  C   LIG    1        0.691  -7.633   2.721  0.00  0.00    +0.000 A 
ATOM      6  C   LIG    1        1.256  -8.623   1.938  0.00  0.00    +0.001 A 
ATOM      7  C   LIG    1        2.099  -8.280   0.897  0.00  0.00    +0.015 A 
ATOM      8  C   LIG    1        2.365  -6.936   0.658  0.00  0.00    +0.016 A 
ATOM      9  S   LIG    1        3.503  -6.462  -0.595  0.00  0.00    -0.089 S 
ATOM     10  C   LIG    1        2.596  -5.490  -1.743  0.00  0.00    +0.014 A 
ATOM     11  C   LIG    1        2.839  -5.786  -3.096  0.00  0.00    +0.017 A 
ATOM     12  C   LIG    1        2.226  -5.095  -4.110  0.00  0.00    +0.021 A 
ATOM     13  C   LIG    1        1.346  -4.075  -3.789  0.00  0.00    +0.041 A 
ATOM     14 CL   LIG    1        0.566  -3.165  -5.045  0.00  0.00    -0.084 Cl
ATOM     15  C   LIG    1        1.096  -3.789  -2.469  0.00  0.00    +0.023 A 
ATOM     16  C   LIG    1        1.706  -4.496  -1.422  0.00  0.00    -0.045 A 
ENDROOT
BRANCH   1  21
ATOM     17  C   LIG    1        2.166   1.408   1.105  0.00  0.00    +0.104 C 
ATOM     18  N   LIG    1        2.099  -0.059   1.054  0.00  0.00    -0.309 NA
ATOM     19  C   LIG    1        0.713  -0.528   1.184  0.00  0.00    +0.065 C 
ATOM     20  C   LIG    1        0.693  -2.058   1.186  0.00  0.00    -0.062 C 
ATOM     21  N   LIG    1        1.282  -2.557  -0.064  0.00  0.00    +0.386 N 
ATOM     22  H   LIG    1        0.754  -2.205  -0.849  0.00  0.00    -0.081 HD
ATOM     23  C   LIG    1        2.675  -2.100  -0.168  0.00  0.00    -0.062 C 
ATOM     24  C   LIG    1        2.710  -0.571  -0.181  0.00  0.00    +0.065 C 
ENDBRANCH   1  21
TORSDOF 1
