REMARK  Name = ZINC14959283
REMARK                            x       y       z     vdW  Elec       q    Type
REMARK                         _______ _______ _______ _____ _____    ______ ____
ROOT
ATOM      1  C   LIG    1        3.659   2.166  -0.022  0.00  0.00    +0.025 A 
ATOM      2  C   LIG    1        4.131   2.976   0.989  0.00  0.00    +0.111 A 
ATOM      3  N   LIG    1        5.327   3.489   0.605  0.00  0.00    -0.306 N 
ATOM      4  H   LIG    1        5.879   4.092   1.127  0.00  0.00    +0.186 HD
ATOM      5  N   LIG    1        5.631   3.003  -0.673  0.00  0.00    -0.299 N 
ATOM      6  H   LIG    1        6.427   3.210  -1.188  0.00  0.00    +0.187 HD
ATOM      7  C   LIG    1        4.612   2.182  -1.064  0.00  0.00    +0.073 A 
ATOM      8  C   LIG    1        4.521   1.456  -2.330  0.00  0.00    +0.018 A 
ATOM      9  C   LIG    1        5.464   1.458  -3.375  0.00  0.00    +0.042 A 
ATOM     10  CA  LIG    1        4.946   0.629  -4.360  0.00  0.00    +0.102 A 
ATOM     11  N   LIG    1        3.761   0.151  -3.942  0.00  0.00    -0.356 N 
ATOM     12  H   LIG    1        3.197  -0.452  -4.452  0.00  0.00    +0.165 HD
ATOM     13  C   LIG    1        3.475   0.608  -2.749  0.00  0.00    +0.093 A 
ENDROOT
BRANCH   1  16
ATOM     14  C   LIG    1       -0.017   1.379   0.010  0.00  0.00    +0.002 A 
ATOM     15  C   LIG    1        1.167   2.088   0.002  0.00  0.00    +0.009 A 
ATOM     16  C   LIG    1        2.384   1.408  -0.013  0.00  0.00    -0.013 A 
ATOM     17  C   LIG    1        2.398   0.015  -0.021  0.00  0.00    +0.028 A 
ATOM     18  C   LIG    1        1.208  -0.685  -0.013  0.00  0.00    +0.042 A 
ATOM     19 CL   LIG    1        1.222  -2.421  -0.023  0.00  0.00    -0.084 Cl
ATOM     20  C   LIG    1        0.002  -0.004   0.002  0.00  0.00    +0.020 A 
ENDBRANCH   1  16
BRANCH  10  21
ATOM     21  C   LIG    1        5.586   0.324  -5.647  0.00  0.00    +0.261 C 
ATOM     22  N   LIG    1        4.979  -0.500  -6.524  0.00  0.00    -0.301 N 
ATOM     23  H   LIG    1        4.119  -0.892  -6.306  0.00  0.00    +0.150 HD
ATOM     24  O   LIG    1        6.665   0.816  -5.922  0.00  0.00    -0.269 OA
BRANCH  22  25
ATOM     25  CA  LIG    1        5.618  -0.803  -7.807  0.00  0.00    +0.129 C 
BRANCH  25  26
ATOM     26  C   LIG    1        4.565  -1.192  -8.813  0.00  0.00    -0.023 A 
ATOM     27  C   LIG    1        3.500  -1.985  -8.426  0.00  0.00    +0.008 A 
ATOM     28  C   LIG    1        2.533  -2.343  -9.347  0.00  0.00    +0.040 A 
ATOM     29  C   LIG    1        2.631  -1.907 -10.657  0.00  0.00    +0.142 A 
ATOM     30  F   LIG    1        1.687  -2.256 -11.558  0.00  0.00    -0.204 F 
ATOM     31  C   LIG    1        3.698  -1.112 -11.044  0.00  0.00    +0.076 A 
ATOM     32 CL   LIG    1        3.822  -0.564 -12.687  0.00  0.00    -0.081 Cl
ATOM     33  C   LIG    1        4.661  -0.751 -10.119  0.00  0.00    +0.028 A 
ENDBRANCH  25  26
BRANCH  25  34
ATOM     34  C   LIG    1        6.602  -1.960  -7.626  0.00  0.00    +0.182 C 
BRANCH  34  35
ATOM     35  O   LIG    1        5.885  -3.144  -7.271  0.00  0.00    -0.393 OA
ATOM     36  H   LIG    1        6.447  -3.920  -7.140  0.00  0.00    +0.209 HD
ENDBRANCH  34  35
ENDBRANCH  25  34
ENDBRANCH  22  25
ENDBRANCH  10  21
TORSDOF 6
