REMARK  Name = ZINC00056651
REMARK                            x       y       z     vdW  Elec       q    Type
REMARK                         _______ _______ _______ _____ _____    ______ ____
ROOT
ATOM      1  N   LIG    1       -1.707  -1.582  -0.284  0.00  0.00    -0.300 N 
ATOM      2  C   LIG    1       -1.785  -2.039   1.037  0.00  0.00    +0.048 A 
ATOM      3  C   LIG    1       -1.878  -3.396   1.303  0.00  0.00    +0.024 A 
ATOM      4  C   LIG    1       -1.957  -3.839   2.612  0.00  0.00    +0.002 A 
ATOM      5  C   LIG    1       -1.942  -2.938   3.659  0.00  0.00    +0.001 A 
ATOM      6  C   LIG    1       -1.849  -1.579   3.404  0.00  0.00    +0.017 A 
ATOM      7  C   LIG    1       -1.770  -1.131   2.099  0.00  0.00    +0.034 A 
ATOM      8  S   LIG    1       -1.651   0.594   1.742  0.00  0.00    -0.086 S 
ATOM      9  C   LIG    1       -2.402   0.702   0.148  0.00  0.00    +0.034 A 
ATOM     10  C   LIG    1       -3.034   1.861  -0.259  0.00  0.00    +0.017 A 
ATOM     11  C   LIG    1       -3.603   1.930  -1.510  0.00  0.00    +0.001 A 
ATOM     12  C   LIG    1       -3.551   0.837  -2.354  0.00  0.00    +0.002 A 
ATOM     13  C   LIG    1       -2.923  -0.329  -1.953  0.00  0.00    +0.024 A 
ATOM     14  C   LIG    1       -2.341  -0.406  -0.697  0.00  0.00    +0.048 A 
ENDROOT
BRANCH   1  15
ATOM     15  C   LIG    1       -0.934  -2.355  -1.259  0.00  0.00    +0.095 C 
BRANCH  15  16
ATOM     16  C   LIG    1        0.550  -2.300  -0.893  0.00  0.00    -0.054 C 
ATOM     17  C   LIG    1        1.325  -3.300  -1.753  0.00  0.00    -0.012 C 
BRANCH  16  18
ATOM     18  N   LIG    1        1.064  -0.945  -1.135  0.00  0.00    +0.382 N 
ATOM     19  H   LIG    1        2.071  -0.974  -1.201  0.00  0.00    -0.081 HD
BRANCH  18  21
ATOM     20  C   LIG    1        1.167   0.911  -2.728  0.00  0.00    -0.017 C 
ATOM     21  C   LIG    1        0.506  -0.427  -2.391  0.00  0.00    -0.082 C 
ENDBRANCH  18  21
BRANCH  18  22
ATOM     22  C   LIG    1        0.671  -0.067  -0.025  0.00  0.00    -0.082 C 
ATOM     23  C   LIG    1        1.383  -0.512   1.254  0.00  0.00    -0.017 C 
ENDBRANCH  18  22
ENDBRANCH  16  18
ENDBRANCH  15  16
ENDBRANCH   1  15
TORSDOF 5
