REMARK  Name = ZINC37858693
REMARK                            x       y       z     vdW  Elec       q    Type
REMARK                         _______ _______ _______ _____ _____    ______ ____
ROOT
ATOM      1  C   LIG    1        3.823  -0.500   0.163  0.00  0.00    +0.025 A 
ATOM      2  C   LIG    1        4.806  -0.152  -0.758  0.00  0.00    +0.012 A 
ATOM      3  C   LIG    1        5.960  -0.907  -0.874  0.00  0.00    +0.002 A 
ATOM      4  C   LIG    1        6.151  -2.017  -0.077  0.00  0.00    +0.015 A 
ATOM      5  C   LIG    1        5.177  -2.381   0.852  0.00  0.00    +0.065 A 
ATOM      6  C   LIG    1        5.348  -3.563   1.721  0.00  0.00    +0.194 A 
ATOM      7  O   LIG    1        6.349  -4.260   1.655  0.00  0.00    -0.287 OA
ATOM      8  C   LIG    1        4.320  -3.845   2.641  0.00  0.00    +0.114 A 
ATOM      9  C   LIG    1        3.219  -3.044   2.684  0.00  0.00    +0.193 A 
ATOM     10  O   LIG    1        3.072  -1.977   1.887  0.00  0.00    -0.440 OA
ATOM     11  C   LIG    1        4.007  -1.620   0.982  0.00  0.00    +0.148 A 
ENDROOT
BRANCH   1  15
ATOM     12  C   LIG    1        0.288   1.837   0.500  0.00  0.00    +0.000 A 
ATOM     13  C   LIG    1        1.526   2.454   0.520  0.00  0.00    +0.001 A 
ATOM     14  C   LIG    1        2.677   1.700   0.411  0.00  0.00    +0.008 A 
ATOM     15  C   LIG    1        2.590   0.315   0.281  0.00  0.00    -0.014 A 
ATOM     16  C   LIG    1        1.340  -0.301   0.263  0.00  0.00    +0.008 A 
ATOM     17  C   LIG    1        0.196   0.463   0.372  0.00  0.00    +0.001 A 
ENDBRANCH   1  15
BRANCH   9  18
ATOM     18  N   LIG    1        2.223  -3.340   3.579  0.00  0.00    -0.297 N 
ATOM     19  C   LIG    1        2.531  -3.960   4.878  0.00  0.00    +0.136 C 
ATOM     20  C   LIG    1        1.842  -3.144   5.978  0.00  0.00    +0.179 C 
ATOM     21  O   LIG    1        0.457  -2.996   5.657  0.00  0.00    -0.377 OA
ATOM     22  C   LIG    1        0.210  -2.277   4.447  0.00  0.00    +0.179 C 
ATOM     23  C   LIG    1        0.815  -3.043   3.271  0.00  0.00    +0.136 C 
ENDBRANCH   9  18
TORSDOF 2
