REMARK  Name = ZINC20898558
REMARK                            x       y       z     vdW  Elec       q    Type
REMARK                         _______ _______ _______ _____ _____    ______ ____
ROOT
ATOM      1  C   LIG    1       -3.068  -6.785   0.534  0.00  0.00    +0.044 C 
ATOM      2  C   LIG    1       -2.310  -5.505   0.291  0.00  0.00    -0.046 A 
ATOM      3  C   LIG    1       -0.940  -5.543   0.107  0.00  0.00    +0.028 A 
ATOM      4  C   LIG    1       -0.240  -4.367  -0.114  0.00  0.00    +0.052 A 
ATOM      5  C   LIG    1       -0.927  -3.148  -0.124  0.00  0.00    +0.068 A 
ATOM      6  N   LIG    1       -0.185  -1.975  -0.325  0.00  0.00    -0.306 N 
ATOM      7  C   LIG    1       -0.641  -0.719  -0.583  0.00  0.00    +0.069 A 
ATOM      8  C   LIG    1        0.454   0.093  -0.744  0.00  0.00    +0.089 A 
ATOM      9  C   LIG    1        1.650  -0.765  -0.547  0.00  0.00    +0.082 A 
ATOM     10  N   LIG    1        2.923  -0.185  -0.655  0.00  0.00    -0.294 N 
ATOM     11  C   LIG    1        4.140  -0.979  -0.471  0.00  0.00    +0.154 C 
ATOM     12  C   LIG    1        2.980   1.135  -0.937  0.00  0.00    +0.332 A 
ATOM     13  N   LIG    1        1.926   1.936  -1.119  0.00  0.00    -0.263 N 
ATOM     14  C   LIG    1        2.175   3.349  -1.416  0.00  0.00    +0.157 C 
ATOM     15  O   LIG    1        4.083   1.637  -1.033  0.00  0.00    -0.246 OA
ATOM     16  C   LIG    1        0.636   1.517  -1.044  0.00  0.00    +0.266 A 
ATOM     17  O   LIG    1       -0.303   2.269  -1.219  0.00  0.00    -0.267 OA
ATOM     18  C   LIG    1        1.202  -1.985  -0.291  0.00  0.00    +0.073 A 
ATOM     19  C   LIG    1        1.978  -3.248   0.017  0.00  0.00    +0.150 C 
ATOM     20  C   LIG    1       -2.297  -3.120   0.043  0.00  0.00    +0.031 A 
ATOM     21  N   LIG    1        1.138  -4.396  -0.356  0.00  0.00    -0.330 N 
ATOM     22  H   LIG    1        1.593  -5.280  -0.827  0.00  0.00    +0.147 HD
ATOM     23  C   LIG    1       -2.988  -4.301   0.254  0.00  0.00    -0.045 A 
ATOM     24  C   LIG    1       -4.483  -4.274   0.444  0.00  0.00    +0.044 C 
ENDROOT
BRANCH   7  25
ATOM     25  C   LIG    1       -2.054  -0.306  -0.673  0.00  0.00    -0.000 A 
ATOM     26  C   LIG    1       -2.903  -0.905  -1.607  0.00  0.00    +0.010 A 
ATOM     27  C   LIG    1       -4.224  -0.517  -1.683  0.00  0.00    +0.001 A 
ATOM     28  C   LIG    1       -4.707   0.471  -0.843  0.00  0.00    +0.000 A 
ATOM     29  C   LIG    1       -3.872   1.073   0.081  0.00  0.00    +0.001 A 
ATOM     30  C   LIG    1       -2.549   0.691   0.171  0.00  0.00    +0.010 A 
ENDBRANCH   7  25
BRANCH  19  31
ATOM     31  C   LIG    1        2.295  -3.305   1.489  0.00  0.00    -0.021 A 
ATOM     32  C   LIG    1        1.270  -3.393   2.413  0.00  0.00    +0.009 A 
ATOM     33  C   LIG    1        1.558  -3.452   3.763  0.00  0.00    +0.046 A 
ATOM     34  C   LIG    1        2.876  -3.410   4.192  0.00  0.00    +0.117 A 
ATOM     35  C   LIG    1        3.903  -3.315   3.264  0.00  0.00    +0.046 A 
ATOM     36  C   LIG    1        3.610  -3.263   1.915  0.00  0.00    +0.009 A 
BRANCH  34  37
ATOM     37  O   LIG    1        3.162  -3.461   5.520  0.00  0.00    -0.507 OA
ATOM     38  H   LIG    1        4.208  -3.427   5.859  0.00  0.00    +0.292 HD
ENDBRANCH  34  37
ENDBRANCH  19  31
TORSDOF 3
