REMARK  Name = ZINC13979107
REMARK                            x       y       z     vdW  Elec       q    Type
REMARK                         _______ _______ _______ _____ _____    ______ ____
ROOT
ATOM      1  O   LIG    1       -8.717   1.579   2.968  0.00  0.00    -0.486 OA
ENDROOT
BRANCH   1   6
ATOM      2  C   LIG    1      -11.036  -0.552   8.150  0.00  0.00    +0.065 C 
ATOM      3  C   LIG    1      -10.117  -1.010   7.009  0.00  0.00    +0.047 C 
ATOM      4  C   LIG    1      -10.024   0.152   6.049  0.00  0.00    -0.031 A 
ATOM      5  C   LIG    1       -9.339   0.277   4.859  0.00  0.00    +0.051 A 
ATOM      6  C   LIG    1       -9.399   1.462   4.135  0.00  0.00    +0.141 A 
ATOM      7  C   LIG    1      -10.161   2.527   4.604  0.00  0.00    +0.101 A 
ATOM      8 CL   LIG    1      -10.239   4.004   3.694  0.00  0.00    -0.078 Cl
ATOM      9  C   LIG    1      -10.854   2.412   5.788  0.00  0.00    +0.074 A 
ATOM     10 CL   LIG    1      -11.805   3.743   6.369  0.00  0.00    -0.081 Cl
ATOM     11  C   LIG    1      -10.793   1.216   6.527  0.00  0.00    +0.041 A 
ATOM     12  C   LIG    1      -11.436   0.860   7.799  0.00  0.00    +0.168 C 
ATOM     13  O   LIG    1      -12.162   1.577   8.454  0.00  0.00    -0.292 OA
BRANCH   2  14
ATOM     14  C   LIG    1      -12.272  -1.450   8.227  0.00  0.00    +0.011 C 
BRANCH  14  16
ATOM     15  C   LIG    1      -14.349  -1.955   9.521  0.00  0.00    +0.004 C 
ATOM     16  C   LIG    1      -13.112  -1.057   9.444  0.00  0.00    -0.003 C 
ENDBRANCH  14  16
ENDBRANCH   2  14
ENDBRANCH   1   6
BRANCH   1  17
ATOM     17  C   LIG    1       -7.955   0.446   2.546  0.00  0.00    +0.264 C 
BRANCH  17  18
ATOM     18  C   LIG    1       -7.273   0.758   1.239  0.00  0.00    -0.010 A 
ATOM     19  C   LIG    1       -7.910   0.484   0.043  0.00  0.00    +0.007 A 
ATOM     20  C   LIG    1       -7.284   0.770  -1.155  0.00  0.00    +0.001 A 
ATOM     21  C   LIG    1       -6.023   1.337  -1.158  0.00  0.00    +0.004 A 
ATOM     22  C   LIG    1       -5.384   1.606   0.037  0.00  0.00    -0.037 A 
ATOM     23  C   LIG    1       -6.009   1.319   1.236  0.00  0.00    +0.011 A 
BRANCH  22  24
ATOM     24  C   LIG    1       -4.006   2.218   0.033  0.00  0.00    +0.109 C 
BRANCH  24  25
ATOM     25  S   LIG    1       -2.759   0.901   0.021  0.00  0.00    -0.120 S 
BRANCH  25  26
ATOM     26  C   LIG    1       -1.225   1.767   0.017  0.00  0.00    +0.011 A 
ATOM     27  C   LIG    1       -0.013   1.076   0.008  0.00  0.00    +0.034 A 
ATOM     28  C   LIG    1        1.166   1.791   0.001  0.00  0.00    +0.112 A 
ATOM     29  N   LIG    1        1.157   3.111   0.007  0.00  0.00    -0.263 NA
ATOM     30  C   LIG    1        0.032   3.801   0.021  0.00  0.00    +0.112 A 
ATOM     31  C   LIG    1       -1.190   3.162   0.029  0.00  0.00    +0.034 A 
ENDBRANCH  25  26
ENDBRANCH  24  25
ENDBRANCH  22  24
ENDBRANCH  17  18
ENDBRANCH   1  17
TORSDOF 8
