REMARK  Name = ZINC13943857
REMARK                            x       y       z     vdW  Elec       q    Type
REMARK                         _______ _______ _______ _____ _____    ______ ____
ROOT
ATOM      1  C   LIG    1        3.302   6.564   0.166  0.00  0.00    +0.028 C 
ATOM      2  C   LIG    1        2.417   5.663   0.663  0.00  0.00    +0.078 C 
ATOM      3  C   LIG    1        2.415   4.190   0.558  0.00  0.00    +0.263 C 
ATOM      4  N   LIG    1        1.415   3.556   1.148  0.00  0.00    -0.224 N 
ATOM      5  C   LIG    1        0.446   4.224   1.805  0.00  0.00    +0.125 C 
ATOM      6  S   LIG    1       -0.920   3.590   2.618  0.00  0.00    -0.027 S 
ATOM      7  O   LIG    1        3.289   3.590  -0.040  0.00  0.00    -0.269 OA
ATOM      8  S   LIG    1        0.934   5.933   1.625  0.00  0.00    -0.061 S 
ENDROOT
BRANCH   4   9
ATOM      9  C   LIG    1        1.358   2.157   1.082  0.00  0.00    +0.044 A 
ATOM     10  C   LIG    1        1.083   1.528  -0.125  0.00  0.00    +0.024 A 
ATOM     11  C   LIG    1        1.027   0.149  -0.187  0.00  0.00    +0.003 A 
ATOM     12  C   LIG    1        1.245  -0.605   0.952  0.00  0.00    +0.020 A 
ATOM     13  C   LIG    1        1.520   0.019   2.156  0.00  0.00    +0.043 A 
ATOM     14 CL   LIG    1        1.792  -0.932   3.583  0.00  0.00    -0.083 Cl
ATOM     15  C   LIG    1        1.577   1.398   2.224  0.00  0.00    +0.044 A 
ENDBRANCH   4   9
BRANCH   1  18
ATOM     16  C   LIG    1        3.782  10.282   0.306  0.00  0.00    +0.166 A 
ATOM     17  C   LIG    1        4.059   8.931   0.226  0.00  0.00    +0.057 A 
ATOM     18  C   LIG    1        3.013   8.001   0.251  0.00  0.00    -0.017 A 
ATOM     19  C   LIG    1        1.689   8.445   0.351  0.00  0.00    +0.057 A 
ATOM     20  C   LIG    1        1.420   9.798   0.436  0.00  0.00    +0.166 A 
ATOM     21  C   LIG    1        2.464  10.720   0.411  0.00  0.00    +0.201 A 
BRANCH  16  23
ATOM     22  C   LIG    1        6.125  10.668   0.172  0.00  0.00    +0.277 C 
ATOM     23  O   LIG    1        4.798  11.186   0.282  0.00  0.00    -0.491 OA
ENDBRANCH  16  23
BRANCH  20  24
ATOM     24  O   LIG    1        0.135  10.231   0.539  0.00  0.00    -0.491 OA
ATOM     25  C   LIG    1       -0.886   9.231   0.559  0.00  0.00    +0.277 C 
ENDBRANCH  20  24
BRANCH  21  26
ATOM     26  O   LIG    1        2.196  12.050   0.490  0.00  0.00    -0.501 OA
ATOM     27  H   LIG    1        2.062  12.476  -0.368  0.00  0.00    +0.292 HD
ENDBRANCH  21  26
ENDBRANCH   1  18
TORSDOF 5
