REMARK  Name = ZINC26850590
REMARK                            x       y       z     vdW  Elec       q    Type
REMARK                         _______ _______ _______ _____ _____    ______ ____
ROOT
ATOM      1  C   LIG    1       -1.499  -2.876   0.910  0.00  0.00    +0.032 C 
ATOM      2  C   LIG    1       -0.591  -2.217  -0.129  0.00  0.00    +0.132 C 
ATOM      3  C   LIG    1       -1.023  -0.788  -0.382  0.00  0.00    +0.247 C 
ATOM      4  N   LIG    1        0.002  -0.004   0.002  0.00  0.00    -0.216 N 
ATOM      5  C   LIG    1       -0.018   1.469   0.010  0.00  0.00    +0.131 C 
ATOM      6  C   LIG    1        1.429   1.975  -0.001  0.00  0.00    +0.023 C 
ATOM      7  C   LIG    1        2.211   1.286   1.122  0.00  0.00    +0.037 C 
ATOM      8  C   LIG    1        2.414  -0.189   0.760  0.00  0.00    +0.205 C 
ATOM      9  N   LIG    1        1.106  -0.768   0.406  0.00  0.00    -0.203 N 
ATOM     10  O   LIG    1       -2.084  -0.422  -0.841  0.00  0.00    -0.273 OA
ATOM     11  C   LIG    1        0.819  -2.084   0.406  0.00  0.00    +0.248 C 
ATOM     12  O   LIG    1        1.546  -2.985   0.766  0.00  0.00    -0.273 OA
ENDROOT
BRANCH   8  13
ATOM     13  C   LIG    1        2.993  -0.929   1.939  0.00  0.00    +0.327 C 
ATOM     14  O   LIG    1        2.382  -1.845   2.437  0.00  0.00    -0.249 OA
BRANCH  13  15
ATOM     15  O   LIG    1        4.187  -0.570   2.437  0.00  0.00    -0.479 OA
ATOM     16  H   LIG    1        4.661   0.141   2.051  0.00  0.00    +0.295 HD
ENDBRANCH  13  15
ENDBRANCH   8  13
BRANCH   2  17
ATOM     17  C   LIG    1       -0.599  -3.018  -1.433  0.00  0.00    +0.091 C 
BRANCH  17  18
ATOM     18  S   LIG    1       -2.283  -3.060  -2.106  0.00  0.00    -0.177 S 
ATOM     19  H   LIG    1       -2.486  -3.595  -3.046  0.00  0.00    +0.102 HD
ENDBRANCH  17  18
ENDBRANCH   2  17
TORSDOF 4
