REMARK  Name = ZINC16893001
REMARK                            x       y       z     vdW  Elec       q    Type
REMARK                         _______ _______ _______ _____ _____    ______ ____
ROOT
ATOM      1  C   LIG    1       -0.027  -4.284   0.171  0.00  0.00    +0.063 C 
ATOM      2  C   LIG    1       -1.087  -4.992  -0.632  0.00  0.00    +0.068 C 
ATOM      3  N   LIG    1        1.090  -4.886   0.445  0.00  0.00    -0.185 NA
ENDROOT
BRANCH   1   8
ATOM      4  C   LIG    1       -0.931   1.085   2.024  0.00  0.00    +0.044 C 
ATOM      5  C   LIG    1       -0.694  -0.322   1.538  0.00  0.00    -0.050 A 
ATOM      6  C   LIG    1       -1.192  -0.719   0.310  0.00  0.00    +0.004 A 
ATOM      7  C   LIG    1       -0.978  -2.005  -0.141  0.00  0.00    +0.010 A 
ATOM      8  C   LIG    1       -0.258  -2.907   0.646  0.00  0.00    -0.003 A 
ATOM      9  C   LIG    1        0.241  -2.499   1.885  0.00  0.00    +0.010 A 
ATOM     10  C   LIG    1        0.024  -1.208   2.321  0.00  0.00    +0.004 A 
ENDBRANCH   1   8
BRANCH   3  11
ATOM     11  N   LIG    1        2.137  -4.178   1.051  0.00  0.00    -0.218 N 
ATOM     12  H   LIG    1        2.060  -3.221   1.188  0.00  0.00    +0.176 HD
BRANCH  11  13
ATOM     13  C   LIG    1        3.250  -4.827   1.444  0.00  0.00    +0.147 C 
ATOM     14  S   LIG    1        4.529  -3.963   2.185  0.00  0.00    -0.017 S 
BRANCH  13  15
ATOM     15  N   LIG    1        3.357  -6.158   1.254  0.00  0.00    -0.339 N 
ATOM     16  H   LIG    1        4.158  -6.625   1.538  0.00  0.00    +0.144 HD
ATOM     17  H   LIG    1        2.632  -6.647   0.835  0.00  0.00    +0.144 HD
ENDBRANCH  13  15
ENDBRANCH  11  13
ENDBRANCH   3  11
TORSDOF 4
