REMARK  Name = ZINC66097229
REMARK                            x       y       z     vdW  Elec       q    Type
REMARK                         _______ _______ _______ _____ _____    ______ ____
ROOT
ATOM      1  C   LIG    1       -0.017   1.389   0.010  0.00  0.00    +0.046 A 
ATOM      2  C   LIG    1        1.174   2.086   0.002  0.00  0.00    +0.019 A 
ATOM      3  C   LIG    1        2.369   1.392  -0.012  0.00  0.00    +0.021 A 
ATOM      4  C   LIG    1        2.424  -0.009  -0.018  0.00  0.00    +0.007 A 
ATOM      5  C   LIG    1        3.771  -0.618  -0.026  0.00  0.00    +0.035 A 
ATOM      6  C   LIG    1        4.834   0.267  -0.021  0.00  0.00    +0.088 A 
ATOM      7  C   LIG    1        6.211   0.075  -0.002  0.00  0.00    +0.252 C 
ATOM      8  N   LIG    1        6.996  -0.955   0.062  0.00  0.00    -0.310 N 
ATOM      9  H   LIG    1        7.938  -0.740   0.150  0.00  0.00    +0.149 HD
ATOM     10  C   LIG    1        6.703  -2.364   0.025  0.00  0.00    +0.115 C 
ATOM     11  C   LIG    1        5.475  -2.757   0.788  0.00  0.00    +0.093 C 
ATOM     12  O   LIG    1        6.826   1.124  -0.059  0.00  0.00    -0.270 OA
ATOM     13  S   LIG    1        3.941  -2.377  -0.051  0.00  0.00    -0.122 S 
ATOM     14  C   LIG    1        1.186  -0.700  -0.012  0.00  0.00    +0.055 A 
ATOM     15  S   LIG    1        4.071   1.882  -0.027  0.00  0.00    -0.083 S 
ATOM     16  C   LIG    1        0.002  -0.004   0.002  0.00  0.00    +0.118 A 
ENDROOT
BRANCH  16  17
ATOM     17  O   LIG    1       -1.174  -0.688   0.009  0.00  0.00    -0.507 OA
ATOM     18  H   LIG    1       -1.522  -0.880  -0.873  0.00  0.00    +0.292 HD
ENDBRANCH  16  17
TORSDOF 1
