REMARK  Name = ZINC55060306
REMARK                            x       y       z     vdW  Elec       q    Type
REMARK                         _______ _______ _______ _____ _____    ______ ____
ROOT
ATOM      1  N   LIG    1       -0.200  -6.338   3.400  0.00  0.00    -0.291 NA
ATOM      2  C   LIG    1        1.038  -6.835   2.785  0.00  0.00    +0.104 C 
ATOM      3  C   LIG    1        0.843  -8.294   2.358  0.00  0.00    +0.120 C 
ATOM      4  N   LIG    1        0.374  -9.062   3.522  0.00  0.00    -0.327 N 
ATOM      5  C   LIG    1       -0.781  -8.550   4.274  0.00  0.00    +0.120 C 
ATOM      6  C   LIG    1       -0.522  -7.081   4.625  0.00  0.00    +0.104 C 
ENDROOT
BRANCH   4   7
ATOM      7  C   LIG    1        1.011 -10.248   3.902  0.00  0.00    +0.030 A 
ATOM      8  C   LIG    1        0.481 -11.024   4.925  0.00  0.00    +0.027 A 
ATOM      9  C   LIG    1        1.109 -12.195   5.300  0.00  0.00    +0.047 A 
ATOM     10  C   LIG    1        2.270 -12.597   4.655  0.00  0.00    +0.120 A 
ATOM     11  C   LIG    1        2.801 -11.822   3.634  0.00  0.00    +0.047 A 
ATOM     12  C   LIG    1        2.170 -10.654   3.254  0.00  0.00    +0.027 A 
BRANCH  10  13
ATOM     13  O   LIG    1        2.889 -13.750   5.025  0.00  0.00    -0.495 OA
ATOM     14  C   LIG    1        4.080 -14.103   4.319  0.00  0.00    +0.277 C 
ENDBRANCH  10  13
ENDBRANCH   4   7
BRANCH   1  15
ATOM     15  C   LIG    1       -0.113  -4.896   3.667  0.00  0.00    +0.180 C 
BRANCH  15  18
ATOM     16  N   LIG    1        0.061  -2.803   2.360  0.00  0.00    -0.284 N 
ATOM     17  H   LIG    1        0.147  -2.321   3.198  0.00  0.00    +0.155 HD
ATOM     18  C   LIG    1       -0.027  -4.148   2.361  0.00  0.00    +0.231 C 
ATOM     19  O   LIG    1       -0.037  -4.756   1.312  0.00  0.00    -0.274 OA
BRANCH  16  25
ATOM     20  C   LIG    1        1.513   1.038  -0.344  0.00  0.00    +0.044 C 
ATOM     21  C   LIG    1        0.724  -0.236  -0.188  0.00  0.00    -0.049 A 
ATOM     22  C   LIG    1       -0.034  -0.713  -1.242  0.00  0.00    +0.003 A 
ATOM     23  C   LIG    1       -0.760  -1.881  -1.103  0.00  0.00    +0.002 A 
ATOM     24  C   LIG    1       -0.730  -2.577   0.090  0.00  0.00    +0.023 A 
ATOM     25  C   LIG    1        0.029  -2.101   1.150  0.00  0.00    +0.034 A 
ATOM     26  C   LIG    1        0.762  -0.929   1.006  0.00  0.00    +0.026 A 
ENDBRANCH  16  25
ENDBRANCH  15  18
ENDBRANCH   1  15
TORSDOF 5
