REMARK  Name = ZINC13781526
REMARK                            x       y       z     vdW  Elec       q    Type
REMARK                         _______ _______ _______ _____ _____    ______ ____
ROOT
ATOM      1  C   LIG    1        0.002  -0.004   0.002  0.00  0.00    +0.124 A 
ATOM      2  C   LIG    1       -0.017   1.380   0.010  0.00  0.00    +0.046 A 
ATOM      3  C   LIG    1        1.173   2.082   0.002  0.00  0.00    +0.004 A 
ATOM      4  C   LIG    1        2.372   1.399  -0.017  0.00  0.00    +0.004 A 
ATOM      5  C   LIG    1        2.396   0.011  -0.029  0.00  0.00    -0.039 A 
ATOM      6  C   LIG    1        3.730  -0.677  -0.064  0.00  0.00    +0.005 C 
ATOM      7  C   LIG    1        4.751   0.053   0.807  0.00  0.00    +0.005 C 
ATOM      8  C   LIG    1        6.088  -0.693   0.711  0.00  0.00    -0.019 C 
ATOM      9  C   LIG    1        5.900  -2.151   1.135  0.00  0.00    -0.082 C 
ATOM     10  N   LIG    1        4.885  -2.801   0.285  0.00  0.00    +0.381 N 
ATOM     11  H   LIG    1        4.783  -3.783   0.569  0.00  0.00    -0.086 HD
ATOM     12  H   LIG    1        5.183  -2.758  -0.696  0.00  0.00    -0.086 HD
ATOM     13  C   LIG    1        3.593  -2.117   0.432  0.00  0.00    -0.064 C 
ATOM     14  C   LIG    1        2.508  -2.806  -0.396  0.00  0.00    -0.010 C 
ATOM     15  C   LIG    1        1.158  -2.200  -0.011  0.00  0.00    +0.037 C 
ATOM     16  C   LIG    1        1.212  -0.695  -0.016  0.00  0.00    -0.002 A 
ENDROOT
BRANCH   1  18
ATOM     17  C   LIG    1       -2.374   0.073   0.032  0.00  0.00    +0.277 C 
ATOM     18  O   LIG    1       -1.169  -0.694   0.013  0.00  0.00    -0.495 OA
ENDBRANCH   1  18
TORSDOF 1
