REMARK  Name = ZINC28129161
REMARK                            x       y       z     vdW  Elec       q    Type
REMARK                         _______ _______ _______ _____ _____    ______ ____
ROOT
ATOM      1  C   LIG    1        2.741  -2.394   1.590  0.00  0.00    +0.002 A 
ATOM      2  C   LIG    1        1.806  -1.500   2.112  0.00  0.00    +0.010 A 
ATOM      3  C   LIG    1        0.761  -1.970   2.880  0.00  0.00    +0.002 A 
ATOM      4  C   LIG    1        0.639  -3.325   3.133  0.00  0.00    -0.064 A 
ATOM      5  C   LIG    1        1.564  -4.216   2.619  0.00  0.00    +0.002 A 
ATOM      6  C   LIG    1        2.610  -3.759   1.845  0.00  0.00    +0.010 A 
ENDROOT
BRANCH   1   8
ATOM      7  C   LIG    1        3.617  -0.902  -0.277  0.00  0.00    +0.098 A 
ATOM      8  C   LIG    1        3.866  -1.896   0.764  0.00  0.00    +0.098 A 
ATOM      9  N   LIG    1        5.086  -2.352   0.974  0.00  0.00    -0.243 NA
ATOM     10  C   LIG    1        6.102  -1.902   0.229  0.00  0.00    +0.092 A 
ATOM     11  C   LIG    1        7.407  -2.371   0.431  0.00  0.00    +0.057 A 
ATOM     12  C   LIG    1        8.435  -1.893  -0.349  0.00  0.00    +0.068 A 
ATOM     13  C   LIG    1        8.201  -0.930  -1.359  0.00  0.00    +0.091 A 
ATOM     14  N   LIG    1        9.404  -0.670  -1.940  0.00  0.00    -0.236 NA
ATOM     15  C   LIG    1       10.329  -1.385  -1.372  0.00  0.00    +0.197 A 
ATOM     16  C   LIG    1        6.923  -0.442  -1.591  0.00  0.00    +0.059 A 
ATOM     17  N   LIG    1        9.794  -2.156  -0.387  0.00  0.00    -0.344 N 
ATOM     18  H   LIG    1       10.276  -2.776   0.183  0.00  0.00    +0.167 HD
ATOM     19  C   LIG    1        5.853  -0.905  -0.816  0.00  0.00    +0.092 A 
ATOM     20  N   LIG    1        4.609  -0.454  -1.022  0.00  0.00    -0.243 NA
BRANCH   7  24
ATOM     21  C   LIG    1       -0.329   0.540  -0.921  0.00  0.00    +0.000 A 
ATOM     22  C   LIG    1        0.731   1.428  -0.880  0.00  0.00    +0.001 A 
ATOM     23  C   LIG    1        2.015   0.966  -0.671  0.00  0.00    +0.010 A 
ATOM     24  C   LIG    1        2.242  -0.399  -0.501  0.00  0.00    +0.002 A 
ATOM     25  C   LIG    1        1.169  -1.290  -0.543  0.00  0.00    +0.010 A 
ATOM     26  C   LIG    1       -0.110  -0.815  -0.753  0.00  0.00    +0.001 A 
ENDBRANCH   7  24
ENDBRANCH   1   8
BRANCH   4  27
ATOM     27  C   LIG    1       -0.505  -3.832   3.973  0.00  0.00    -0.043 C 
BRANCH  27  28
ATOM     28  N   LIG    1       -1.650  -4.140   3.106  0.00  0.00    +0.382 N 
ATOM     29  H   LIG    1       -1.362  -4.787   2.388  0.00  0.00    -0.081 HD
ATOM     30  C   LIG    1       -2.135  -2.904   2.480  0.00  0.00    -0.076 C 
ATOM     31  C   LIG    1       -3.275  -3.230   1.513  0.00  0.00    +0.006 C 
ATOM     32  C   LIG    1       -4.418  -3.894   2.287  0.00  0.00    +0.089 C 
ATOM     33  C   LIG    1       -3.884  -5.142   2.996  0.00  0.00    +0.006 C 
ATOM     34  C   LIG    1       -2.720  -4.745   3.908  0.00  0.00    -0.076 C 
BRANCH  32  35
ATOM     35  N   LIG    1       -5.481  -4.278   1.355  0.00  0.00    -0.289 N 
ATOM     36  C   LIG    1       -6.797  -3.822   1.387  0.00  0.00    +0.070 A 
ATOM     37  C   LIG    1       -7.480  -2.946   2.217  0.00  0.00    +0.028 A 
ATOM     38  C   LIG    1       -8.818  -2.686   1.991  0.00  0.00    +0.002 A 
ATOM     39  C   LIG    1       -9.479  -3.297   0.939  0.00  0.00    +0.002 A 
ATOM     40  C   LIG    1       -8.807  -4.171   0.107  0.00  0.00    +0.028 A 
ATOM     41  C   LIG    1       -7.464  -4.438   0.326  0.00  0.00    +0.067 A 
ATOM     42  N   LIG    1       -6.533  -5.249  -0.318  0.00  0.00    -0.306 N 
ATOM     43  H   LIG    1       -6.704  -5.803  -1.095  0.00  0.00    +0.170 HD
ATOM     44  C   LIG    1       -5.352  -5.128   0.319  0.00  0.00    +0.328 A 
ATOM     45  O   LIG    1       -4.325  -5.701   0.006  0.00  0.00    -0.247 OA
ENDBRANCH  32  35
ENDBRANCH  27  28
ENDBRANCH   4  27
TORSDOF 5
