REMARK  Name = ZINC13749045
REMARK                            x       y       z     vdW  Elec       q    Type
REMARK                         _______ _______ _______ _____ _____    ______ ____
ROOT
ATOM      1  C   LIG    1        6.774   1.012   2.718  0.00  0.00    +0.067 C 
ATOM      2  C   LIG    1        6.149   2.279   3.305  0.00  0.00    +0.041 C 
ATOM      3  C   LIG    1        6.421  -0.191   3.596  0.00  0.00    +0.039 C 
ATOM      4  C   LIG    1        4.962  -0.524   3.438  0.00  0.00    +0.011 C 
ATOM      5  C   LIG    1        4.225  -0.057   2.395  0.00  0.00    +0.050 C 
ATOM      6  C   LIG    1        4.828   0.841   1.345  0.00  0.00    +0.167 C 
ATOM      7  C   LIG    1        2.874  -0.404   2.286  0.00  0.00    +0.131 C 
ATOM      8  N   LIG    1        2.304  -1.177   3.197  0.00  0.00    -0.288 NA
ATOM      9  H   LIG    1        1.239  -1.438   3.108  0.00  0.00    +0.124 HD
ATOM     10  C   LIG    1        2.990  -1.647   4.218  0.00  0.00    +0.127 C 
ATOM     11  S   LIG    1        2.566  -2.687   5.594  0.00  0.00    -0.101 S 
ATOM     12  C   LIG    1        4.141  -2.740   6.404  0.00  0.00    +0.071 A 
ATOM     13  C   LIG    1        4.623  -3.351   7.552  0.00  0.00    +0.136 A 
ATOM     14  N   LIG    1        5.904  -3.173   7.873  0.00  0.00    -0.220 NA
ATOM     15  C   LIG    1        6.680  -2.428   7.107  0.00  0.00    +0.223 A 
ATOM     16  N   LIG    1        6.260  -1.836   6.017  0.00  0.00    -0.239 NA
ATOM     17  C   LIG    1        4.978  -1.953   5.602  0.00  0.00    +0.065 A 
ATOM     18  C   LIG    1        4.351  -1.355   4.409  0.00  0.00    +0.070 C 
ATOM     19  O   LIG    1        6.253   0.781   1.404  0.00  0.00    -0.373 OA
ENDROOT
BRANCH   7  20
ATOM     20  N   LIG    1        2.125   0.070   1.217  0.00  0.00    -0.282 NA
ATOM     21  C   LIG    1        1.615  -1.040   0.399  0.00  0.00    +0.114 C 
ATOM     22  C   LIG    1        0.847  -0.472  -0.798  0.00  0.00    +0.175 C 
ATOM     23  O   LIG    1       -0.201   0.379  -0.326  0.00  0.00    -0.377 OA
ATOM     24  C   LIG    1        0.260   1.470   0.475  0.00  0.00    +0.175 C 
ATOM     25  C   LIG    1        1.022   0.922   1.684  0.00  0.00    +0.114 C 
ENDBRANCH   7  20
BRANCH   1  27
ATOM     26  C   LIG    1        8.638   2.446   1.874  0.00  0.00    +0.007 C 
ATOM     27  C   LIG    1        8.294   1.172   2.648  0.00  0.00    +0.031 C 
ENDBRANCH   1  27
BRANCH  13  28
ATOM     28  N   LIG    1        3.793  -4.129   8.345  0.00  0.00    -0.327 N 
ATOM     29  H   LIG    1        2.738  -4.267   8.067  0.00  0.00    +0.148 HD
BRANCH  28  30
ATOM     30  C   LIG    1        4.322  -4.766   9.554  0.00  0.00    +0.118 C 
BRANCH  30  31
ATOM     31  C   LIG    1        3.208  -5.560  10.240  0.00  0.00    +0.103 C 
BRANCH  31  32
ATOM     32  N   LIG    1        3.738  -6.199  11.452  0.00  0.00    -0.297 NA
ATOM     33  C   LIG    1        4.733  -7.227  11.114  0.00  0.00    +0.112 C 
ATOM     34  C   LIG    1        5.301  -7.824  12.404  0.00  0.00    +0.175 C 
ATOM     35  O   LIG    1        4.229  -8.347  13.193  0.00  0.00    -0.377 OA
ATOM     36  C   LIG    1        3.242  -7.372  13.542  0.00  0.00    +0.175 C 
ATOM     37  C   LIG    1        2.653  -6.771  12.263  0.00  0.00    +0.112 C 
ENDBRANCH  31  32
ENDBRANCH  30  31
ENDBRANCH  28  30
ENDBRANCH  13  28
TORSDOF 6
