REMARK  Name = ZINC25724098
REMARK                            x       y       z     vdW  Elec       q    Type
REMARK                         _______ _______ _______ _____ _____    ______ ____
ROOT
ATOM      1  CA  LEU A  2        3.685   1.571   3.242  0.00  0.00    +0.159 C 
ENDROOT
BRANCH   1   3
ATOM      2  C   LEU A  1        5.999   0.819   3.367  0.00  0.00    +0.234 C 
ATOM      3  N   LEU A  2        4.766   0.843   3.910  0.00  0.00    -0.302 N 
ATOM      4  H   LEU A  2        4.572   0.316   4.856  0.00  0.00    +0.150 HD
ATOM      5  O   LEU A  1        6.237   1.474   2.374  0.00  0.00    -0.274 OA
BRANCH   2   6
ATOM      6  CA  LEU A  1        7.082  -0.022   3.992  0.00  0.00    +0.159 C 
BRANCH   6   7
ATOM      7  N   LEU A  1        8.139  -0.268   3.007  0.00  0.00    -0.304 N 
ATOM      8  H   LEU A  1        8.388  -1.298   2.714  0.00  0.00    +0.149 HD
ATOM      9  C   UNK A  0        8.806   0.768   2.461  0.00  0.00    +0.211 C 
ATOM     10  C   UNK A  0        9.893   0.515   1.449  0.00  0.00    +0.109 C 
ATOM     11  O   UNK A  0        8.531   1.904   2.785  0.00  0.00    -0.276 OA
ENDBRANCH   6   7
BRANCH   6  12
ATOM     12  CB  LEU A  1        7.670   0.716   5.197  0.00  0.00    +0.034 C 
BRANCH  12  14
ATOM     13  CD1 LEU A  1        9.359   0.592   7.034  0.00  0.00    +0.007 C 
ATOM     14  CG  LEU A  1        8.681  -0.187   5.905  0.00  0.00    -0.015 C 
ATOM     15  CD2 LEU A  1        7.957  -1.403   6.489  0.00  0.00    +0.007 C 
ENDBRANCH  12  14
ENDBRANCH   6  12
ENDBRANCH   2   6
ENDBRANCH   1   3
BRANCH   1  16
ATOM     16  C   LEU A  2        2.364   0.929   3.579  0.00  0.00    +0.234 C 
ATOM     17  N   MET A  3        1.295   1.129   2.783  0.00  0.00    -0.304 N 
ATOM     18  H   MET A  3        1.366   1.821   1.931  0.00  0.00    +0.149 HD
ATOM     19  O   LEU A  2        2.263   0.233   4.567  0.00  0.00    -0.274 OA
BRANCH  17  20
ATOM     20  CA  MET A  3        0.039   0.424   3.052  0.00  0.00    +0.137 C 
BRANCH  20  21
ATOM     21  C   MET A  3       -0.759   1.193   4.073  0.00  0.00    +0.245 C 
ATOM     22  O   MET A  3       -0.324   2.223   4.529  0.00  0.00    -0.299 OA
ENDBRANCH  20  21
BRANCH  20  23
ATOM     23  CB  MET A  3       -0.767   0.306   1.757  0.00  0.00    +0.040 C 
BRANCH  23  24
ATOM     24  CG  MET A  3       -0.011  -0.579   0.764  0.00  0.00    +0.071 C 
BRANCH  24  25
ATOM     25  SD  MET A  3       -0.967  -0.718  -0.771  0.00  0.00    -0.164 S 
ATOM     26  CE  MET A  3        0.052  -1.784  -1.828  0.00  0.00    +0.084 C 
ENDBRANCH  24  25
ENDBRANCH  23  24
ENDBRANCH  20  23
ENDBRANCH  17  20
ENDBRANCH   1  16
BRANCH   1  27
ATOM     27  CB  LEU A  2        3.681   3.026   3.716  0.00  0.00    +0.034 C 
BRANCH  27  28
ATOM     28  CG  LEU A  2        2.650   3.821   2.911  0.00  0.00    -0.015 C 
ATOM     29  CD2 LEU A  2        3.088   3.889   1.447  0.00  0.00    +0.007 C 
ATOM     30  CD1 LEU A  2        2.545   5.239   3.478  0.00  0.00    +0.007 C 
ENDBRANCH  27  28
ENDBRANCH   1  27
TORSDOF 13
