REMARK  Name = ZINC16721243
REMARK                            x       y       z     vdW  Elec       q    Type
REMARK                         _______ _______ _______ _____ _____    ______ ____
ROOT
ATOM      1  N   LIG    1        4.984  -6.591  -0.097  0.00  0.00    -0.320 N 
ATOM      2  H   LIG    1        5.229  -7.017  -0.934  0.00  0.00    +0.152 HD
ENDROOT
BRANCH   1   3
ATOM      3  C   LIG    1        5.572  -6.983   1.063  0.00  0.00    +0.085 C 
ATOM      4  C   LIG    1        6.602  -7.899   1.038  0.00  0.00    +0.059 C 
ATOM      5  C   LIG    1        7.147  -8.465   2.289  0.00  0.00    +0.000 A 
ATOM      6  C   LIG    1        6.649  -8.101   3.535  0.00  0.00    +0.009 A 
ATOM      7  C   LIG    1        7.191  -8.659   4.674  0.00  0.00    +0.001 A 
ATOM      8  C   LIG    1        8.228  -9.577   4.585  0.00  0.00    +0.001 A 
ATOM      9  C   LIG    1        8.735  -9.950   3.359  0.00  0.00    +0.013 A 
ATOM     10  C   LIG    1        8.200  -9.399   2.195  0.00  0.00    +0.045 A 
ATOM     11  C   LIG    1        8.710  -9.769   0.868  0.00  0.00    +0.251 C 
ATOM     12  N   LIG    1        8.191  -9.235  -0.249  0.00  0.00    -0.248 N 
ATOM     13  H   LIG    1        8.557  -9.505  -1.106  0.00  0.00    +0.158 HD
ATOM     14  O   LIG    1        9.618 -10.574   0.780  0.00  0.00    -0.270 OA
ATOM     15  C   LIG    1        7.185  -8.346  -0.232  0.00  0.00    +0.252 C 
ATOM     16  O   LIG    1        6.755  -7.902  -1.282  0.00  0.00    -0.270 OA
ENDBRANCH   1   3
BRANCH   1  20
ATOM     17  C   LIG    1        2.125  -3.557  -0.062  0.00  0.00    +0.030 A 
ATOM     18  C   LIG    1        2.476  -4.166  -1.260  0.00  0.00    +0.025 A 
ATOM     19  C   LIG    1        3.423  -5.171  -1.272  0.00  0.00    +0.025 A 
ATOM     20  C   LIG    1        4.024  -5.572  -0.086  0.00  0.00    +0.031 A 
ATOM     21  C   LIG    1        3.674  -4.962   1.112  0.00  0.00    +0.025 A 
ATOM     22  C   LIG    1        2.731  -3.954   1.123  0.00  0.00    +0.025 A 
BRANCH  17  28
ATOM     23  C   LIG    1       -2.795  -1.194   0.062  0.00  0.00    -0.096 C 
ATOM     24  N   LIG    1       -1.329  -1.281   0.011  0.00  0.00    +0.380 N 
ATOM     25  H   LIG    1       -0.939  -0.351  -0.022  0.00  0.00    -0.082 HD
ATOM     26  C   LIG    1       -0.841  -1.970   1.212  0.00  0.00    -0.060 C 
ATOM     27  C   LIG    1        0.692  -1.961   1.217  0.00  0.00    +0.086 C 
ATOM     28  N   LIG    1        1.165  -2.539  -0.050  0.00  0.00    -0.333 N 
ATOM     29  C   LIG    1        0.602  -2.016  -1.304  0.00  0.00    +0.086 C 
ATOM     30  C   LIG    1       -0.926  -2.023  -1.190  0.00  0.00    -0.060 C 
ENDBRANCH  17  28
ENDBRANCH   1  20
TORSDOF 3
