REMARK  Name = ZINC40865720
REMARK                            x       y       z     vdW  Elec       q    Type
REMARK                         _______ _______ _______ _____ _____    ______ ____
ROOT
ATOM      1  C   LIG    1        2.251  -4.569  -6.609  0.00  0.00    +0.192 A 
ATOM      2  N   LIG    1        1.833  -4.346  -7.846  0.00  0.00    -0.207 NA
ATOM      3  C   LIG    1        2.565  -4.727  -8.888  0.00  0.00    +0.129 A 
ATOM      4  C   LIG    1        3.785  -5.367  -8.661  0.00  0.00    +0.084 A 
ATOM      5  C   LIG    1        4.185  -5.581  -7.355  0.00  0.00    +0.135 A 
ATOM      6 CL   LIG    1        5.692  -6.373  -7.017  0.00  0.00    -0.062 Cl
ATOM      7  N   LIG    1        3.406  -5.170  -6.363  0.00  0.00    -0.210 NA
ENDROOT
BRANCH   3   8
ATOM      8  N   LIG    1        2.124  -4.492 -10.181  0.00  0.00    -0.299 N 
ATOM      9  H   LIG    1        2.703  -4.689 -10.934  0.00  0.00    +0.154 HD
BRANCH   8  10
ATOM     10  C   LIG    1        0.845  -3.971 -10.400  0.00  0.00    +0.036 A 
ATOM     11  C   LIG    1       -0.153  -4.154  -9.451  0.00  0.00    +0.023 A 
ATOM     12  C   LIG    1       -1.415  -3.638  -9.670  0.00  0.00    +0.002 A 
ATOM     13  C   LIG    1       -1.686  -2.940 -10.833  0.00  0.00    +0.004 A 
ATOM     14  C   LIG    1       -0.695  -2.756 -11.780  0.00  0.00    -0.046 A 
ATOM     15  C   LIG    1       -0.995  -1.996 -13.045  0.00  0.00    +0.044 C 
ATOM     16  C   LIG    1        0.572  -3.264 -11.564  0.00  0.00    -0.026 A 
ATOM     17  C   LIG    1        1.653  -3.057 -12.593  0.00  0.00    +0.046 C 
ENDBRANCH   8  10
ENDBRANCH   3   8
BRANCH   1  18
ATOM     18  S   LIG    1        1.249  -4.048  -5.256  0.00  0.00    -0.071 S 
BRANCH  18  19
ATOM     19  C   LIG    1        2.198  -4.541  -3.791  0.00  0.00    +0.162 C 
BRANCH  19  20
ATOM     20  C   LIG    1        2.297  -6.044  -3.739  0.00  0.00    +0.318 C 
ATOM     21  O   LIG    1        1.451  -6.730  -4.288  0.00  0.00    -0.250 OA
BRANCH  20  22
ATOM     22  O   LIG    1        3.223  -6.574  -3.149  0.00  0.00    -0.480 OA
ATOM     23  H   LIG    1        3.872  -6.047  -2.727  0.00  0.00    +0.295 HD
ENDBRANCH  20  22
ENDBRANCH  19  20
BRANCH  19  24
ATOM     24  C   LIG    1        1.493  -4.033  -2.532  0.00  0.00    +0.026 C 
BRANCH  24  25
ATOM     25  C   LIG    1        1.504  -2.503  -2.525  0.00  0.00    +0.002 C 
BRANCH  25  26
ATOM     26  C   LIG    1        0.799  -1.994  -1.265  0.00  0.00    +0.000 C 
BRANCH  26  27
ATOM     27  C   LIG    1        0.809  -0.464  -1.258  0.00  0.00    -0.000 C 
BRANCH  27  29
ATOM     28  C   LIG    1        0.115   1.574   0.009  0.00  0.00    +0.004 C 
ATOM     29  C   LIG    1        0.104   0.044   0.001  0.00  0.00    -0.003 C 
ENDBRANCH  27  29
ENDBRANCH  26  27
ENDBRANCH  25  26
ENDBRANCH  24  25
ENDBRANCH  19  24
ENDBRANCH  18  19
ENDBRANCH   1  18
TORSDOF 11
