REMARK  Name = ZINC26383570
REMARK                            x       y       z     vdW  Elec       q    Type
REMARK                         _______ _______ _______ _____ _____    ______ ____
ROOT
ATOM      1  C   LIG    1       -4.199  -1.378   2.489  0.00  0.00    +0.181 C 
ATOM      2  C   LIG    1       -5.665  -1.699   2.799  0.00  0.00    +0.048 C 
ATOM      3  C   LIG    1       -6.094  -0.998   4.088  0.00  0.00    -0.010 C 
ATOM      4  C   LIG    1       -5.241  -1.508   5.251  0.00  0.00    +0.007 C 
ATOM      5  C   LIG    1       -5.907   0.516   3.952  0.00  0.00    +0.011 C 
ATOM      6  C   LIG    1       -4.438   0.806   3.658  0.00  0.00    +0.018 C 
ATOM      7  C   LIG    1       -4.162   2.275   3.581  0.00  0.00    -0.027 C 
ATOM      8  C   LIG    1       -3.337   2.796   2.726  0.00  0.00    -0.027 C 
ATOM      9  C   LIG    1       -2.570   2.017   1.699  0.00  0.00    +0.012 C 
ATOM     10  C   LIG    1       -3.188   2.257   0.320  0.00  0.00    +0.012 C 
ATOM     11  C   LIG    1       -2.605   0.518   2.013  0.00  0.00    +0.003 C 
ATOM     12  C   LIG    1       -4.049   0.134   2.339  0.00  0.00    +0.040 C 
ENDROOT
BRANCH   1  13
ATOM     13  O   LIG    1       -3.358  -1.846   3.576  0.00  0.00    -0.461 OA
BRANCH  13  14
ATOM     14  C   LIG    1       -2.876  -3.095   3.479  0.00  0.00    +0.310 C 
ATOM     15  O   LIG    1       -3.149  -3.775   2.518  0.00  0.00    -0.251 OA
BRANCH  14  16
ATOM     16  C   LIG    1       -1.996  -3.649   4.569  0.00  0.00    +0.094 C 
ATOM     17  C   LIG    1       -2.763  -3.650   5.894  0.00  0.00    +0.019 C 
BRANCH  16  19
ATOM     18  C   LIG    1       -0.594  -5.599   5.259  0.00  0.00    +0.004 C 
ATOM     19  C   LIG    1       -1.587  -5.081   4.216  0.00  0.00    +0.011 C 
ENDBRANCH  16  19
ENDBRANCH  14  16
ENDBRANCH  13  14
ENDBRANCH   1  13
BRANCH  11  20
ATOM     20  C   LIG    1       -2.122  -0.276   0.797  0.00  0.00    +0.008 C 
BRANCH  20  21
ATOM     21  C   LIG    1       -0.650   0.045   0.532  0.00  0.00    +0.045 C 
BRANCH  21  22
ATOM     22  C   LIG    1       -0.166  -0.749  -0.684  0.00  0.00    +0.179 C 
ATOM     23  C   LIG    1        1.336  -0.524  -0.877  0.00  0.00    +0.076 C 
ATOM     24  C   LIG    1        1.806  -1.279  -2.125  0.00  0.00    +0.129 C 
ATOM     25  C   LIG    1        1.039  -0.752  -3.344  0.00  0.00    +0.152 C 
ATOM     26  C   LIG    1       -0.442  -0.817  -3.042  0.00  0.00    +0.310 C 
ATOM     27  O   LIG    1       -1.214  -1.317  -3.824  0.00  0.00    -0.251 OA
ATOM     28  O   LIG    1       -0.874  -0.299  -1.873  0.00  0.00    -0.461 OA
BRANCH  24  29
ATOM     29  O   LIG    1        1.548  -2.675  -1.964  0.00  0.00    -0.391 OA
ATOM     30  H   LIG    1        1.820  -3.380  -2.764  0.00  0.00    +0.210 HD
ENDBRANCH  24  29
ENDBRANCH  21  22
ENDBRANCH  20  21
ENDBRANCH  11  20
TORSDOF 8
