REMARK  Name = ZINC13781494
REMARK                            x       y       z     vdW  Elec       q    Type
REMARK                         _______ _______ _______ _____ _____    ______ ____
ROOT
ATOM      1  C   LIG    1       -1.114   2.310   0.019  0.00  0.00    +0.170 A 
ATOM      2  C   LIG    1       -0.018   1.503   0.010  0.00  0.00    +0.075 A 
ATOM      3  N   LIG    1        1.073   2.307   0.004  0.00  0.00    -0.300 N 
ATOM      4  C   LIG    1        2.402   1.883   0.060  0.00  0.00    +0.060 A 
ATOM      5  C   LIG    1        3.295   2.636   0.818  0.00  0.00    +0.028 A 
ATOM      6  C   LIG    1        4.603   2.229   0.967  0.00  0.00    +0.017 A 
ATOM      7  C   LIG    1        5.039   1.062   0.359  0.00  0.00    +0.019 A 
ATOM      8 BR   LIG    1        6.830   0.495   0.582  0.00  0.00    -0.050 Br
ATOM      9  C   LIG    1        4.174   0.315  -0.406  0.00  0.00    +0.030 A 
ATOM     10  C   LIG    1        2.840   0.722  -0.579  0.00  0.00    +0.062 A 
ATOM     11  C   LIG    1        1.980  -0.101  -1.432  0.00  0.00    +0.249 C 
ATOM     12  N   LIG    1        0.709  -0.434  -1.210  0.00  0.00    -0.295 N 
ATOM     13  C   LIG    1       -0.001  -1.249  -2.199  0.00  0.00    +0.132 C 
ATOM     14  O   LIG    1        2.480  -0.527  -2.455  0.00  0.00    -0.270 OA
ATOM     15  C   LIG    1        0.631   3.595  -0.036  0.00  0.00    +0.205 A 
ATOM     16  C   LIG    1        0.002  -0.004   0.002  0.00  0.00    +0.163 C 
ATOM     17  N   LIG    1       -0.671   3.595  -0.015  0.00  0.00    -0.228 NA
ENDROOT
BRANCH   1  18
ATOM     18  C   LIG    1       -2.519   1.873   0.058  0.00  0.00    +0.360 C 
ATOM     19  O   LIG    1       -2.786   0.688   0.086  0.00  0.00    -0.243 OA
BRANCH  18  20
ATOM     20  O   LIG    1       -3.510   2.788   0.063  0.00  0.00    -0.460 OA
BRANCH  20  22
ATOM     21  C   LIG    1       -5.849   3.461   0.101  0.00  0.00    +0.048 C 
ATOM     22  C   LIG    1       -4.871   2.285   0.102  0.00  0.00    +0.229 C 
ENDBRANCH  20  22
ENDBRANCH  18  20
ENDBRANCH   1  18
TORSDOF 3
