REMARK  Name = ZINC00037002
REMARK                            x       y       z     vdW  Elec       q    Type
REMARK                         _______ _______ _______ _____ _____    ______ ____
ROOT
ATOM      1  C   LIG    1       -0.760  -0.730  -0.921  0.00  0.00    +0.195 A 
ATOM      2  C   LIG    1       -0.680  -2.110  -1.007  0.00  0.00    +0.274 A 
ATOM      3  N   LIG    1       -1.441  -2.689  -1.909  0.00  0.00    -0.153 NA
ATOM      4  S   LIG    1       -2.244  -1.407  -2.624  0.00  0.00    +0.121 S 
ATOM      5  N   LIG    1       -1.595  -0.137  -1.749  0.00  0.00    -0.172 NA
ENDROOT
BRANCH   1  11
ATOM      6  C   LIG    1       -0.512   0.281   1.351  0.00  0.00    +0.135 C 
ATOM      7  C   LIG    1       -0.355   1.782   1.621  0.00  0.00    +0.178 C 
ATOM      8  O   LIG    1        0.997   2.167   1.362  0.00  0.00    -0.377 OA
ATOM      9  C   LIG    1        1.408   1.987   0.005  0.00  0.00    +0.178 C 
ATOM     10  C   LIG    1        1.341   0.496  -0.348  0.00  0.00    +0.135 C 
ATOM     11  N   LIG    1        0.002  -0.004   0.002  0.00  0.00    -0.306 N 
ENDBRANCH   1  11
BRANCH   2  12
ATOM     12  O   LIG    1        0.144  -2.830  -0.199  0.00  0.00    -0.388 OA
BRANCH  12  13
ATOM     13  C   LIG    1        0.164  -4.168  -0.346  0.00  0.00    +0.410 C 
ATOM     14  N   LIG    1        0.965  -4.921   0.434  0.00  0.00    -0.263 N 
ATOM     15  C   LIG    1        1.824  -4.303   1.456  0.00  0.00    +0.139 C 
ATOM     16  C   LIG    1        1.597  -5.034   2.784  0.00  0.00    +0.179 C 
ATOM     17  O   LIG    1        1.762  -6.439   2.582  0.00  0.00    -0.377 OA
ATOM     18  C   LIG    1        0.821  -7.014   1.673  0.00  0.00    +0.179 C 
ATOM     19  C   LIG    1        1.003  -6.385   0.291  0.00  0.00    +0.139 C 
ATOM     20  O   LIG    1       -0.542  -4.698  -1.181  0.00  0.00    -0.226 OA
ENDBRANCH  12  13
ENDBRANCH   2  12
TORSDOF 3
