REMARK  Name = ZINC64560550
REMARK                            x       y       z     vdW  Elec       q    Type
REMARK                         _______ _______ _______ _____ _____    ______ ____
ROOT
ATOM      1  C   LIG    1        1.468  -2.353  -2.550  0.00  0.00    +0.089 C 
ATOM      2  C   LIG    1        2.921  -1.871  -2.579  0.00  0.00    +0.004 C 
ATOM      3  C   LIG    1        3.658  -2.411  -1.352  0.00  0.00    -0.081 C 
ATOM      4  N   LIG    1        3.628  -3.879  -1.367  0.00  0.00    +0.379 N 
ATOM      5  H   LIG    1        4.160  -4.233  -0.586  0.00  0.00    -0.086 HD
ATOM      6  H   LIG    1        4.034  -4.214  -2.227  0.00  0.00    -0.086 HD
ATOM      7  C   LIG    1        2.241  -4.350  -1.266  0.00  0.00    -0.081 C 
ATOM      8  C   LIG    1        1.450  -3.884  -2.490  0.00  0.00    +0.004 C 
ENDROOT
BRANCH   1   9
ATOM      9  C   LIG    1        0.755  -1.889  -3.794  0.00  0.00    -0.029 A 
ATOM     10  C   LIG    1        0.205  -2.815  -4.661  0.00  0.00    +0.006 A 
ATOM     11  C   LIG    1       -0.448  -2.391  -5.803  0.00  0.00    +0.022 A 
ATOM     12  C   LIG    1       -0.552  -1.040  -6.078  0.00  0.00    +0.059 A 
ATOM     13 CL   LIG    1       -1.372  -0.506  -7.513  0.00  0.00    -0.082 Cl
ATOM     14  C   LIG    1       -0.002  -0.112  -5.210  0.00  0.00    +0.060 A 
ATOM     15 CL   LIG    1       -0.131   1.584  -5.555  0.00  0.00    -0.082 Cl
ATOM     16  C   LIG    1        0.647  -0.539  -4.065  0.00  0.00    +0.026 A 
ENDBRANCH   1   9
BRANCH   1  17
ATOM     17  C   LIG    1        0.775  -1.794  -1.334  0.00  0.00    +0.318 C 
ATOM     18  O   LIG    1        0.314  -2.540  -0.504  0.00  0.00    -0.250 OA
BRANCH  17  19
ATOM     19  O   LIG    1        0.671  -0.465  -1.174  0.00  0.00    -0.464 OA
BRANCH  19  21
ATOM     20  C   LIG    1       -0.019   1.526   0.010  0.00  0.00    +0.048 C 
ATOM     21  C   LIG    1        0.002  -0.004   0.002  0.00  0.00    +0.229 C 
ENDBRANCH  19  21
ENDBRANCH  17  19
ENDBRANCH   1  17
TORSDOF 4
