REMARK  Name = ZINC36025434
REMARK                            x       y       z     vdW  Elec       q    Type
REMARK                         _______ _______ _______ _____ _____    ______ ____
ROOT
ATOM      1  C   LIG    1        0.703  -2.086  -1.087  0.00  0.00    +0.169 C 
ATOM      2  C   LIG    1       -0.650  -2.572  -1.624  0.00  0.00    +0.067 C 
ATOM      3  C   LIG    1       -0.512  -4.030  -1.983  0.00  0.00    -0.015 A 
ATOM      4  C   LIG    1       -1.541  -5.014  -2.231  0.00  0.00    +0.003 A 
ATOM      5  C   LIG    1       -2.938  -4.951  -2.224  0.00  0.00    +0.010 A 
ATOM      6  C   LIG    1       -3.614  -6.111  -2.513  0.00  0.00    +0.001 A 
ATOM      7  C   LIG    1       -2.954  -7.295  -2.801  0.00  0.00    +0.002 A 
ATOM      8  C   LIG    1       -1.573  -7.386  -2.816  0.00  0.00    +0.026 A 
ATOM      9  C   LIG    1       -0.861  -6.224  -2.526  0.00  0.00    +0.047 A 
ATOM     10  N   LIG    1        0.478  -5.966  -2.454  0.00  0.00    -0.356 N 
ATOM     11  H   LIG    1        1.181  -6.617  -2.611  0.00  0.00    +0.166 HD
ATOM     12  C   LIG    1        0.680  -4.653  -2.130  0.00  0.00    +0.042 A 
ATOM     13  C   LIG    1        2.004  -3.948  -1.951  0.00  0.00    +0.133 C 
ATOM     14  N   LIG    1        1.771  -2.496  -2.010  0.00  0.00    -0.292 NA
ATOM     15  H   LIG    1        1.568  -2.200  -2.953  0.00  0.00    +0.124 HD
ENDROOT
BRANCH  13  16
ATOM     16  C   LIG    1        2.948  -4.358  -3.052  0.00  0.00    -0.011 A 
ATOM     17  C   LIG    1        3.029  -3.607  -4.209  0.00  0.00    +0.006 A 
ATOM     18  C   LIG    1        3.896  -3.982  -5.218  0.00  0.00    +0.000 A 
ATOM     19  C   LIG    1        4.682  -5.110  -5.071  0.00  0.00    +0.001 A 
ATOM     20  C   LIG    1        4.602  -5.862  -3.914  0.00  0.00    +0.015 A 
ATOM     21  C   LIG    1        3.739  -5.483  -2.901  0.00  0.00    +0.023 A 
ATOM     22 BR   LIG    1        3.634  -6.508  -1.315  0.00  0.00    -0.050 Br
ENDBRANCH  13  16
BRANCH   1  23
ATOM     23  C   LIG    1        0.688  -0.583  -0.972  0.00  0.00    +0.324 C 
ATOM     24  O   LIG    1        1.207   0.093  -1.828  0.00  0.00    -0.249 OA
BRANCH  23  26
ATOM     25  C   LIG    1        0.120   1.431   0.126  0.00  0.00    +0.280 C 
ATOM     26  O   LIG    1        0.097   0.003   0.081  0.00  0.00    -0.467 OA
ENDBRANCH  23  26
ENDBRANCH   1  23
TORSDOF 3
