REMARK  Name = ZINC26402350
REMARK                            x       y       z     vdW  Elec       q    Type
REMARK                         _______ _______ _______ _____ _____    ______ ____
ROOT
ATOM      1  S   LIG    1        0.058  -1.507   3.638  0.00  0.00    +0.078 S 
ATOM      2  O   LIG    1        1.312  -2.170   3.554  0.00  0.00    -0.150 OA
ATOM      3  O   LIG    1       -1.178  -2.205   3.578  0.00  0.00    -0.150 OA
ENDROOT
BRANCH   1   4
ATOM      4  C   LIG    1        0.060  -0.616   5.158  0.00  0.00    +0.151 A 
ATOM      5  C   LIG    1       -1.012  -0.722   6.023  0.00  0.00    +0.047 A 
ATOM      6  C   LIG    1       -1.011  -0.022   7.216  0.00  0.00    +0.020 A 
ATOM      7 BR   LIG    1       -2.480  -0.168   8.398  0.00  0.00    -0.050 Br
ATOM      8  C   LIG    1        0.063   0.785   7.546  0.00  0.00    +0.019 A 
ATOM      9  C   LIG    1        1.137   0.894   6.684  0.00  0.00    +0.049 A 
ATOM     10  C   LIG    1        1.140   0.189   5.489  0.00  0.00    +0.147 A 
BRANCH  10  11
ATOM     11  O   LIG    1        2.198   0.290   4.642  0.00  0.00    -0.493 OA
ATOM     12  C   LIG    1        3.276   1.137   5.048  0.00  0.00    +0.277 C 
ENDBRANCH  10  11
ENDBRANCH   1   4
BRANCH   1  13
ATOM     13  N   LIG    1        0.030  -0.391   2.415  0.00  0.00    -0.183 N 
ATOM     14  H   LIG    1        0.019   0.571   2.627  0.00  0.00    +0.177 HD
BRANCH  13  21
ATOM     15  C   LIG    1       -0.018   1.503   0.010  0.00  0.00    +0.051 C 
ATOM     16  C   LIG    1        0.002  -0.004   0.002  0.00  0.00    +0.035 A 
ATOM     17  C   LIG    1        0.008  -0.821  -1.136  0.00  0.00    +0.085 A 
ATOM     18  C   LIG    1       -0.006  -0.344  -2.566  0.00  0.00    +0.069 C 
ATOM     19  N   LIG    1        0.028  -2.066  -0.745  0.00  0.00    -0.081 NA
ATOM     20  O   LIG    1        0.035  -2.083   0.671  0.00  0.00    -0.338 OA
ATOM     21  C   LIG    1        0.024  -0.808   1.097  0.00  0.00    +0.240 A 
ENDBRANCH  13  21
ENDBRANCH   1  13
TORSDOF 4
