REMARK  Name = ZINC49051632
REMARK                            x       y       z     vdW  Elec       q    Type
REMARK                         _______ _______ _______ _____ _____    ______ ____
ROOT
ATOM      1  C   LIG    1        5.341   0.519   1.367  0.00  0.00    +0.220 A 
ATOM      2  N   LIG    1        4.669   0.205   2.425  0.00  0.00    -0.136 NA
ATOM      3  N   LIG    1        5.352   0.718   3.538  0.00  0.00    -0.240 N 
ATOM      4  C   LIG    1        6.452   1.343   3.065  0.00  0.00    +0.265 A 
ATOM      5  S   LIG    1        7.642   2.147   3.996  0.00  0.00    +0.011 S 
ATOM      6  O   LIG    1        6.440   1.211   1.727  0.00  0.00    -0.416 OA
ENDROOT
BRANCH   1   7
ATOM      7  C   LIG    1        4.960   0.161  -0.046  0.00  0.00    +0.133 C 
BRANCH   7  16
ATOM      8  C   LIG    1       -0.016   1.357   0.009  0.00  0.00    +0.001 A 
ATOM      9  C   LIG    1        1.169   2.091   0.002  0.00  0.00    +0.001 A 
ATOM     10  C   LIG    1        2.378   1.468  -0.013  0.00  0.00    +0.009 A 
ATOM     11  C   LIG    1        2.438   0.064  -0.021  0.00  0.00    -0.014 A 
ATOM     12  C   LIG    1        1.233  -0.683  -0.013  0.00  0.00    -0.018 A 
ATOM     13  C   LIG    1        1.292  -2.087  -0.021  0.00  0.00    +0.008 A 
ATOM     14  C   LIG    1        2.502  -2.709  -0.036  0.00  0.00    +0.001 A 
ATOM     15  C   LIG    1        3.687  -1.976  -0.043  0.00  0.00    +0.005 A 
ATOM     16  C   LIG    1        3.668  -0.615  -0.037  0.00  0.00    -0.031 A 
ATOM     17  C   LIG    1        0.002  -0.004   0.002  0.00  0.00    +0.008 A 
ENDBRANCH   7  16
ENDBRANCH   1   7
BRANCH   3  18
ATOM     18  C   LIG    1        4.949   0.600   4.941  0.00  0.00    +0.073 C 
BRANCH  18  19
ATOM     19  N   LIG    1        5.216  -0.765   5.414  0.00  0.00    +0.396 N 
ATOM     20  H   LIG    1        6.185  -0.994   5.253  0.00  0.00    -0.079 HD
ATOM     21  C   LIG    1        4.361  -1.712   4.684  0.00  0.00    -0.048 C 
ATOM     22  C   LIG    1        4.641  -3.133   5.178  0.00  0.00    +0.141 C 
ATOM     23  O   LIG    1        4.410  -3.196   6.588  0.00  0.00    -0.383 OA
ATOM     24  C   LIG    1        5.204  -2.275   7.341  0.00  0.00    +0.141 C 
ATOM     25  C   LIG    1        4.925  -0.852   6.852  0.00  0.00    -0.048 C 
ENDBRANCH  18  19
ENDBRANCH   3  18
TORSDOF 4
