REMARK  Name = ZINC00002284
REMARK                            x       y       z     vdW  Elec       q    Type
REMARK                         _______ _______ _______ _____ _____    ______ ____
ROOT
ATOM      1  C   LIG    1        2.582  -2.140   4.497  0.00  0.00    +0.230 C 
ENDROOT
BRANCH   1   2
ATOM      2  C   LIG    1        2.343  -1.248   5.716  0.00  0.00    +0.146 C 
ATOM      3  C   LIG    1        0.838  -1.064   5.929  0.00  0.00    -0.046 C 
ATOM      4  N   LIG    1        0.609  -0.262   7.146  0.00  0.00    +0.382 N 
ATOM      5  H   LIG    1        1.036   0.664   7.027  0.00  0.00    -0.086 HD
ATOM      6  H   LIG    1       -0.401  -0.157   7.298  0.00  0.00    -0.086 HD
ATOM      7  C   LIG    1        1.211  -0.929   8.316  0.00  0.00    -0.054 C 
ATOM      8  C   LIG    1        2.712  -1.115   8.079  0.00  0.00    +0.141 C 
ATOM      9  O   LIG    1        2.913  -1.861   6.876  0.00  0.00    -0.376 OA
ENDBRANCH   1   2
BRANCH   1  10
ATOM     10  C   LIG    1        4.063  -2.322   4.290  0.00  0.00    -0.005 A 
ATOM     11  C   LIG    1        4.799  -1.335   3.661  0.00  0.00    +0.007 A 
ATOM     12  C   LIG    1        6.159  -1.501   3.475  0.00  0.00    +0.000 A 
ATOM     13  C   LIG    1        6.781  -2.657   3.908  0.00  0.00    +0.000 A 
ATOM     14  C   LIG    1        6.044  -3.646   4.532  0.00  0.00    +0.000 A 
ATOM     15  C   LIG    1        4.685  -3.479   4.723  0.00  0.00    +0.007 A 
ENDBRANCH   1  10
BRANCH   1  16
ATOM     16  O   LIG    1        2.010  -1.528   3.339  0.00  0.00    -0.478 OA
BRANCH  16  22
ATOM     17  C   LIG    1        1.000  -1.839   1.202  0.00  0.00    +0.162 A 
ATOM     18  C   LIG    1        0.659  -2.679   0.155  0.00  0.00    +0.049 A 
ATOM     19  C   LIG    1        0.978  -4.023   0.215  0.00  0.00    +0.004 A 
ATOM     20  C   LIG    1        1.636  -4.532   1.319  0.00  0.00    +0.004 A 
ATOM     21  C   LIG    1        1.979  -3.699   2.367  0.00  0.00    +0.049 A 
ATOM     22  C   LIG    1        1.668  -2.349   2.311  0.00  0.00    +0.163 A 
BRANCH  17  23
ATOM     23  O   LIG    1        0.688  -0.516   1.145  0.00  0.00    -0.489 OA
BRANCH  23  25
ATOM     24  C   LIG    1       -0.258   1.442   0.089  0.00  0.00    +0.048 C 
ATOM     25  C   LIG    1        0.007  -0.061  -0.026  0.00  0.00    +0.226 C 
ENDBRANCH  23  25
ENDBRANCH  17  23
ENDBRANCH  16  22
ENDBRANCH   1  16
TORSDOF 6
