REMARK  Name = ZINC00023624
REMARK                            x       y       z     vdW  Elec       q    Type
REMARK                         _______ _______ _______ _____ _____    ______ ____
ROOT
ATOM      1  N   LIG    1       -1.230   2.079   0.019  0.00  0.00    -0.330 N 
ATOM      2  C   LIG    1       -1.019   3.464   0.026  0.00  0.00    +0.103 C 
ATOM      3  C   LIG    1       -2.339   4.238   0.240  0.00  0.00    -0.000 C 
ATOM      4  C   LIG    1       -3.130   4.222  -1.044  0.00  0.00    -0.081 C 
ATOM      5  N   LIG    1       -4.118   3.100  -1.127  0.00  0.00    +0.380 N 
ATOM      6  H   LIG    1       -4.944   3.342  -0.567  0.00  0.00    -0.086 HD
ATOM      7  H   LIG    1       -4.395   2.973  -2.107  0.00  0.00    -0.086 HD
ATOM      8  C   LIG    1       -3.547   1.817  -0.615  0.00  0.00    -0.063 C 
ATOM      9  C   LIG    1       -2.122   1.599  -1.056  0.00  0.00    +0.086 C 
ENDROOT
BRANCH   1  12
ATOM     10  C   LIG    1        1.234  -0.647  -0.013  0.00  0.00    +0.140 A 
ATOM     11  C   LIG    1        0.002  -0.004   0.002  0.00  0.00    +0.071 A 
ATOM     12  C   LIG    1       -0.017   1.387   0.010  0.00  0.00    +0.051 A 
ATOM     13  C   LIG    1        1.188   2.079   0.002  0.00  0.00    +0.134 A 
ATOM     14  N   LIG    1        2.337   1.433  -0.012  0.00  0.00    -0.258 NA
ATOM     15  C   LIG    1        2.394   0.116  -0.020  0.00  0.00    +0.156 A 
BRANCH  10  17
ATOM     16  C   LIG    1        2.607  -2.587  -0.036  0.00  0.00    +0.277 C 
ATOM     17  O   LIG    1        1.303  -2.004  -0.021  0.00  0.00    -0.494 OA
ENDBRANCH  10  17
ENDBRANCH   1  12
TORSDOF 2
