REMARK  Name = ZINC19228763
REMARK                            x       y       z     vdW  Elec       q    Type
REMARK                         _______ _______ _______ _____ _____    ______ ____
ROOT
ATOM      1  C   LIG    1       -0.761   1.925  -1.230  0.00  0.00    +0.261 C 
ENDROOT
BRANCH   1   2
ATOM      2  O   LIG    1       -0.039   1.546  -2.403  0.00  0.00    -0.489 OA
BRANCH   2   8
ATOM      3  C   LIG    1        0.092   1.597  -4.777  0.00  0.00    -0.002 A 
ATOM      4  C   LIG    1       -0.438   1.989  -5.992  0.00  0.00    +0.007 A 
ATOM      5  C   LIG    1       -1.615   2.714  -6.032  0.00  0.00    +0.001 A 
ATOM      6  C   LIG    1       -2.264   3.048  -4.858  0.00  0.00    +0.004 A 
ATOM      7  C   LIG    1       -1.742   2.654  -3.642  0.00  0.00    +0.046 A 
ATOM      8  C   LIG    1       -0.558   1.931  -3.598  0.00  0.00    +0.124 A 
BRANCH   3   9
ATOM      9  C   LIG    1        1.374   0.807  -4.734  0.00  0.00    +0.065 C 
BRANCH   9  11
ATOM     10  C   LIG    1        1.556  -1.487  -5.551  0.00  0.00    +0.004 C 
ATOM     11  C   LIG    1        1.056  -0.664  -4.663  0.00  0.00    -0.030 C 
ENDBRANCH   9  11
ENDBRANCH   3   9
ENDBRANCH   2   8
ENDBRANCH   1   2
BRANCH   1  12
ATOM     12  C   LIG    1       -0.029   1.408   0.010  0.00  0.00    +0.166 C 
BRANCH  12  13
ATOM     13  O   LIG    1       -0.038  -0.021   0.006  0.00  0.00    -0.387 OA
ATOM     14  H   LIG    1        0.445  -0.577   0.824  0.00  0.00    +0.210 HD
ENDBRANCH  12  13
BRANCH  12  15
ATOM     15  C   LIG    1       -0.733   1.918   1.269  0.00  0.00    +0.119 C 
BRANCH  15  16
ATOM     16  N   LIG    1       -0.023   1.432   2.459  0.00  0.00    -0.295 NA
ATOM     17  C   LIG    1       -0.884   1.493   3.648  0.00  0.00    +0.112 C 
ATOM     18  C   LIG    1       -0.127   0.922   4.850  0.00  0.00    +0.175 C 
ATOM     19  O   LIG    1        1.093   1.648   5.027  0.00  0.00    -0.377 OA
ATOM     20  C   LIG    1        1.956   1.609   3.888  0.00  0.00    +0.175 C 
ATOM     21  C   LIG    1        1.220   2.187   2.676  0.00  0.00    +0.112 C 
ENDBRANCH  15  16
ENDBRANCH  12  15
ENDBRANCH   1  12
TORSDOF 8
