REMARK  Name = ZINC58599618
REMARK                            x       y       z     vdW  Elec       q    Type
REMARK                         _______ _______ _______ _____ _____    ______ ____
ROOT
ATOM      1  C   LIG    1        6.144   1.413  -0.050  0.00  0.00    +0.069 A 
ATOM      2  C   LIG    1        7.218   0.510  -0.071  0.00  0.00    +0.047 A 
ATOM      3  C   LIG    1        8.502   1.016  -0.082  0.00  0.00    +0.116 A 
ATOM      4  N   LIG    1        8.683   2.329  -0.072  0.00  0.00    -0.223 NA
ATOM      5  C   LIG    1        7.652   3.162  -0.052  0.00  0.00    +0.213 A 
ATOM      6  N   LIG    1        6.403   2.724  -0.046  0.00  0.00    -0.215 NA
ENDROOT
BRANCH   5   7
ATOM      7  N   LIG    1        7.887   4.526  -0.042  0.00  0.00    -0.327 N 
ATOM      8  H   LIG    1        7.142   5.146  -0.028  0.00  0.00    +0.145 HD
ATOM      9  H   LIG    1        8.797   4.861  -0.050  0.00  0.00    +0.145 HD
ENDBRANCH   5   7
BRANCH   1  11
ATOM     10  C   LIG    1        3.734   1.805  -0.025  0.00  0.00    +0.017 C 
ATOM     11  C   LIG    1        4.758   0.926  -0.039  0.00  0.00    +0.029 C 
BRANCH  10  14
ATOM     12  C   LIG    1       -0.016   1.356   0.009  0.00  0.00    +0.008 A 
ATOM     13  C   LIG    1        1.172   2.045   0.002  0.00  0.00    +0.015 A 
ATOM     14  C   LIG    1        2.353   1.320  -0.013  0.00  0.00    +0.012 A 
ATOM     15  S   LIG    1        1.751  -0.361  -0.017  0.00  0.00    -0.097 S 
ATOM     16  C   LIG    1        0.002  -0.004   0.002  0.00  0.00    +0.046 A 
ENDBRANCH  10  14
ENDBRANCH   1  11
TORSDOF 3
