REMARK  Name = ZINC68199923
REMARK                            x       y       z     vdW  Elec       q    Type
REMARK                         _______ _______ _______ _____ _____    ______ ____
ROOT
ATOM      1  C   LIG    1       -0.005   1.356  -0.246  0.00  0.00    +0.006 A 
ATOM      2  C   LIG    1        1.181   2.064  -0.255  0.00  0.00    +0.024 A 
ATOM      3  C   LIG    1        2.381   1.409  -0.013  0.00  0.00    +0.037 A 
ATOM      4  C   LIG    1        2.385   0.043   0.236  0.00  0.00    +0.024 A 
ATOM      5  C   LIG    1        1.196  -0.660   0.243  0.00  0.00    +0.006 A 
ATOM      6  C   LIG    1        0.002  -0.004   0.002  0.00  0.00    -0.044 A 
ENDROOT
BRANCH   3   7
ATOM      7  N   LIG    1        3.583   2.123  -0.021  0.00  0.00    -0.264 N 
ATOM      8  C   LIG    1        4.575   1.886  -1.071  0.00  0.00    +0.155 C 
ATOM      9  C   LIG    1        4.581   3.023  -2.084  0.00  0.00    +0.250 C 
ATOM     10  O   LIG    1        4.553   4.294  -1.444  0.00  0.00    -0.474 OA
ATOM     11  C   LIG    1        5.375   4.468  -0.385  0.00  0.00    +0.232 A 
ATOM     12  C   LIG    1        5.061   3.848   0.838  0.00  0.00    +0.138 A 
ATOM     13  C   LIG    1        5.930   4.029   1.925  0.00  0.00    +0.135 A 
ATOM     14  N   LIG    1        7.011   4.789   1.747  0.00  0.00    -0.220 NA
ATOM     15  C   LIG    1        7.261   5.354   0.584  0.00  0.00    +0.227 A 
ATOM     16  N   LIG    1        6.472   5.206  -0.464  0.00  0.00    -0.201 NA
ATOM     17  C   LIG    1        3.837   3.045   0.941  0.00  0.00    +0.259 C 
ATOM     18  O   LIG    1        3.069   3.200   1.871  0.00  0.00    -0.269 OA
BRANCH  13  19
ATOM     19  N   LIG    1        5.672   3.439   3.144  0.00  0.00    -0.342 N 
ATOM     20  H   LIG    1        6.281   3.573   3.886  0.00  0.00    +0.144 HD
ATOM     21  H   LIG    1        4.881   2.889   3.259  0.00  0.00    +0.144 HD
ENDBRANCH  13  19
ENDBRANCH   3   7
BRANCH   6  22
ATOM     22  C   LIG    1       -1.294  -0.774   0.011  0.00  0.00    +0.019 C 
ATOM     23  C   LIG    1       -1.247  -1.863  -1.062  0.00  0.00    +0.008 C 
ATOM     24  C   LIG    1       -2.562  -2.645  -1.053  0.00  0.00    +0.004 C 
ATOM     25  C   LIG    1       -2.763  -3.289   0.320  0.00  0.00    -0.000 C 
ATOM     26  C   LIG    1       -2.810  -2.200   1.393  0.00  0.00    +0.004 C 
ATOM     27  C   LIG    1       -1.495  -1.418   1.384  0.00  0.00    +0.008 C 
BRANCH  25  28
ATOM     28  C   LIG    1       -4.079  -4.071   0.329  0.00  0.00    +0.124 C 
BRANCH  28  29
ATOM     29  C   LIG    1       -4.218  -4.805   1.637  0.00  0.00    +0.305 C 
ATOM     30  O   LIG    1       -3.346  -4.713   2.484  0.00  0.00    -0.251 OA
BRANCH  29  31
ATOM     31  O   LIG    1       -5.202  -5.492   1.849  0.00  0.00    -0.481 OA
ATOM     32  H   LIG    1       -5.873  -5.564   1.198  0.00  0.00    +0.295 HD
ENDBRANCH  29  31
ENDBRANCH  28  29
ENDBRANCH  25  28
ENDBRANCH   6  22
TORSDOF 6
