REMARK  Name = ZINC27405635
REMARK                            x       y       z     vdW  Elec       q    Type
REMARK                         _______ _______ _______ _____ _____    ______ ____
ROOT
ATOM      1  C   LIG    1        3.422   6.155  -0.774  0.00  0.00    +0.022 A 
ATOM      2  C   LIG    1        2.265   5.437  -0.747  0.00  0.00    +0.030 A 
ATOM      3  C   LIG    1        2.293   4.082  -0.377  0.00  0.00    +0.077 A 
ATOM      4  C   LIG    1        3.532   3.488  -0.039  0.00  0.00    +0.023 A 
ATOM      5  C   LIG    1        3.555   2.121   0.331  0.00  0.00    +0.042 A 
ATOM      6  C   LIG    1        2.357   1.425   0.345  0.00  0.00    +0.035 A 
ATOM      7  C   LIG    1        1.174   2.076   0.002  0.00  0.00    +0.220 A 
ATOM      8  O   LIG    1       -0.017   1.423   0.010  0.00  0.00    -0.476 OA
ATOM      9  C   LIG    1        0.002  -0.004   0.002  0.00  0.00    +0.231 C 
ATOM     10  C   LIG    1        0.959  -0.482   1.102  0.00  0.00    +0.046 C 
ATOM     11  C   LIG    1        2.375  -0.030   0.735  0.00  0.00    +0.046 C 
ATOM     12  C   LIG    1        4.704   4.254  -0.077  0.00  0.00    +0.031 A 
ATOM     13  N   LIG    1        1.173   3.353  -0.343  0.00  0.00    -0.213 NA
ATOM     14  C   LIG    1        4.640   5.567  -0.441  0.00  0.00    +0.042 A 
ATOM     15 CL   LIG    1        6.092   6.516  -0.490  0.00  0.00    -0.084 Cl
ENDROOT
BRANCH   5  16
ATOM     16  N   LIG    1        4.745   1.496   0.672  0.00  0.00    -0.357 N 
ATOM     17  H   LIG    1        5.688   2.063   0.657  0.00  0.00    +0.142 HD
ATOM     18  H   LIG    1        4.746   0.434   0.958  0.00  0.00    +0.142 HD
ENDBRANCH   5  16
TORSDOF 1
