REMARK  Name = ZINC35077985
REMARK                            x       y       z     vdW  Elec       q    Type
REMARK                         _______ _______ _______ _____ _____    ______ ____
ROOT
ATOM      1  C   LIG    1       -2.069  -0.646  -1.176  0.00  0.00    +0.217 A 
ATOM      2  N   LIG    1       -1.476  -0.317  -2.314  0.00  0.00    -0.221 NA
ATOM      3  C   LIG    1       -2.110  -0.433  -3.472  0.00  0.00    +0.137 A 
ATOM      4  C   LIG    1       -3.409  -0.904  -3.486  0.00  0.00    +0.099 A 
ATOM      5 CL   LIG    1       -4.276  -1.070  -4.981  0.00  0.00    -0.078 Cl
ATOM      6  C   LIG    1       -4.009  -1.242  -2.271  0.00  0.00    +0.148 A 
ATOM      7  N   LIG    1       -3.311  -1.106  -1.148  0.00  0.00    -0.198 NA
ENDROOT
BRANCH   1   8
ATOM      8  N   LIG    1       -1.372  -0.511   0.012  0.00  0.00    -0.305 N 
ATOM      9  H   LIG    1       -1.794  -0.752   0.852  0.00  0.00    +0.150 HD
BRANCH   8  11
ATOM     10  C   LIG    1       -0.019   1.526   0.010  0.00  0.00    +0.034 C 
ATOM     11  C   LIG    1        0.002  -0.004   0.002  0.00  0.00    +0.119 C 
BRANCH  11  12
ATOM     12  C   LIG    1        0.731  -0.503   1.223  0.00  0.00    +0.061 A 
ATOM     13  C   LIG    1        2.109  -0.608   1.200  0.00  0.00    +0.028 A 
ATOM     14  C   LIG    1        2.771  -1.068   2.327  0.00  0.00    +0.042 A 
ATOM     15  C   LIG    1        2.017  -1.408   3.443  0.00  0.00    +0.141 A 
ATOM     16  F   LIG    1        2.620  -1.861   4.564  0.00  0.00    -0.204 F 
ATOM     17  C   LIG    1        0.640  -1.276   3.391  0.00  0.00    +0.149 A 
ATOM     18  N   LIG    1        0.047  -0.830   2.302  0.00  0.00    -0.255 NA
ENDBRANCH  11  12
ENDBRANCH   8  11
ENDBRANCH   1   8
BRANCH   6  19
ATOM     19  N   LIG    1       -5.311  -1.719  -2.237  0.00  0.00    -0.283 N 
ATOM     20  H   LIG    1       -5.812  -1.819  -3.061  0.00  0.00    +0.155 HD
BRANCH  19  21
ATOM     21  C   LIG    1       -5.899  -2.054  -1.019  0.00  0.00    +0.121 A 
ATOM     22  C   LIG    1       -5.317  -1.959   0.208  0.00  0.00    +0.109 A 
ATOM     23  C   LIG    1       -6.250  -2.394   1.159  0.00  0.00    +0.211 A 
ATOM     24  N   LIG    1       -7.349  -2.737   0.532  0.00  0.00    -0.268 N 
ATOM     25  H   LIG    1       -8.157  -3.075   0.948  0.00  0.00    +0.190 HD
ATOM     26  N   LIG    1       -7.158  -2.529  -0.840  0.00  0.00    -0.284 N 
ATOM     27  H   LIG    1       -7.810  -2.696  -1.538  0.00  0.00    +0.188 HD
BRANCH  23  28
ATOM     28  O   LIG    1       -6.049  -2.451   2.503  0.00  0.00    -0.474 OA
BRANCH  28  29
ATOM     29  C   LIG    1       -7.134  -2.927   3.301  0.00  0.00    +0.169 C 
ATOM     30  C   LIG    1       -7.078  -2.269   4.682  0.00  0.00    +0.051 C 
ATOM     31  C   LIG    1       -7.026  -4.445   3.455  0.00  0.00    +0.051 C 
ENDBRANCH  28  29
ENDBRANCH  23  28
ENDBRANCH  19  21
ENDBRANCH   6  19
TORSDOF 7
