REMARK  Name = ZINC28951410
REMARK                            x       y       z     vdW  Elec       q    Type
REMARK                         _______ _______ _______ _____ _____    ______ ____
ROOT
ATOM      1  N   LIG    1        0.167  -2.796  -0.215  0.00  0.00    -0.213 N 
ATOM      2  H   LIG    1        0.295  -2.471   0.689  0.00  0.00    +0.174 HD
ENDROOT
BRANCH   1   8
ATOM      3  C   LIG    1        0.855  -0.729  -1.269  0.00  0.00    +0.142 A 
ATOM      4  C   LIG    1        1.439  -0.058  -2.332  0.00  0.00    +0.048 A 
ATOM      5  C   LIG    1        1.915  -0.763  -3.419  0.00  0.00    +0.012 A 
ATOM      6  C   LIG    1        1.811  -2.152  -3.450  0.00  0.00    -0.016 A 
ATOM      7  C   LIG    1        1.225  -2.830  -2.383  0.00  0.00    +0.036 A 
ATOM      8  C   LIG    1        0.752  -2.119  -1.292  0.00  0.00    +0.090 A 
BRANCH   6   9
ATOM      9  C   LIG    1        2.323  -2.910  -4.619  0.00  0.00    -0.018 A 
ATOM     10  C   LIG    1        2.214  -4.298  -4.655  0.00  0.00    +0.008 A 
ATOM     11  C   LIG    1        2.692  -4.998  -5.745  0.00  0.00    +0.001 A 
ATOM     12  C   LIG    1        3.278  -4.322  -6.800  0.00  0.00    +0.000 A 
ATOM     13  C   LIG    1        3.389  -2.944  -6.770  0.00  0.00    +0.001 A 
ATOM     14  C   LIG    1        2.909  -2.234  -5.688  0.00  0.00    +0.008 A 
ENDBRANCH   6   9
BRANCH   3  16
ATOM     15  C   LIG    1        0.524   1.391  -0.243  0.00  0.00    +0.277 C 
ATOM     16  O   LIG    1        0.387  -0.031  -0.200  0.00  0.00    -0.493 OA
ENDBRANCH   3  16
ENDBRANCH   1   8
BRANCH   1  17
ATOM     17  S   LIG    1       -0.744  -4.152  -0.487  0.00  0.00    +0.076 S 
ATOM     18  O   LIG    1       -1.304  -4.523   0.766  0.00  0.00    -0.150 OA
ATOM     19  O   LIG    1        0.063  -5.037  -1.252  0.00  0.00    -0.150 OA
BRANCH  17  20
ATOM     20  C   LIG    1       -2.090  -3.678  -1.520  0.00  0.00    +0.152 A 
ATOM     21  C   LIG    1       -2.200  -4.199  -2.795  0.00  0.00    +0.052 A 
ATOM     22  C   LIG    1       -3.256  -3.827  -3.607  0.00  0.00    +0.044 A 
ATOM     23 CL   LIG    1       -3.392  -4.484  -5.208  0.00  0.00    -0.083 Cl
ATOM     24  C   LIG    1       -4.205  -2.932  -3.144  0.00  0.00    +0.043 A 
ATOM     25  C   LIG    1       -4.098  -2.408  -1.870  0.00  0.00    +0.086 A 
ATOM     26 CL   LIG    1       -5.288  -1.284  -1.290  0.00  0.00    -0.080 Cl
ATOM     27  C   LIG    1       -3.042  -2.785  -1.052  0.00  0.00    +0.162 A 
BRANCH  27  28
ATOM     28  O   LIG    1       -2.938  -2.276   0.204  0.00  0.00    -0.503 OA
ATOM     29  H   LIG    1       -2.225  -2.531   0.756  0.00  0.00    +0.292 HD
ENDBRANCH  27  28
ENDBRANCH  17  20
ENDBRANCH   1  17
TORSDOF 6
