REMARK  Name = ZINC26393497
REMARK                            x       y       z     vdW  Elec       q    Type
REMARK                         _______ _______ _______ _____ _____    ______ ____
ROOT
ATOM      1  C   LIG    1        6.646   5.814  -3.366  0.00  0.00    +0.016 C 
ATOM      2  C   LIG    1        6.915   6.775  -2.212  0.00  0.00    -0.008 C 
ATOM      3  C   LIG    1        7.032   8.192  -2.797  0.00  0.00    +0.014 C 
ATOM      4  C   LIG    1        8.212   8.286  -3.759  0.00  0.00    +0.032 C 
ATOM      5  C   LIG    1        9.523   7.959  -3.048  0.00  0.00    +0.119 C 
ATOM      6  C   LIG    1        9.473   6.530  -2.506  0.00  0.00    +0.062 C 
ATOM      7  C   LIG    1        5.788   6.743  -1.205  0.00  0.00    +0.003 C 
ATOM      8  C   LIG    1        4.407   6.608  -1.824  0.00  0.00    +0.005 C 
ATOM      9  C   LIG    1        3.976   5.194  -2.137  0.00  0.00    +0.013 C 
ATOM     10  C   LIG    1        4.419   4.109  -1.202  0.00  0.00    +0.012 C 
ATOM     11  C   LIG    1        4.427   2.784  -1.986  0.00  0.00    +0.018 C 
ATOM     12  C   LIG    1        5.826   4.301  -0.600  0.00  0.00    +0.008 C 
ATOM     13  C   LIG    1        5.688   3.387   0.657  0.00  0.00    +0.033 C 
ATOM     14  C   LIG    1        4.224   3.516   1.029  0.00  0.00    -0.004 C 
ATOM     15  C   LIG    1        3.517   3.924  -0.010  0.00  0.00    +0.027 C 
ATOM     16  C   LIG    1        5.969   5.733  -0.086  0.00  0.00    +0.001 C 
ATOM     17  C   LIG    1        7.304   5.941   0.614  0.00  0.00    +0.031 C 
ATOM     18  C   LIG    1        8.418   6.034  -0.385  0.00  0.00    -0.027 C 
ATOM     19  C   LIG    1        8.248   6.412  -1.615  0.00  0.00    -0.065 C 
ENDROOT
BRANCH  15  20
ATOM     20  N   LIG    1        2.139   4.138   0.004  0.00  0.00    -0.304 N 
ATOM     21  C   LIG    1        1.509   5.347   0.016  0.00  0.00    +0.179 A 
ATOM     22  N   LIG    1        0.219   5.178   0.028  0.00  0.00    -0.346 N 
ATOM     23  H   LIG    1       -0.450   6.051   0.039  0.00  0.00    +0.167 HD
ATOM     24  C   LIG    1       -0.069   3.850   0.023  0.00  0.00    +0.064 A 
ATOM     25  C   LIG    1       -1.263   3.124   0.031  0.00  0.00    +0.028 A 
ATOM     26  C   LIG    1       -1.226   1.748   0.017  0.00  0.00    +0.002 A 
ATOM     27  C   LIG    1       -0.013   1.076   0.008  0.00  0.00    +0.002 A 
ATOM     28  C   LIG    1        1.175   1.777   0.000  0.00  0.00    +0.028 A 
ATOM     29  C   LIG    1        1.157   3.164   0.008  0.00  0.00    +0.071 A 
ENDBRANCH  15  20
BRANCH   5  30
ATOM     30  O   LIG    1       10.609   8.079  -3.972  0.00  0.00    -0.391 OA
ATOM     31  H   LIG    1       11.638   7.880  -3.639  0.00  0.00    +0.210 HD
ENDBRANCH   5  30
TORSDOF 2
