REMARK  Name = ZINC34307313
REMARK                            x       y       z     vdW  Elec       q    Type
REMARK                         _______ _______ _______ _____ _____    ______ ____
ROOT
ATOM      1  C   LIG    1        1.688   1.678  -0.263  0.00  0.00    +0.012 C 
ATOM      2  C   LIG    1        0.954   0.387   0.086  0.00  0.00    -0.018 C 
ATOM      3  C   LIG    1       -0.354   0.682   0.779  0.00  0.00    +0.008 C 
ATOM      4  C   LIG    1       -0.062   1.290   2.166  0.00  0.00    +0.005 C 
ATOM      5  C   LIG    1        0.766   0.347   3.020  0.00  0.00    +0.003 C 
ATOM      6  C   LIG    1        2.074  -0.056   2.327  0.00  0.00    +0.000 C 
ATOM      7  C   LIG    1        3.055   1.111   2.393  0.00  0.00    +0.031 C 
ATOM      8  C   LIG    1        3.389   1.294   3.858  0.00  0.00    -0.023 C 
ATOM      9  C   LIG    1        2.432   1.144   4.768  0.00  0.00    -0.045 C 
ATOM     10  C   LIG    1        2.778   1.325   6.186  0.00  0.00    +0.014 C 
ATOM     11  C   LIG    1        1.907   0.961   7.147  0.00  0.00    +0.037 C 
ATOM     12  C   LIG    1        0.579   0.330   6.863  0.00  0.00    +0.043 C 
ATOM     13  C   LIG    1        0.489  -0.207   5.440  0.00  0.00    +0.016 C 
ATOM     14  C   LIG    1        1.003   0.827   4.432  0.00  0.00    -0.004 C 
ATOM     15  C   LIG    1        0.209   2.112   4.661  0.00  0.00    +0.016 C 
ATOM     16  C   LIG    1        0.848  -0.440  -1.210  0.00  0.00    +0.081 C 
ATOM     17  C   LIG    1        2.247  -1.098  -1.345  0.00  0.00    +0.013 C 
ATOM     18  C   LIG    1        2.957  -0.908   0.026  0.00  0.00    +0.005 C 
ATOM     19  C   LIG    1        1.786  -0.575   0.958  0.00  0.00    -0.001 C 
ENDROOT
BRANCH  16  20
ATOM     20  C   LIG    1        0.578   0.469  -2.377  0.00  0.00    +0.217 C 
ATOM     21  N   LIG    1        1.136   0.211  -3.576  0.00  0.00    -0.310 N 
ATOM     22  H   LIG    1        1.712  -0.561  -3.687  0.00  0.00    +0.149 HD
ATOM     23  O   LIG    1       -0.142   1.435  -2.239  0.00  0.00    -0.275 OA
BRANCH  21  24
ATOM     24  C   LIG    1        0.873   1.097  -4.713  0.00  0.00    +0.026 C 
ATOM     25  C   LIG    1       -0.629   1.123  -5.002  0.00  0.00    +0.031 C 
ATOM     26  C   LIG    1        1.621   0.583  -5.945  0.00  0.00    +0.031 C 
ATOM     27  C   LIG    1        1.353   2.511  -4.379  0.00  0.00    +0.031 C 
ENDBRANCH  21  24
ENDBRANCH  16  20
BRANCH  11  28
ATOM     28  C   LIG    1        2.264   1.188   8.495  0.00  0.00    +0.333 C 
ATOM     29  O   LIG    1        3.343   1.703   8.765  0.00  0.00    -0.245 OA
BRANCH  28  30
ATOM     30  O   LIG    1        1.496   0.871   9.395  0.00  0.00    -0.477 OA
ATOM     31  H   LIG    1        0.671   0.477   9.189  0.00  0.00    +0.295 HD
ENDBRANCH  28  30
ENDBRANCH  11  28
TORSDOF 4
