REMARK  Name = ZINC34031218
REMARK                            x       y       z     vdW  Elec       q    Type
REMARK                         _______ _______ _______ _____ _____    ______ ____
ROOT
ATOM      1  C   LIG    1       -2.169   1.056   1.276  0.00  0.00    +0.004 C 
ATOM      2  C   LIG    1       -2.908   1.554   0.031  0.00  0.00    +0.002 C 
ATOM      3  C   LIG    1       -2.186   1.050  -1.219  0.00  0.00    -0.025 C 
ATOM      4  C   LIG    1       -2.915   1.531  -2.474  0.00  0.00    -0.078 C 
ATOM      5  N   LIG    1       -2.201   1.051  -3.665  0.00  0.00    +0.388 N 
ATOM      6  H1  LIG    1       -2.739   1.372  -4.569  0.00  0.00    -0.085 HD
ATOM      7  H2  LIG    1       -2.147  -0.048  -3.642  0.00  0.00    -0.085 HD
ATOM      8  CA  LIG    1       -0.835   1.583  -3.722  0.00  0.00    +0.039 C 
ATOM      9  C   LIG    1       -0.045   1.113  -2.497  0.00  0.00    -0.001 C 
ATOM     10  C   LIG    1       -0.754   1.593  -1.229  0.00  0.00    -0.010 C 
ATOM     11  C   LIG    1       -0.013   1.086   0.008  0.00  0.00    +0.007 C 
ATOM     12  C   LIG    1       -0.731   1.580   1.266  0.00  0.00    -0.010 C 
ENDROOT
BRANCH   8  13
ATOM     13  C   LIG    1       -0.156   1.092  -4.975  0.00  0.00    +0.291 C 
ATOM     14  O   LIG    1       -0.580   0.117  -5.548  0.00  0.00    -0.253 OA
BRANCH  13  15
ATOM     15  OXT LIG    1        0.918   1.738  -5.454  0.00  0.00    -0.482 OA
ATOM     16  HXT LIG    1        1.247   2.495  -5.009  0.00  0.00    +0.295 HD
ENDBRANCH  13  15
ENDBRANCH   8  13
BRANCH  12  17
ATOM     17  C   LIG    1        0.007   1.072   2.506  0.00  0.00    +0.011 C 
BRANCH  17  18
ATOM     18  C   LIG    1       -0.636   1.667   3.761  0.00  0.00    +0.078 C 
BRANCH  18  19
ATOM     19  C   LIG    1        0.091   1.166   4.983  0.00  0.00    +0.149 A 
ATOM     20  N   LIG    1        1.141   1.739   5.572  0.00  0.00    -0.114 NA
ATOM     21  N   LIG    1        1.464   1.003   6.582  0.00  0.00    -0.023 NA
ATOM     22  N   LIG    1        0.662  -0.004   6.633  0.00  0.00    -0.047 NA
ATOM     23  N   LIG    1       -0.189   0.086   5.669  0.00  0.00    -0.243 N 
ATOM     24  H   LIG    1       -0.920  -0.547   5.481  0.00  0.00    +0.192 HD
ENDBRANCH  18  19
ENDBRANCH  17  18
ENDBRANCH  12  17
TORSDOF 5
