REMARK  Name = ZINC39716080
REMARK                            x       y       z     vdW  Elec       q    Type
REMARK                         _______ _______ _______ _____ _____    ______ ____
ROOT
ATOM      1  C   LIG    1       -0.493  -2.397   0.885  0.00  0.00    +0.257 C 
ATOM      2  N   LIG    1       -1.630  -1.706   0.667  0.00  0.00    -0.281 N 
ATOM      3  H   LIG    1       -1.985  -1.628  -0.233  0.00  0.00    +0.155 HD
ATOM      4  O   LIG    1       -0.091  -2.564   2.021  0.00  0.00    -0.270 OA
ENDROOT
BRANCH   1  11
ATOM      5  C   LIG    1        1.274  -2.202  -0.864  0.00  0.00    +0.139 A 
ATOM      6  C   LIG    1        1.972  -2.770  -1.942  0.00  0.00    +0.064 A 
ATOM      7  C   LIG    1        1.658  -4.014  -2.372  0.00  0.00    +0.098 A 
ATOM      8  N   LIG    1        0.672  -4.737  -1.780  0.00  0.00    -0.283 N 
ATOM      9  C   LIG    1       -0.031  -4.244  -0.743  0.00  0.00    +0.271 A 
ATOM     10  O   LIG    1       -0.911  -4.912  -0.229  0.00  0.00    -0.266 OA
ATOM     11  C   LIG    1        0.258  -2.949  -0.248  0.00  0.00    +0.143 A 
BRANCH   8  12
ATOM     12  C   LIG    1        0.380  -6.021  -2.259  0.00  0.00    +0.050 A 
ATOM     13  C   LIG    1       -0.842  -6.274  -2.869  0.00  0.00    +0.029 A 
ATOM     14  C   LIG    1       -1.128  -7.541  -3.340  0.00  0.00    +0.040 A 
ATOM     15  C   LIG    1       -0.197  -8.557  -3.204  0.00  0.00    +0.124 A 
ATOM     16  F   LIG    1       -0.479  -9.796  -3.665  0.00  0.00    -0.205 F 
ATOM     17  C   LIG    1        1.021  -8.307  -2.596  0.00  0.00    +0.040 A 
ATOM     18  C   LIG    1        1.313  -7.040  -2.129  0.00  0.00    +0.029 A 
ENDBRANCH   8  12
BRANCH   5  19
ATOM     19  O   LIG    1        1.578  -0.961  -0.425  0.00  0.00    -0.491 OA
BRANCH  19  21
ATOM     20  C   LIG    1        1.371   0.911   1.090  0.00  0.00    +0.048 C 
ATOM     21  C   LIG    1        0.863  -0.483   0.716  0.00  0.00    +0.226 C 
ENDBRANCH  19  21
ENDBRANCH   5  19
ENDBRANCH   1  11
BRANCH   2  22
ATOM     22  C   LIG    1       -2.297  -1.100   1.738  0.00  0.00    +0.037 A 
ATOM     23  C   LIG    1       -1.594  -0.739   2.880  0.00  0.00    +0.027 A 
ATOM     24  C   LIG    1       -2.252  -0.142   3.937  0.00  0.00    +0.051 A 
ATOM     25  C   LIG    1       -3.616   0.098   3.859  0.00  0.00    +0.164 A 
ATOM     26  C   LIG    1       -4.321  -0.263   2.718  0.00  0.00    +0.167 A 
ATOM     27  F   LIG    1       -5.650  -0.029   2.643  0.00  0.00    -0.202 F 
ATOM     28  C   LIG    1       -3.662  -0.855   1.657  0.00  0.00    +0.065 A 
BRANCH  25  29
ATOM     29  O   LIG    1       -4.263   0.686   4.901  0.00  0.00    -0.452 OA
BRANCH  29  30
ATOM     30  C   LIG    1       -4.880  -0.118   5.803  0.00  0.00    +0.152 A 
ATOM     31  C   LIG    1       -4.759  -1.506   5.725  0.00  0.00    +0.067 A 
ATOM     32  C   LIG    1       -5.399  -2.292   6.658  0.00  0.00    +0.116 A 
ATOM     33  N   LIG    1       -6.122  -1.750   7.621  0.00  0.00    -0.239 NA
ATOM     34  C   LIG    1       -6.264  -0.438   7.732  0.00  0.00    +0.138 A 
ATOM     35  C   LIG    1       -5.645   0.421   6.832  0.00  0.00    +0.122 A 
ATOM     36 CL   LIG    1       -5.828   2.140   6.986  0.00  0.00    -0.076 Cl
BRANCH  34  37
ATOM     37  N   LIG    1       -7.037   0.086   8.764  0.00  0.00    -0.342 N 
ATOM     38  H   LIG    1       -7.144   1.047   8.850  0.00  0.00    +0.144 HD
ATOM     39  H   LIG    1       -7.468  -0.508   9.397  0.00  0.00    +0.144 HD
ENDBRANCH  34  37
ENDBRANCH  29  30
ENDBRANCH  25  29
ENDBRANCH   2  22
TORSDOF 8
