REMARK  Name = ZINC33671247
REMARK                            x       y       z     vdW  Elec       q    Type
REMARK                         _______ _______ _______ _____ _____    ______ ____
ROOT
ATOM      1  C   UNK    1        2.169   1.490   1.211  0.00  0.00    +0.015 C 
ATOM      2  C   UNK    1        2.126  -0.039   1.168  0.00  0.00    -0.079 C 
ATOM      3  N   UNK    1        0.729  -0.491   1.181  0.00  0.00    +0.384 N 
ATOM      4  H   UNK    1        0.229  -0.111   2.084  0.00  0.00    -0.085 HD
ATOM      5  H   UNK    1        0.700  -1.591   1.182  0.00  0.00    -0.085 HD
ATOM      6  C   UNK    1        0.002  -0.004   0.002  0.00  0.00    -0.014 C 
ATOM      7  C   UNK    1       -0.019   1.526   0.010  0.00  0.00    +0.131 C 
ATOM      8  C   UNK    1        1.420   2.051  -0.001  0.00  0.00    +0.140 C 
ENDROOT
BRANCH   7   9
ATOM      9  O   UNK    1       -0.709   2.000  -1.148  0.00  0.00    -0.391 OA
ATOM     10  H   UNK    1       -0.825   3.081  -1.314  0.00  0.00    +0.210 HD
ENDBRANCH   7   9
BRANCH   8  11
ATOM     11  O   UNK    1        2.072   1.632  -1.201  0.00  0.00    -0.389 OA
ATOM     12  H   UNK    1        1.674   1.941  -2.179  0.00  0.00    +0.210 HD
ENDBRANCH   8  11
BRANCH   6  13
ATOM     13  C   UNK    1       -1.433  -0.533   0.033  0.00  0.00    +0.143 C 
BRANCH  13  14
ATOM     14  O   UNK    1       -1.418  -1.957  -0.092  0.00  0.00    -0.397 OA
ATOM     15  H   UNK    1       -2.364  -2.519  -0.090  0.00  0.00    +0.209 HD
ENDBRANCH  13  14
ENDBRANCH   6  13
TORSDOF 4
