REMARK  Name = ZINC26945880
REMARK                            x       y       z     vdW  Elec       q    Type
REMARK                         _______ _______ _______ _____ _____    ______ ____
ROOT
ATOM      1  C   LIG    1        1.226  -4.523  -1.451  0.00  0.00    +0.171 A 
ATOM      2  N   LIG    1        1.242  -5.096  -0.272  0.00  0.00    -0.222 NA
ATOM      3  C   LIG    1        1.252  -6.447  -0.421  0.00  0.00    +0.090 A 
ATOM      4  C   LIG    1        1.269  -7.512   0.483  0.00  0.00    +0.030 A 
ATOM      5  C   LIG    1        1.276  -8.806   0.015  0.00  0.00    +0.002 A 
ATOM      6  C   LIG    1        1.266  -9.062  -1.349  0.00  0.00    +0.002 A 
ATOM      7  C   LIG    1        1.248  -8.021  -2.254  0.00  0.00    +0.028 A 
ATOM      8  C   LIG    1        1.241  -6.711  -1.800  0.00  0.00    +0.070 A 
ATOM      9  N   LIG    1        1.219  -5.476  -2.429  0.00  0.00    -0.314 N 
ENDROOT
BRANCH   1  10
ATOM     10  S   LIG    1        1.209  -2.784  -1.731  0.00  0.00    -0.083 S 
BRANCH  10  11
ATOM     11  C   LIG    1        1.220  -2.190  -0.021  0.00  0.00    +0.112 C 
BRANCH  11  15
ATOM     12  C   LIG    1        1.185   2.087   0.002  0.00  0.00    +0.059 A 
ATOM     13  C   LIG    1       -0.017   1.375   0.010  0.00  0.00    +0.015 A 
ATOM     14  C   LIG    1        0.002  -0.004   0.002  0.00  0.00    +0.005 A 
ATOM     15  C   LIG    1        1.208  -0.683  -0.013  0.00  0.00    -0.037 A 
ATOM     16  C   LIG    1        2.402   0.016  -0.020  0.00  0.00    +0.005 A 
ATOM     17  C   LIG    1        2.398   1.395  -0.012  0.00  0.00    +0.015 A 
BRANCH  12  18
ATOM     18  C   LIG    1        1.173   3.564   0.009  0.00  0.00    +0.339 C 
ATOM     19  O   LIG    1        0.116   4.162   0.022  0.00  0.00    -0.245 OA
BRANCH  18  21
ATOM     20  C   LIG    1        2.245   5.696   0.010  0.00  0.00    +0.280 C 
ATOM     21  O   LIG    1        2.334   4.247   0.002  0.00  0.00    -0.464 OA
ENDBRANCH  18  21
ENDBRANCH  12  18
ENDBRANCH  11  15
ENDBRANCH  10  11
ENDBRANCH   1  10
BRANCH   9  22
ATOM     22  C   LIG    1        1.196  -5.238  -3.875  0.00  0.00    +0.159 C 
BRANCH  22  23
ATOM     23  C   LIG    1        2.609  -5.146  -4.391  0.00  0.00    -0.028 A 
ATOM     24  C   LIG    1        3.249  -3.921  -4.438  0.00  0.00    +0.007 A 
ATOM     25  C   LIG    1        4.547  -3.837  -4.906  0.00  0.00    +0.020 A 
ATOM     26  C   LIG    1        5.201  -4.976  -5.338  0.00  0.00    +0.041 A 
ATOM     27 CL   LIG    1        6.829  -4.870  -5.933  0.00  0.00    -0.084 Cl
ATOM     28  C   LIG    1        4.559  -6.200  -5.297  0.00  0.00    +0.020 A 
ATOM     29  C   LIG    1        3.263  -6.285  -4.823  0.00  0.00    +0.007 A 
ENDBRANCH  22  23
ENDBRANCH   9  22
TORSDOF 7
