REMARK  Name = ZINC19411026
REMARK                            x       y       z     vdW  Elec       q    Type
REMARK                         _______ _______ _______ _____ _____    ______ ____
ROOT
ATOM      1  C   LIG    1       -4.244   2.648  -4.441  0.00  0.00    +0.020 C 
ATOM      2  C   LIG    1       -3.562   3.980  -4.851  0.00  0.00    +0.020 C 
ATOM      3  C   LIG    1       -3.327   4.646  -3.472  0.00  0.00    +0.108 C 
ATOM      4  N   LIG    1       -2.977   3.533  -2.570  0.00  0.00    -0.303 N 
ATOM      5  C   LIG    1       -2.263   3.640  -1.432  0.00  0.00    +0.202 C 
ATOM      6  O   LIG    1       -1.850   4.722  -1.075  0.00  0.00    -0.277 OA
ATOM      7  C   LIG    1       -3.530   2.288  -3.122  0.00  0.00    +0.108 C 
ENDROOT
BRANCH   5   8
ATOM      8  C   LIG    1       -1.978   2.413  -0.604  0.00  0.00    +0.016 C 
ATOM      9  C   LIG    1       -0.801   1.618  -1.207  0.00  0.00    -0.009 C 
ATOM     10  C   LIG    1       -0.013   1.086   0.008  0.00  0.00    -0.020 C 
ATOM     11  C   LIG    1       -0.778   1.605   1.244  0.00  0.00    -0.082 C 
ATOM     12  N   LIG    1       -1.513   2.801   0.753  0.00  0.00    +0.387 N 
ATOM     13  H   LIG    1       -2.381   3.039   1.384  0.00  0.00    -0.085 HD
ATOM     14  H   LIG    1       -0.860   3.683   0.678  0.00  0.00    -0.085 HD
ENDBRANCH   5   8
TORSDOF 1
