REMARK  Name = ZINC64539506
REMARK                            x       y       z     vdW  Elec       q    Type
REMARK                         _______ _______ _______ _____ _____    ______ ____
ROOT
ATOM      1  N   LIG    1       -2.789  -9.721   1.779  0.00  0.00    -0.276 N 
ATOM      2  C   LIG    1       -3.011 -10.580   0.766  0.00  0.00    +0.256 A 
ATOM      3  C   LIG    1       -3.282 -11.941   1.017  0.00  0.00    +0.071 A 
ATOM      4  C   LIG    1       -3.324 -12.405   2.292  0.00  0.00    +0.017 A 
ATOM      5  C   LIG    1       -3.091 -11.503   3.361  0.00  0.00    +0.018 A 
ATOM      6  C   LIG    1       -3.123 -11.932   4.701  0.00  0.00    +0.121 A 
ATOM      7  N   LIG    1       -2.893 -11.101   5.684  0.00  0.00    -0.254 NA
ATOM      8  C   LIG    1       -2.632  -9.802   5.479  0.00  0.00    +0.073 A 
ATOM      9  C   LIG    1       -2.402  -8.941   6.566  0.00  0.00    +0.029 A 
ATOM     10  C   LIG    1       -2.138  -7.625   6.352  0.00  0.00    +0.010 A 
ATOM     11  C   LIG    1       -2.090  -7.102   5.052  0.00  0.00    -0.016 A 
ATOM     12  C   LIG    1       -2.312  -7.924   3.959  0.00  0.00    +0.020 A 
ATOM     13  C   LIG    1       -2.585  -9.281   4.162  0.00  0.00    +0.025 A 
ATOM     14  O   LIG    1       -2.976 -10.176  -0.384  0.00  0.00    -0.267 OA
ATOM     15  C   LIG    1       -2.818 -10.156   3.076  0.00  0.00    +0.068 A 
ENDROOT
BRANCH  11  16
ATOM     16  C   LIG    1       -1.800  -5.662   4.845  0.00  0.00    +0.001 A 
ATOM     17  C   LIG    1       -1.592  -4.828   5.934  0.00  0.00    +0.020 A 
ATOM     18  C   LIG    1       -1.321  -3.472   5.684  0.00  0.00    +0.001 A 
ATOM     19  C   LIG    1       -1.099  -2.567   6.736  0.00  0.00    +0.010 A 
ATOM     20  C   LIG    1       -0.839  -1.261   6.455  0.00  0.00    +0.001 A 
ATOM     21  C   LIG    1       -0.789  -0.809   5.138  0.00  0.00    +0.002 A 
ATOM     22  C   LIG    1       -0.999  -1.658   4.096  0.00  0.00    +0.028 A 
ATOM     23  C   LIG    1       -1.270  -3.015   4.343  0.00  0.00    +0.071 A 
ATOM     24  N   LIG    1       -1.479  -3.868   3.334  0.00  0.00    -0.254 NA
ATOM     25  C   LIG    1       -1.728  -5.135   3.546  0.00  0.00    +0.120 A 
ENDBRANCH  11  16
BRANCH   1  29
ATOM     26  C   LIG    1       -1.992  -5.710   0.958  0.00  0.00    +0.042 A 
ATOM     27  C   LIG    1       -0.954  -6.570   1.294  0.00  0.00    +0.026 A 
ATOM     28  C   LIG    1       -1.218  -7.897   1.566  0.00  0.00    +0.028 A 
ATOM     29  C   LIG    1       -2.521  -8.373   1.503  0.00  0.00    +0.051 A 
ATOM     30  C   LIG    1       -3.559  -7.514   1.166  0.00  0.00    +0.040 A 
ATOM     31  C   LIG    1       -3.296  -6.185   0.900  0.00  0.00    +0.078 A 
BRANCH  26  36
ATOM     32  C   LIG    1       -1.887  -0.692  -0.863  0.00  0.00    +0.215 C 
ATOM     33  N   LIG    1       -2.144  -1.988  -0.598  0.00  0.00    -0.298 N 
ATOM     34  C   LIG    1       -1.479  -3.054  -1.360  0.00  0.00    +0.126 C 
ATOM     35  C   LIG    1       -0.773  -3.994  -0.374  0.00  0.00    +0.124 C 
ATOM     36  N   LIG    1       -1.725  -4.366   0.682  0.00  0.00    -0.326 N 
ATOM     37  C   LIG    1       -2.390  -3.300   1.444  0.00  0.00    +0.124 C 
ATOM     38  C   LIG    1       -3.092  -2.361   0.462  0.00  0.00    +0.126 C 
ATOM     39  O   LIG    1       -2.439   0.179  -0.225  0.00  0.00    -0.276 OA
BRANCH  32  41
ATOM     40  C   LIG    1       -0.803   1.198  -2.047  0.00  0.00    +0.013 C 
ATOM     41  C   LIG    1       -0.913  -0.325  -1.953  0.00  0.00    +0.092 C 
ENDBRANCH  32  41
ENDBRANCH  26  36
BRANCH  31  42
ATOM     42  C   LIG    1       -4.423  -5.252   0.541  0.00  0.00    +0.419 C 
ATOM     43  F   LIG    1       -4.110  -4.577  -0.644  0.00  0.00    -0.166 F 
ATOM     44  F   LIG    1       -4.606  -4.324   1.572  0.00  0.00    -0.166 F 
ATOM     45  F   LIG    1       -5.599  -5.987   0.362  0.00  0.00    -0.166 F 
ENDBRANCH  31  42
ENDBRANCH   1  29
TORSDOF 5
