REMARK  Name = ZINC22010625
REMARK                            x       y       z     vdW  Elec       q    Type
REMARK                         _______ _______ _______ _____ _____    ______ ____
ROOT
ATOM      1  C   LIG    1        1.324   2.046   0.000  0.00  0.00    +0.188 C 
ATOM      2  C   LIG    1        2.266   1.315   0.924  0.00  0.00    +0.008 A 
ATOM      3  C   LIG    1        3.488   1.918   1.251  0.00  0.00    +0.035 A 
ATOM      4  C   LIG    1        4.386   1.266   2.069  0.00  0.00    +0.071 A 
ATOM      5  N   LIG    1        4.082   0.029   2.561  0.00  0.00    -0.302 N 
ATOM      6  C   LIG    1        5.202  -0.435   3.391  0.00  0.00    +0.163 C 
ATOM      7  C   LIG    1        6.239   0.659   3.360  0.00  0.00    +0.002 A 
ATOM      8  C   LIG    1        7.465   0.784   3.934  0.00  0.00    -0.048 A 
ATOM      9  C   LIG    1        8.195   1.966   3.694  0.00  0.00    +0.006 A 
ATOM     10  C   LIG    1        9.467   2.162   4.251  0.00  0.00    +0.059 A 
ATOM     11  C   LIG    1       10.150   3.319   3.999  0.00  0.00    +0.163 A 
ATOM     12  O   LIG    1       11.381   3.489   4.554  0.00  0.00    -0.485 OA
ATOM     13  C   LIG    1       12.211   4.504   3.980  0.00  0.00    +0.270 C 
ATOM     14  C   LIG    1       11.367   5.772   3.800  0.00  0.00    +0.270 C 
ATOM     15  O   LIG    1       10.275   5.465   2.928  0.00  0.00    -0.485 OA
ATOM     16  C   LIG    1        9.590   4.316   3.185  0.00  0.00    +0.164 A 
ATOM     17  C   LIG    1        8.351   4.151   2.632  0.00  0.00    +0.077 A 
ATOM     18  C   LIG    1        7.624   2.972   2.872  0.00  0.00    +0.076 A 
ATOM     19  N   LIG    1        6.416   2.793   2.337  0.00  0.00    -0.245 NA
ATOM     20  C   LIG    1        2.909  -0.559   2.257  0.00  0.00    +0.259 A 
ATOM     21  O   LIG    1        2.657  -1.667   2.703  0.00  0.00    -0.267 OA
ATOM     22  C   LIG    1        5.723   1.685   2.551  0.00  0.00    +0.093 A 
ATOM     23  C   LIG    1        1.969   0.089   1.429  0.00  0.00    +0.061 A 
ATOM     24  C   LIG    1        0.667  -0.610   1.141  0.00  0.00    +0.273 C 
ATOM     25  O   LIG    1        0.002  -0.004   0.002  0.00  0.00    -0.457 OA
ATOM     26  C   LIG    1       -0.016   1.348   0.009  0.00  0.00    +0.344 C 
ATOM     27  O   LIG    1       -1.053   1.968   0.018  0.00  0.00    -0.247 OA
ENDROOT
BRANCH   1  29
ATOM     28  C   LIG    1        0.932   2.775  -2.357  0.00  0.00    +0.007 C 
ATOM     29  C   LIG    1        1.894   2.042  -1.420  0.00  0.00    +0.048 C 
ENDBRANCH   1  29
BRANCH   1  30
ATOM     30  O   LIG    1        1.165   3.393   0.449  0.00  0.00    -0.373 OA
ATOM     31  H   LIG    1        0.765   3.595   1.454  0.00  0.00    +0.211 HD
ENDBRANCH   1  30
BRANCH   8  32
ATOM     32  C   LIG    1        8.029  -0.310   4.804  0.00  0.00    -0.042 C 
BRANCH  32  33
ATOM     33  N   LIG    1        8.793  -1.251   3.974  0.00  0.00    +0.384 N 
ATOM     34  H   LIG    1        9.513  -0.668   3.380  0.00  0.00    -0.081 HD
ATOM     35  C   LIG    1        7.911  -1.968   3.042  0.00  0.00    -0.063 C 
ATOM     36  C   LIG    1        8.753  -2.877   2.144  0.00  0.00    +0.065 C 
ATOM     37  N   LIG    1        9.511  -3.819   2.978  0.00  0.00    -0.309 NA
ATOM     38  C   LIG    1       10.275  -4.760   2.148  0.00  0.00    +0.104 C 
ATOM     39  C   LIG    1       10.393  -3.102   3.910  0.00  0.00    +0.065 C 
ATOM     40  C   LIG    1        9.551  -2.193   4.808  0.00  0.00    -0.063 C 
ENDBRANCH  32  33
ENDBRANCH   8  32
TORSDOF 4
