REMARK  Name = ZINC25725205
REMARK                            x       y       z     vdW  Elec       q    Type
REMARK                         _______ _______ _______ _____ _____    ______ ____
ROOT
ATOM      1  C   LIG    1        0.544  -0.435  -1.551  0.00  0.00    +0.149 A 
ATOM      2  O   LIG    1       -0.067  -1.159  -2.502  0.00  0.00    -0.355 OA
ATOM      3  N   LIG    1        0.922  -1.620  -3.405  0.00  0.00    -0.040 NA
ATOM      4  C   LIG    1        2.081  -1.183  -2.986  0.00  0.00    +0.256 A 
ATOM      5  C   LIG    1        1.863  -0.430  -1.812  0.00  0.00    +0.057 A 
ENDROOT
BRANCH   1   7
ATOM      6  C   LIG    1        0.005   1.764  -0.540  0.00  0.00    +0.019 C 
ATOM      7  C   LIG    1       -0.131   0.247  -0.390  0.00  0.00    +0.023 C 
ATOM      8  C   LIG    1       -1.613  -0.132  -0.366  0.00  0.00    +0.019 C 
ATOM      9  C   LIG    1        0.530  -0.197   0.917  0.00  0.00    +0.019 C 
ENDBRANCH   1   7
BRANCH   4  10
ATOM     10  O   LIG    1        3.282  -1.413  -3.576  0.00  0.00    -0.490 OA
ATOM     11  H   LIG    1        4.063  -1.057  -3.202  0.00  0.00    +0.294 HD
ENDBRANCH   4  10
BRANCH   5  12
ATOM     12  C   LIG    1        2.924   0.261  -0.994  0.00  0.00    +0.039 C 
BRANCH  12  13
ATOM     13  CA  LIG    1        3.551  -0.740  -0.022  0.00  0.00    +0.040 C 
BRANCH  13  14
ATOM     14  N   LIG    1        4.270  -1.774  -0.779  0.00  0.00    +0.387 N 
ATOM     15  H1  LIG    1        4.683  -2.434  -0.138  0.00  0.00    -0.089 HD
ATOM     16  H2  LIG    1        4.995  -1.342  -1.332  0.00  0.00    -0.089 HD
ATOM     17  H3  LIG    1        3.625  -2.255  -1.388  0.00  0.00    -0.089 HD
ENDBRANCH  13  14
BRANCH  13  18
ATOM     18  C   LIG    1        4.514  -0.022   0.887  0.00  0.00    +0.290 C 
ATOM     19  O   LIG    1        4.094   0.748   1.735  0.00  0.00    -0.253 OA
BRANCH  18  20
ATOM     20  OXT LIG    1        5.714  -0.210   0.775  0.00  0.00    -0.482 OA
ATOM     21  HXT LIG    1        6.036  -0.802   0.124  0.00  0.00    +0.295 HD
ENDBRANCH  18  20
ENDBRANCH  13  18
ENDBRANCH  12  13
ENDBRANCH   5  12
TORSDOF 7
