REMARK  Name = ZINC22064260
REMARK                            x       y       z     vdW  Elec       q    Type
REMARK                         _______ _______ _______ _____ _____    ______ ____
ROOT
ATOM      1  C   LIG    1       -0.017   1.408   0.010  0.00  0.00    +0.112 A 
ATOM      2  C   LIG    1        1.256   1.843   0.000  0.00  0.00    +0.124 A 
ATOM      3  O   LIG    1        2.063   0.771  -0.013  0.00  0.00    -0.358 OA
ATOM      4  N   LIG    1        1.251  -0.389  -0.012  0.00  0.00    -0.040 NA
ATOM      5  C   LIG    1        0.002  -0.004   0.002  0.00  0.00    +0.252 A 
ENDROOT
BRANCH   5   6
ATOM      6  O   LIG    1       -1.084  -0.817   0.008  0.00  0.00    -0.490 OA
ATOM      7  H   LIG    1       -1.946  -0.449   0.018  0.00  0.00    +0.294 HD
ENDBRANCH   5   6
BRANCH   2   8
ATOM      8  C   LIG    1        1.698   3.283   0.003  0.00  0.00    -0.008 C 
BRANCH   8   9
ATOM      9  N   LIG    1        1.855   3.744   1.389  0.00  0.00    +0.383 N 
ATOM     10  H   LIG    1        2.548   3.179   1.855  0.00  0.00    -0.089 HD
ATOM     11  H   LIG    1        0.973   3.662   1.873  0.00  0.00    -0.089 HD
ATOM     12  H   LIG    1        2.151   4.709   1.391  0.00  0.00    -0.089 HD
ENDBRANCH   8   9
ENDBRANCH   2   8
TORSDOF 3
