REMARK  Name = ZINC14975818
REMARK                            x       y       z     vdW  Elec       q    Type
REMARK                         _______ _______ _______ _____ _____    ______ ____
ROOT
ATOM      1  C   LIG    1        1.441  -5.956   3.116  0.00  0.00    +0.043 A 
ATOM      2  C   LIG    1        1.389  -4.631   3.492  0.00  0.00    +0.098 A 
ATOM      3  N   LIG    1        2.224  -3.909   2.721  0.00  0.00    -0.345 N 
ATOM      4  C   LIG    1        2.871  -4.719   1.810  0.00  0.00    +0.050 A 
ATOM      5  C   LIG    1        3.814  -4.468   0.818  0.00  0.00    +0.026 A 
ATOM      6  C   LIG    1        4.291  -5.505   0.045  0.00  0.00    +0.002 A 
ATOM      7  C   LIG    1        3.840  -6.801   0.245  0.00  0.00    +0.001 A 
ATOM      8  C   LIG    1        2.907  -7.069   1.223  0.00  0.00    +0.011 A 
ATOM      9  C   LIG    1        2.417  -6.032   2.011  0.00  0.00    +0.010 A 
ENDROOT
BRANCH   1  10
ATOM     10  C   LIG    1        0.710  -7.031   3.680  0.00  0.00    +0.169 C 
ATOM     11  O   LIG    1        0.858  -8.157   3.252  0.00  0.00    -0.292 OA
BRANCH  10  15
ATOM     12  C   LIG    1       -2.695  -7.346   5.553  0.00  0.00    +0.012 C 
ATOM     13  C   LIG    1       -1.324  -7.834   5.081  0.00  0.00    -0.019 C 
ATOM     14  C   LIG    1       -1.338  -9.070   4.180  0.00  0.00    +0.012 C 
ATOM     15  C   LIG    1       -0.252  -6.775   4.812  0.00  0.00    +0.073 C 
ATOM     16  C   LIG    1       -0.147  -7.675   6.045  0.00  0.00    -0.019 C 
ATOM     17  C   LIG    1       -0.431  -7.041   7.408  0.00  0.00    +0.012 C 
ATOM     18  C   LIG    1        0.927  -8.765   6.035  0.00  0.00    +0.012 C 
ENDBRANCH  10  15
ENDBRANCH   1  10
BRANCH   3  19
ATOM     19  C   LIG    1        2.423  -2.462   2.838  0.00  0.00    +0.137 C 
BRANCH  19  20
ATOM     20  C   LIG    1        1.519  -1.740   1.836  0.00  0.00    +0.106 C 
BRANCH  20  21
ATOM     21  N   LIG    1        1.719  -0.290   1.953  0.00  0.00    -0.296 NA
ATOM     22  C   LIG    1        1.052   0.424   0.855  0.00  0.00    +0.112 C 
ATOM     23  C   LIG    1        1.234   1.932   1.048  0.00  0.00    +0.175 C 
ATOM     24  O   LIG    1        2.631   2.232   1.119  0.00  0.00    -0.377 OA
ATOM     25  C   LIG    1        3.312   1.555   2.179  0.00  0.00    +0.175 C 
ATOM     26  C   LIG    1        3.150   0.043   1.997  0.00  0.00    +0.112 C 
ENDBRANCH  20  21
ENDBRANCH  19  20
ENDBRANCH   3  19
TORSDOF 5
