REMARK  Name = ZINC27190938
REMARK                            x       y       z     vdW  Elec       q    Type
REMARK                         _______ _______ _______ _____ _____    ______ ____
ROOT
ATOM      1  C   LIG    1       -0.013   1.086   0.008  0.00  0.00    +0.176 C 
ATOM      2  C   LIG    1       -0.662   1.621  -1.290  0.00  0.00    +0.042 C 
ATOM      3  C   LIG    1       -1.414   2.928  -1.031  0.00  0.00    +0.012 C 
ATOM      4  C   LIG    1        0.589   1.861  -2.168  0.00  0.00    +0.130 C 
ATOM      5  C   LIG    1        1.708   2.038  -1.165  0.00  0.00    +0.237 C 
ATOM      6  N   LIG    1        1.356   1.614  -0.002  0.00  0.00    -0.277 N 
ATOM      7  H   LIG    1        2.060   1.674   0.841  0.00  0.00    +0.304 HD
ENDROOT
BRANCH   5   8
ATOM      8  N   LIG    1        2.933   2.578  -1.457  0.00  0.00    -0.254 N 
ATOM      9  H   LIG    1        3.155   2.918  -2.479  0.00  0.00    +0.288 HD
ATOM     10  H   LIG    1        3.694   2.672  -0.668  0.00  0.00    +0.288 HD
ENDBRANCH   5   8
BRANCH   1  12
ATOM     11  C   LIG    1       -0.167   0.987   2.500  0.00  0.00    +0.008 C 
ATOM     12  C   LIG    1       -0.770   1.599   1.234  0.00  0.00    +0.046 C 
ENDBRANCH   1  12
TORSDOF 2
