REMARK  Name = ZINC27549885
REMARK                            x       y       z     vdW  Elec       q    Type
REMARK                         _______ _______ _______ _____ _____    ______ ____
ROOT
ATOM      1  C   LIG    1       -1.882   2.417   3.622  0.00  0.00    +0.045 A 
ATOM      2  C   LIG    1       -2.587   2.458   2.437  0.00  0.00    +0.007 A 
ATOM      3  C   LIG    1       -2.002   2.035   1.250  0.00  0.00    -0.046 A 
ATOM      4  C   LIG    1       -0.707   1.566   1.256  0.00  0.00    -0.041 A 
ATOM      5  C   LIG    1       -0.013   1.086   0.008  0.00  0.00    +0.034 C 
ATOM      6  C   LIG    1       -0.741   1.587  -1.238  0.00  0.00    -0.011 C 
ATOM      7  C   LIG    1       -2.228   1.237  -1.102  0.00  0.00    -0.071 C 
ATOM      8  C   LIG    1        0.006   1.525   2.446  0.00  0.00    +0.049 A 
ATOM      9  C   LIG    1       -2.830   2.114  -0.006  0.00  0.00    +0.019 C 
ATOM     10  C   LIG    1       -0.577   1.949   3.629  0.00  0.00    +0.117 A 
ENDROOT
BRANCH   7  11
ATOM     11  N   LIG    1       -2.915   1.494  -2.374  0.00  0.00    +0.380 N 
ATOM     12  H   LIG    1       -2.812   2.557  -2.638  0.00  0.00    -0.090 HD
ATOM     13  H   LIG    1       -2.465   0.876  -3.165  0.00  0.00    -0.090 HD
ATOM     14  H   LIG    1       -3.981   1.243  -2.273  0.00  0.00    -0.090 HD
ENDBRANCH   7  11
BRANCH  10  15
ATOM     15  O   LIG    1        0.127   1.906   4.791  0.00  0.00    -0.507 OA
ATOM     16  H   LIG    1        1.162   1.534   4.793  0.00  0.00    +0.292 HD
ENDBRANCH  10  15
TORSDOF 2
