REMARK  Name = ZINC19418959
REMARK                            x       y       z     vdW  Elec       q    Type
REMARK                         _______ _______ _______ _____ _____    ______ ____
ROOT
ATOM      1  N   LIG    1        2.899  -6.603   2.164  0.00  0.00    -0.298 N 
ATOM      2  C   LIG    1        2.307  -6.712   3.420  0.00  0.00    +0.048 A 
ATOM      3  C   LIG    1        1.206  -5.914   3.713  0.00  0.00    +0.024 A 
ATOM      4  C   LIG    1        0.590  -6.001   4.947  0.00  0.00    +0.002 A 
ATOM      5  C   LIG    1        1.064  -6.881   5.901  0.00  0.00    +0.001 A 
ATOM      6  C   LIG    1        2.159  -7.678   5.621  0.00  0.00    +0.017 A 
ATOM      7  C   LIG    1        2.784  -7.595   4.385  0.00  0.00    +0.034 A 
ATOM      8  S   LIG    1        4.183  -8.611   4.050  0.00  0.00    -0.086 S 
ATOM      9  C   LIG    1        4.932  -7.854   2.646  0.00  0.00    +0.034 A 
ATOM     10  C   LIG    1        6.241  -8.172   2.315  0.00  0.00    +0.017 A 
ATOM     11  C   LIG    1        6.838  -7.599   1.214  0.00  0.00    +0.013 A 
ATOM     12  C   LIG    1        6.135  -6.692   0.443  0.00  0.00    +0.057 A 
ATOM     13  C   LIG    1        4.831  -6.367   0.767  0.00  0.00    +0.037 A 
ATOM     14  C   LIG    1        4.215  -6.949   1.870  0.00  0.00    +0.048 A 
ENDROOT
BRANCH  12  15
ATOM     15  C   LIG    1        6.793  -6.056  -0.754  0.00  0.00    +0.417 C 
ATOM     16  F   LIG    1        5.822  -5.764  -1.719  0.00  0.00    -0.166 F 
ATOM     17  F   LIG    1        7.735  -6.938  -1.293  0.00  0.00    -0.166 F 
ATOM     18  F   LIG    1        7.430  -4.874  -0.363  0.00  0.00    -0.166 F 
ENDBRANCH  12  15
BRANCH   1  19
ATOM     19  C   LIG    1        2.073  -6.090   1.069  0.00  0.00    +0.109 C 
BRANCH  19  20
ATOM     20  C   LIG    1        2.207  -4.568   0.998  0.00  0.00    +0.001 C 
BRANCH  20  21
ATOM     21  C   LIG    1        1.344  -4.032  -0.146  0.00  0.00    -0.077 C 
BRANCH  21  26
ATOM     22  C   LIG    1        0.433   1.526  -0.301  0.00  0.00    +0.104 C 
ATOM     23  N   LIG    1        0.359   0.060  -0.237  0.00  0.00    -0.309 NA
ATOM     24  C   LIG    1        0.890  -0.548  -1.466  0.00  0.00    +0.065 C 
ATOM     25  C   LIG    1        0.741  -2.069  -1.384  0.00  0.00    -0.063 C 
ATOM     26  N   LIG    1        1.472  -2.571  -0.214  0.00  0.00    +0.381 N 
ATOM     27  H   LIG    1        2.447  -2.322  -0.295  0.00  0.00    -0.082 HD
ATOM     28  C   LIG    1        0.915  -1.973   1.007  0.00  0.00    -0.063 C 
ATOM     29  C   LIG    1        1.066  -0.452   0.945  0.00  0.00    +0.065 C 
ENDBRANCH  21  26
ENDBRANCH  20  21
ENDBRANCH  19  20
ENDBRANCH   1  19
TORSDOF 5
