REMARK  Name = ZINC27061984
REMARK                            x       y       z     vdW  Elec       q    Type
REMARK                         _______ _______ _______ _____ _____    ______ ____
ROOT
ATOM      1  C   LIG    1       -1.561   1.760  -0.517  0.00  0.00    +0.239 C 
ATOM      2  N   LIG    1       -0.401   1.138  -0.807  0.00  0.00    -0.236 N 
ATOM      3  H   LIG    1       -0.364   0.040  -0.861  0.00  0.00    +0.173 HD
ATOM      4  O   LIG    1       -1.601   2.970  -0.453  0.00  0.00    -0.273 OA
ENDROOT
BRANCH   1  11
ATOM      5  C   LIG    1       -4.558   0.118   2.663  0.00  0.00    +0.016 C 
ATOM      6  C   LIG    1       -4.228  -0.322   1.235  0.00  0.00    -0.010 C 
ATOM      7  C   LIG    1       -4.519  -1.814   1.059  0.00  0.00    +0.016 C 
ATOM      8  C   LIG    1       -5.046   0.516   0.206  0.00  0.00    +0.000 C 
ATOM      9  C   LIG    1       -4.809  -0.185  -1.167  0.00  0.00    +0.006 C 
ATOM     10  C   LIG    1       -3.306   0.088  -1.473  0.00  0.00    +0.021 C 
ATOM     11  C   LIG    1       -2.809   0.951  -0.273  0.00  0.00    +0.070 C 
ATOM     12  C   LIG    1       -4.109   1.767   0.057  0.00  0.00    +0.025 C 
ATOM     13  C   LIG    1       -2.760  -0.010   0.923  0.00  0.00    -0.056 C 
ATOM     14  C   LIG    1       -1.694  -0.474   1.526  0.00  0.00    +0.009 C 
ENDBRANCH   1  11
BRANCH   2  15
ATOM     15  N   LIG    1        0.758   1.891  -1.040  0.00  0.00    -0.264 N 
ATOM     16  H   LIG    1        0.722   2.989  -0.982  0.00  0.00    +0.170 HD
BRANCH  15  17
ATOM     17  C   LIG    1        1.959   1.247  -1.346  0.00  0.00    +0.044 A 
ATOM     18  C   LIG    1        2.007  -0.140  -1.414  0.00  0.00    +0.024 A 
ATOM     19  C   LIG    1        3.195  -0.773  -1.722  0.00  0.00    +0.002 A 
ATOM     20  C   LIG    1        4.338  -0.029  -1.952  0.00  0.00    +0.000 A 
ATOM     21  C   LIG    1        4.294   1.351  -1.879  0.00  0.00    +0.002 A 
ATOM     22  C   LIG    1        3.108   1.991  -1.577  0.00  0.00    +0.024 A 
ENDBRANCH  15  17
ENDBRANCH   2  15
TORSDOF 3
