REMARK  Name = ZINC28955423
REMARK                            x       y       z     vdW  Elec       q    Type
REMARK                         _______ _______ _______ _____ _____    ______ ____
ROOT
ATOM      1  C   LIG    1       -5.138   5.619   0.104  0.00  0.00    +0.247 C 
ATOM      2  N   LIG    1       -3.830   5.294   0.093  0.00  0.00    -0.297 N 
ATOM      3  C   LIG    1       -3.131   5.043  -1.175  0.00  0.00    +0.110 C 
ATOM      4  C   LIG    1       -2.449   3.674  -1.100  0.00  0.00    +0.044 C 
ATOM      5  C   LIG    1       -1.546   3.626   0.135  0.00  0.00    +0.095 C 
ATOM      6  C   LIG    1       -2.393   3.813   1.396  0.00  0.00    +0.044 C 
ATOM      7  C   LIG    1       -3.075   5.185   1.349  0.00  0.00    +0.110 C 
ATOM      8  O   LIG    1       -5.734   5.777  -0.944  0.00  0.00    -0.270 OA
ENDROOT
BRANCH   5   9
ATOM      9  N   LIG    1       -0.866   2.329   0.193  0.00  0.00    -0.289 N 
ATOM     10  C   LIG    1        0.512   2.130   0.173  0.00  0.00    +0.070 A 
ATOM     11  C   LIG    1        1.597   2.991   0.105  0.00  0.00    +0.028 A 
ATOM     12  C   LIG    1        2.881   2.481   0.111  0.00  0.00    +0.002 A 
ATOM     13  C   LIG    1        3.088   1.114   0.184  0.00  0.00    +0.002 A 
ATOM     14  C   LIG    1        2.014   0.249   0.251  0.00  0.00    +0.028 A 
ATOM     15  C   LIG    1        0.722   0.751   0.246  0.00  0.00    +0.067 A 
ATOM     16  N   LIG    1       -0.536   0.155   0.302  0.00  0.00    -0.306 N 
ATOM     17  H   LIG    1       -0.623  -0.939   0.365  0.00  0.00    +0.170 HD
ATOM     18  C   LIG    1       -1.468   1.127   0.265  0.00  0.00    +0.328 A 
ATOM     19  O   LIG    1       -2.671   0.946   0.297  0.00  0.00    -0.247 OA
ENDBRANCH   5   9
BRANCH   1  24
ATOM     20  C   LIG    1       -6.044   6.836   3.539  0.00  0.00    +0.001 A 
ATOM     21  C   LIG    1       -7.178   6.086   3.800  0.00  0.00    +0.001 A 
ATOM     22  C   LIG    1       -7.650   5.185   2.862  0.00  0.00    +0.013 A 
ATOM     23  C   LIG    1       -6.992   5.029   1.659  0.00  0.00    +0.067 A 
ATOM     24  C   LIG    1       -5.848   5.782   1.390  0.00  0.00    +0.049 A 
ATOM     25  C   LIG    1       -5.374   6.685   2.343  0.00  0.00    +0.013 A 
BRANCH  23  26
ATOM     26  C   LIG    1       -7.507   4.046   0.639  0.00  0.00    +0.418 C 
ATOM     27  F   LIG    1       -6.524   3.085   0.380  0.00  0.00    -0.166 F 
ATOM     28  F   LIG    1       -7.820   4.724  -0.544  0.00  0.00    -0.166 F 
ATOM     29  F   LIG    1       -8.654   3.418   1.135  0.00  0.00    -0.166 F 
ENDBRANCH  23  26
ENDBRANCH   1  24
TORSDOF 3
