REMARK  Name = ZINC13819662
REMARK                            x       y       z     vdW  Elec       q    Type
REMARK                         _______ _______ _______ _____ _____    ______ ____
ROOT
ATOM      1  C   LIG    1        0.918  -6.034   1.714  0.00  0.00    +0.065 C 
ATOM      2  C   LIG    1        0.840  -4.533   1.601  0.00  0.00    +0.038 A 
ATOM      3  C   LIG    1        1.320  -3.746   2.632  0.00  0.00    +0.026 A 
ATOM      4  C   LIG    1        1.244  -2.368   2.521  0.00  0.00    +0.049 A 
ATOM      5  C   LIG    1        0.685  -1.826   1.368  0.00  0.00    +0.138 A 
ATOM      6  C   LIG    1        0.220  -2.681   0.380  0.00  0.00    +0.156 A 
ATOM      7  N   LIG    1        0.315  -3.989   0.522  0.00  0.00    -0.257 NA
ENDROOT
BRANCH   5   8
ATOM      8  O   LIG    1        0.590  -0.479   1.215  0.00  0.00    -0.492 OA
BRANCH   8   9
ATOM      9  C   LIG    1        0.002  -0.004   0.002  0.00  0.00    +0.210 C 
BRANCH   9  10
ATOM     10  C   LIG    1       -0.019   1.526   0.010  0.00  0.00    -0.041 C 
BRANCH  10  11
ATOM     11  N   LIG    1        1.368   2.028  -0.000  0.00  0.00    +0.379 N 
ATOM     12  H   LIG    1        1.860   1.681   0.832  0.00  0.00    -0.086 HD
ATOM     13  H   LIG    1        1.844   1.690  -0.845  0.00  0.00    -0.086 HD
ATOM     14  C   LIG    1        1.379   3.503   0.008  0.00  0.00    -0.100 C 
ENDBRANCH  10  11
ENDBRANCH   9  10
ENDBRANCH   8   9
ENDBRANCH   5   8
TORSDOF 4
