REMARK  Name = ZINC25995959
REMARK                            x       y       z     vdW  Elec       q    Type
REMARK                         _______ _______ _______ _____ _____    ______ ____
ROOT
ATOM      1  C   LIG    1       -0.667   1.597   1.303  0.00  0.00    +0.066 C 
ATOM      2  C   LIG    1       -0.013   1.086   0.008  0.00  0.00    -0.028 C 
ATOM      3  C   LIG    1        1.429   1.634  -0.003  0.00  0.00    +0.132 C 
ATOM      4  C   LIG    1        1.367   2.883   0.910  0.00  0.00    +0.171 C 
ATOM      5  C   LIG    1        0.399   2.438   2.034  0.00  0.00    +0.157 C 
ENDROOT
BRANCH   2   6
ATOM      6  N   LIG    1       -0.750   1.585  -1.161  0.00  0.00    +0.382 N 
ATOM      7  H   LIG    1       -1.790   1.230  -1.117  0.00  0.00    -0.089 HD
ATOM      8  H   LIG    1       -0.737   2.685  -1.159  0.00  0.00    -0.089 HD
ATOM      9  H   LIG    1       -0.274   1.214  -2.080  0.00  0.00    -0.089 HD
ENDBRANCH   2   6
BRANCH   3  10
ATOM     10  O   LIG    1        1.814   2.002  -1.329  0.00  0.00    -0.391 OA
ATOM     11  H   LIG    1        2.817   2.413  -1.516  0.00  0.00    +0.210 HD
ENDBRANCH   3  10
BRANCH   4  12
ATOM     12  O   LIG    1        0.837   4.004   0.200  0.00  0.00    -0.387 OA
ATOM     13  H   LIG    1        0.726   4.974   0.707  0.00  0.00    +0.210 HD
ENDBRANCH   4  12
BRANCH   5  14
ATOM     14  O   LIG    1       -0.199   3.575   2.659  0.00  0.00    -0.388 OA
ATOM     15  H   LIG    1        0.425   4.283   3.226  0.00  0.00    +0.210 HD
ENDBRANCH   5  14
BRANCH   1  16
ATOM     16  S   LIG    1       -1.172   0.196   2.339  0.00  0.00    -0.157 S 
BRANCH  16  18
ATOM     17  C   LIG    1       -2.533  -0.115   4.691  0.00  0.00    +0.015 C 
ATOM     18  C   LIG    1       -2.047   0.969   3.727  0.00  0.00    +0.066 C 
ENDBRANCH  16  18
ENDBRANCH   1  16
TORSDOF 6
