REMARK  Name = ZINC27556078
REMARK                            x       y       z     vdW  Elec       q    Type
REMARK                         _______ _______ _______ _____ _____    ______ ____
ROOT
ATOM      1  C   LIG    1        1.176   1.779   0.000  0.00  0.00    +0.002 A 
ATOM      2  C   LIG    1       -0.013   1.076   0.008  0.00  0.00    +0.004 A 
ATOM      3  C   LIG    1       -1.225   1.749   0.017  0.00  0.00    -0.040 A 
ATOM      4  C   LIG    1       -1.244   3.127   0.034  0.00  0.00    -0.012 A 
ATOM      5  C   LIG    1       -2.535   3.903   0.058  0.00  0.00    +0.118 C 
ATOM      6  N   LIG    1       -3.655   3.049  -0.349  0.00  0.00    -0.312 NA
ATOM      7  H   LIG    1       -4.602   3.589  -0.198  0.00  0.00    +0.122 HD
ATOM      8  C   LIG    1       -3.673   1.815   0.452  0.00  0.00    +0.086 C 
ATOM      9  C   LIG    1       -0.049   3.833   0.025  0.00  0.00    +0.046 A 
ATOM     10 CL   LIG    1       -0.071   5.568   0.036  0.00  0.00    -0.083 Cl
ATOM     11  C   LIG    1       -2.496   0.940   0.020  0.00  0.00    +0.050 C 
ATOM     12  C   LIG    1        1.158   3.160   0.008  0.00  0.00    +0.020 A 
ENDROOT
TORSDOF 0
