REMARK  Name = ZINC49109272
REMARK                            x       y       z     vdW  Elec       q    Type
REMARK                         _______ _______ _______ _____ _____    ______ ____
ROOT
ATOM      1  C   LIG    1        2.494  -2.494  -4.365  0.00  0.00    +0.121 C 
ATOM      2  N   LIG    1        3.069  -1.894  -5.373  0.00  0.00    -0.177 NA
ATOM      3  N   LIG    1        3.588  -2.815  -6.282  0.00  0.00    -0.201 N 
ATOM      4  H   LIG    1        4.054  -2.583  -7.100  0.00  0.00    +0.178 HD
ATOM      5  C   LIG    1        3.349  -4.074  -5.862  0.00  0.00    +0.285 C 
ATOM      6  O   LIG    1        3.670  -5.106  -6.424  0.00  0.00    -0.267 OA
ATOM      7  C   LIG    1        2.627  -3.950  -4.585  0.00  0.00    +0.172 C 
ATOM      8  N   LIG    1        2.192  -4.923  -3.809  0.00  0.00    -0.175 NA
ENDROOT
BRANCH   1  12
ATOM      9  C   LIG    1        0.606  -0.607  -1.055  0.00  0.00    +0.120 A 
ATOM     10  C   LIG    1        1.172   0.164  -2.062  0.00  0.00    +0.046 A 
ATOM     11  C   LIG    1        1.786  -0.444  -3.136  0.00  0.00    +0.014 A 
ATOM     12  C   LIG    1        1.836  -1.836  -3.212  0.00  0.00    +0.004 A 
ATOM     13  C   LIG    1        1.266  -2.608  -2.199  0.00  0.00    +0.014 A 
ATOM     14  C   LIG    1        0.659  -1.993  -1.125  0.00  0.00    +0.046 A 
BRANCH   9  16
ATOM     15  C   LIG    1       -0.017   1.425   0.010  0.00  0.00    +0.277 C 
ATOM     16  O   LIG    1        0.002  -0.004   0.002  0.00  0.00    -0.495 OA
ENDBRANCH   9  16
ENDBRANCH   1  12
BRANCH   8  17
ATOM     17  N   LIG    1        2.389  -6.152  -4.144  0.00  0.00    -0.237 N 
ATOM     18  H   LIG    1        2.858  -6.361  -4.968  0.00  0.00    +0.174 HD
BRANCH  17  19
ATOM     19  C   LIG    1        1.930  -7.180  -3.325  0.00  0.00    +0.051 A 
ATOM     20  C   LIG    1        1.250  -6.901  -2.140  0.00  0.00    +0.044 A 
ATOM     21  C   LIG    1        0.811  -7.948  -1.356  0.00  0.00    +0.112 A 
ATOM     22  N   LIG    1        1.028  -9.199  -1.715  0.00  0.00    -0.263 NA
ATOM     23  C   LIG    1        1.668  -9.505  -2.828  0.00  0.00    +0.112 A 
ATOM     24  C   LIG    1        2.134  -8.516  -3.670  0.00  0.00    +0.044 A 
ENDBRANCH  17  19
ENDBRANCH   8  17
TORSDOF 4
