REMARK  Name = ZINC49124829
REMARK                            x       y       z     vdW  Elec       q    Type
REMARK                         _______ _______ _______ _____ _____    ______ ____
ROOT
ATOM      1  C   LIG    1       -0.982  -2.038   0.008  0.00  0.00    +0.149 A 
ATOM      2  C   LIG    1        0.289  -2.580   0.058  0.00  0.00    +0.093 A 
ATOM      3  C   LIG    1        0.461  -3.960   0.057  0.00  0.00    +0.128 A 
ATOM      4  C   LIG    1       -0.635  -4.809   0.006  0.00  0.00    +0.092 A 
ATOM      5  C   LIG    1       -1.917  -4.284  -0.044  0.00  0.00    +0.146 A 
ATOM      6  O   LIG    1       -2.994  -5.095  -0.095  0.00  0.00    -0.454 OA
ATOM      7  C   LIG    1       -4.249  -4.620  -0.128  0.00  0.00    +0.139 A 
ATOM      8  C   LIG    1       -4.527  -3.290  -0.131  0.00  0.00    +0.098 A 
ATOM      9  C   LIG    1       -3.464  -2.354  -0.086  0.00  0.00    +0.197 A 
ATOM     10  O   LIG    1       -3.677  -1.153  -0.088  0.00  0.00    -0.287 OA
ATOM     11  C   LIG    1       -2.093  -2.889  -0.038  0.00  0.00    +0.106 A 
ENDROOT
BRANCH   7  12
ATOM     12  C   LIG    1       -5.370  -5.580  -0.175  0.00  0.00    +0.017 A 
ATOM     13  C   LIG    1       -6.687  -5.118  -0.227  0.00  0.00    +0.011 A 
ATOM     14  C   LIG    1       -7.730  -6.020  -0.271  0.00  0.00    +0.001 A 
ATOM     15  C   LIG    1       -7.474  -7.380  -0.262  0.00  0.00    +0.000 A 
ATOM     16  C   LIG    1       -6.171  -7.844  -0.210  0.00  0.00    +0.001 A 
ATOM     17  C   LIG    1       -5.119  -6.953  -0.173  0.00  0.00    +0.011 A 
ENDBRANCH   7  12
BRANCH   1  18
ATOM     18  O   LIG    1       -1.152  -0.691   0.009  0.00  0.00    -0.425 OA
BRANCH  18  20
ATOM     19  C   LIG    1       -1.429   1.421   1.257  0.00  0.00    +0.136 C 
ATOM     20  C   LIG    1       -1.349  -0.082   1.190  0.00  0.00    +0.309 C 
ATOM     21  O   LIG    1       -1.461  -0.739   2.197  0.00  0.00    -0.251 OA
ENDBRANCH  18  20
ENDBRANCH   1  18
BRANCH   3  22
ATOM     22  O   LIG    1        1.713  -4.482   0.105  0.00  0.00    -0.492 OA
BRANCH  22  23
ATOM     23  C   LIG    1        2.800  -3.555   0.155  0.00  0.00    +0.229 C 
BRANCH  23  24
ATOM     24  C   LIG    1        4.123  -4.323   0.205  0.00  0.00    +0.044 C 
BRANCH  24  25
ATOM     25  C   LIG    1        5.286  -3.332   0.259  0.00  0.00    +0.047 C 
BRANCH  25  26
ATOM     26  C   LIG    1        6.609  -4.099   0.308  0.00  0.00    +0.267 C 
BRANCH  26  27
ATOM     27  O   LIG    1        7.696  -3.173   0.359  0.00  0.00    -0.354 OA
BRANCH  27  28
ATOM     28  N   LIG    1        8.972  -3.785   0.407  0.00  0.00    +0.171 N 
ATOM     29  O   LIG    1        9.065  -4.990   0.404  0.00  0.00    -0.094 OA
BRANCH  28  30
ATOM     30  O   LIG    1        9.969  -3.102   0.452  0.00  0.00    -0.370 OA
ATOM     31  H   LIG    1        9.896  -2.167   0.455  0.00  0.00    +0.332 HD
ENDBRANCH  28  30
ENDBRANCH  27  28
ENDBRANCH  26  27
ENDBRANCH  25  26
ENDBRANCH  24  25
ENDBRANCH  23  24
ENDBRANCH  22  23
ENDBRANCH   3  22
TORSDOF 11
