REMARK  Name = ZINC00004264
REMARK                            x       y       z     vdW  Elec       q    Type
REMARK                         _______ _______ _______ _____ _____    ______ ____
ROOT
ATOM      1  C   LIG    1       -0.174   1.497   0.016  0.00  0.00    +0.063 C 
ATOM      2  C   LIG    1       -0.079  -0.007   0.005  0.00  0.00    +0.042 C 
ATOM      3  N   LIG    1       -0.134  -0.573  -1.156  0.00  0.00    -0.158 NA
ATOM      4  N   LIG    1       -0.084  -1.793  -1.534  0.00  0.00    -0.149 NA
ATOM      5  C   LIG    1        0.039  -2.927  -0.885  0.00  0.00    +0.101 C 
ATOM      6  C   LIG    1        0.164  -3.148   0.569  0.00  0.00    +0.010 A 
ATOM      7  C   LIG    1        0.271  -4.495   0.911  0.00  0.00    +0.060 A 
ATOM      8  C   LIG    1        0.394  -4.850   2.243  0.00  0.00    +0.167 A 
ATOM      9  C   LIG    1        0.411  -3.868   3.235  0.00  0.00    +0.167 A 
ATOM     10  O   LIG    1        0.541  -4.477   4.448  0.00  0.00    -0.453 OA
ATOM     11  C   LIG    1        0.191  -5.856   4.226  0.00  0.00    +0.466 C 
ATOM     12  C   LIG    1        0.304  -2.524   2.892  0.00  0.00    +0.054 A 
ATOM     13  O   LIG    1        0.513  -6.072   2.840  0.00  0.00    -0.453 OA
ATOM     14  C   LIG    1        0.180  -2.171   1.572  0.00  0.00    -0.029 A 
ATOM     15  C   LIG    1        0.075  -0.678   1.357  0.00  0.00    +0.088 C 
ENDROOT
BRANCH   5  16
ATOM     16  C   LIG    1        0.055  -4.144  -1.721  0.00  0.00    +0.003 A 
ATOM     17  C   LIG    1       -1.142  -4.796  -2.031  0.00  0.00    +0.012 A 
ATOM     18  C   LIG    1       -1.123  -5.931  -2.811  0.00  0.00    +0.023 A 
ATOM     19  C   LIG    1        0.085  -6.429  -3.289  0.00  0.00    +0.025 A 
ATOM     20  C   LIG    1        1.278  -5.782  -2.982  0.00  0.00    +0.023 A 
ATOM     21  C   LIG    1        1.266  -4.644  -2.208  0.00  0.00    +0.012 A 
BRANCH  19  22
ATOM     22  N   LIG    1        0.100  -7.577  -4.077  0.00  0.00    -0.358 N 
ATOM     23  H   LIG    1        0.942  -7.926  -4.410  0.00  0.00    +0.142 HD
ATOM     24  H   LIG    1       -0.731  -8.029  -4.291  0.00  0.00    +0.142 HD
ENDBRANCH  19  22
ENDBRANCH   5  16
TORSDOF 2
