REMARK  Name = ZINC16969869
REMARK                            x       y       z     vdW  Elec       q    Type
REMARK                         _______ _______ _______ _____ _____    ______ ____
ROOT
ATOM      1  C   LIG    1       -0.022   1.786   0.012  0.00  0.00    +0.181 A 
ATOM      2  N   LIG    1        1.281   2.032   0.001  0.00  0.00    -0.125 NA
ATOM      3  N   LIG    1        2.133   1.102  -0.012  0.00  0.00    -0.119 NA
ATOM      4  C   LIG    1        1.785  -0.169  -0.016  0.00  0.00    +0.256 A 
ATOM      5  S   LIG    1        0.002  -0.004   0.002  0.00  0.00    -0.011 S 
ENDROOT
BRANCH   1   6
ATOM      6  N   LIG    1       -1.096   2.664   0.032  0.00  0.00    -0.336 N 
ATOM      7  H   LIG    1       -0.939   3.622   0.035  0.00  0.00    +0.144 HD
ATOM      8  H   LIG    1       -2.003   2.321   0.043  0.00  0.00    +0.144 HD
ENDBRANCH   1   6
BRANCH   4   9
ATOM      9  S   LIG    1        2.788  -1.617  -0.034  0.00  0.00    +0.081 S 
ATOM     10  O   LIG    1        2.107  -2.573  -0.836  0.00  0.00    -0.151 OA
ATOM     11  O   LIG    1        3.152  -1.876   1.315  0.00  0.00    -0.151 OA
BRANCH   9  12
ATOM     12  N   LIG    1        4.185  -1.236  -0.836  0.00  0.00    -0.202 NA
ATOM     13  H   LIG    1        4.612  -0.459  -0.330  0.00  0.00    +0.144 HD
ATOM     14  H   LIG    1        4.876  -1.907  -0.954  0.00  0.00    +0.144 HD
ENDBRANCH   9  12
ENDBRANCH   4   9
TORSDOF 3
