REMARK  Name = ZINC15834247
REMARK                            x       y       z     vdW  Elec       q    Type
REMARK                         _______ _______ _______ _____ _____    ______ ____
ROOT
ATOM      1  C   LIG    1        1.852  -3.437  -0.772  0.00  0.00    +0.069 A 
ATOM      2  C   LIG    1        1.087  -4.576  -0.799  0.00  0.00    +0.089 A 
ATOM      3  C   LIG    1       -0.256  -4.196  -0.292  0.00  0.00    +0.082 A 
ATOM      4  N   LIG    1       -1.254  -5.179  -0.219  0.00  0.00    -0.294 N 
ATOM      5  C   LIG    1       -2.598  -4.867   0.273  0.00  0.00    +0.154 C 
ATOM      6  C   LIG    1       -0.924  -6.427  -0.621  0.00  0.00    +0.332 A 
ATOM      7  N   LIG    1        0.274  -6.804  -1.078  0.00  0.00    -0.263 N 
ATOM      8  C   LIG    1        0.454  -8.206  -1.466  0.00  0.00    +0.157 C 
ATOM      9  O   LIG    1       -1.790  -7.278  -0.560  0.00  0.00    -0.246 OA
ATOM     10  C   LIG    1       -0.196  -2.907   0.008  0.00  0.00    +0.073 A 
ATOM     11  C   LIG    1       -1.262  -2.007   0.595  0.00  0.00    +0.150 C 
ATOM     12  N   LIG    1       -0.965  -0.626   0.183  0.00  0.00    -0.330 N 
ATOM     13  H   LIG    1       -1.689  -0.027  -0.055  0.00  0.00    +0.147 HD
ATOM     14  C   LIG    1        0.359  -0.176   0.132  0.00  0.00    +0.052 A 
ATOM     15  C   LIG    1        0.653   1.165   0.330  0.00  0.00    +0.025 A 
ATOM     16  C   LIG    1        1.962   1.602   0.252  0.00  0.00    +0.002 A 
ATOM     17  C   LIG    1        2.982   0.711  -0.030  0.00  0.00    +0.002 A 
ATOM     18  C   LIG    1        2.700  -0.629  -0.227  0.00  0.00    +0.028 A 
ATOM     19  C   LIG    1        1.395  -1.075  -0.139  0.00  0.00    +0.068 A 
ATOM     20  C   LIG    1        1.333  -5.964  -1.204  0.00  0.00    +0.266 A 
ATOM     21  O   LIG    1        2.413  -6.338  -1.623  0.00  0.00    -0.267 OA
ATOM     22  N   LIG    1        1.069  -2.429  -0.301  0.00  0.00    -0.306 N 
ENDROOT
BRANCH   1  28
ATOM     23  C   LIG    1        5.367  -1.373  -3.648  0.00  0.00    +0.044 C 
ATOM     24  C   LIG    1        4.963  -2.335  -2.560  0.00  0.00    -0.050 A 
ATOM     25  C   LIG    1        5.921  -3.118  -1.940  0.00  0.00    +0.003 A 
ATOM     26  C   LIG    1        5.559  -4.005  -0.941  0.00  0.00    +0.001 A 
ATOM     27  C   LIG    1        4.239  -4.113  -0.556  0.00  0.00    +0.010 A 
ATOM     28  C   LIG    1        3.267  -3.326  -1.178  0.00  0.00    -0.000 A 
ATOM     29  C   LIG    1        3.639  -2.437  -2.190  0.00  0.00    +0.013 A 
ENDBRANCH   1  28
BRANCH  11  30
ATOM     30  C   LIG    1       -1.242  -2.106   2.098  0.00  0.00    -0.019 A 
ATOM     31  C   LIG    1       -0.142  -1.658   2.806  0.00  0.00    +0.006 A 
ATOM     32  C   LIG    1       -0.123  -1.748   4.185  0.00  0.00    +0.003 A 
ATOM     33  C   LIG    1       -1.205  -2.285   4.858  0.00  0.00    +0.038 A 
ATOM     34  C   LIG    1       -2.306  -2.734   4.151  0.00  0.00    +0.124 A 
ATOM     35  F   LIG    1       -3.364  -3.260   4.807  0.00  0.00    -0.205 F 
ATOM     36  C   LIG    1       -2.326  -2.639   2.769  0.00  0.00    +0.044 A 
ENDBRANCH  11  30
TORSDOF 2
