REMARK  Name = ZINC15965752
REMARK                            x       y       z     vdW  Elec       q    Type
REMARK                         _______ _______ _______ _____ _____    ______ ____
ROOT
ATOM      1  C   LIG    1        3.658   1.860  -0.022  0.00  0.00    +0.135 C 
ENDROOT
BRANCH   1   9
ATOM      2  C   LIG    1       10.447   1.098  -2.596  0.00  0.00    +0.065 C 
ATOM      3  C   LIG    1        9.145   0.463  -2.184  0.00  0.00    +0.039 A 
ATOM      4  C   LIG    1        9.006  -0.921  -2.276  0.00  0.00    +0.023 A 
ATOM      5  C   LIG    1        7.832  -1.514  -1.907  0.00  0.00    +0.012 A 
ATOM      6  C   LIG    1        6.791  -0.691  -1.439  0.00  0.00    +0.004 A 
ATOM      7  C   LIG    1        5.556  -1.229  -1.040  0.00  0.00    +0.010 A 
ATOM      8  C   LIG    1        4.573  -0.402  -0.588  0.00  0.00    +0.010 A 
ATOM      9  C   LIG    1        4.770   0.975  -0.523  0.00  0.00    +0.021 A 
ATOM     10  C   LIG    1        5.957   1.535  -0.901  0.00  0.00    +0.148 A 
ATOM     11  C   LIG    1        7.000   0.709  -1.370  0.00  0.00    +0.113 A 
ATOM     12  N   LIG    1        8.173   1.226  -1.747  0.00  0.00    -0.248 NA
BRANCH  10  13
ATOM     13  O   LIG    1        6.132   2.880  -0.827  0.00  0.00    -0.504 OA
ATOM     14  H   LIG    1        6.486   3.184   0.020  0.00  0.00    +0.292 HD
ENDBRANCH  10  13
ENDBRANCH   1   9
BRANCH   1  15
ATOM     15  C   LIG    1        3.816   2.075   1.461  0.00  0.00    -0.023 A 
ATOM     16  C   LIG    1        3.390   1.105   2.349  0.00  0.00    +0.006 A 
ATOM     17  C   LIG    1        3.539   1.300   3.709  0.00  0.00    +0.000 A 
ATOM     18  C   LIG    1        4.106   2.470   4.182  0.00  0.00    +0.000 A 
ATOM     19  C   LIG    1        4.527   3.441   3.294  0.00  0.00    +0.000 A 
ATOM     20  C   LIG    1        4.382   3.244   1.933  0.00  0.00    +0.006 A 
ENDBRANCH   1  15
BRANCH   1  21
ATOM     21  N   LIG    1        2.367   1.220  -0.288  0.00  0.00    -0.333 N 
ATOM     22  H   LIG    1        2.313   0.256  -0.379  0.00  0.00    +0.147 HD
BRANCH  21  23
ATOM     23  C   LIG    1        1.214   1.999  -0.411  0.00  0.00    +0.028 A 
ATOM     24  C   LIG    1       -0.011   1.394  -0.663  0.00  0.00    +0.023 A 
ATOM     25  C   LIG    1       -1.148   2.167  -0.789  0.00  0.00    +0.002 A 
ATOM     26  C   LIG    1       -1.071   3.541  -0.653  0.00  0.00    +0.000 A 
ATOM     27  C   LIG    1        0.147   4.147  -0.403  0.00  0.00    +0.002 A 
ATOM     28  C   LIG    1        1.289   3.380  -0.281  0.00  0.00    +0.023 A 
ENDBRANCH  21  23
ENDBRANCH   1  21
TORSDOF 5
