REMARK  Name = ZINC26671979
REMARK                            x       y       z     vdW  Elec       q    Type
REMARK                         _______ _______ _______ _____ _____    ______ ____
ROOT
ATOM      1  N   LIG    1        1.447  -4.746  -0.032  0.00  0.00    -0.271 N 
ATOM      2  H   LIG    1        2.176  -4.106  -0.032  0.00  0.00    +0.304 HD
ATOM      3  C   LIG    1        1.701  -6.022  -0.040  0.00  0.00    +0.279 C 
ATOM      4  N   LIG    1        0.761  -7.033  -0.046  0.00  0.00    -0.169 N 
ATOM      5  H   LIG    1       -0.200  -6.902  -0.045  0.00  0.00    +0.302 HD
ATOM      6  C   LIG    1        1.395  -8.260  -0.054  0.00  0.00    +0.279 C 
ATOM      7  C   LIG    1        2.855  -8.030  -0.053  0.00  0.00    +0.076 A 
ATOM      8  C   LIG    1        3.956  -8.877  -0.059  0.00  0.00    +0.016 A 
ATOM      9  C   LIG    1        5.232  -8.344  -0.071  0.00  0.00    +0.001 A 
ATOM     10  C   LIG    1        5.420  -6.973  -0.065  0.00  0.00    +0.001 A 
ATOM     11  C   LIG    1        4.334  -6.117  -0.055  0.00  0.00    +0.016 A 
ATOM     12  N   LIG    1        0.807  -9.421  -0.062  0.00  0.00    -0.271 N 
ATOM     13  H   LIG    1        1.337 -10.233  -0.068  0.00  0.00    +0.304 HD
ATOM     14  C   LIG    1        3.046  -6.636  -0.051  0.00  0.00    +0.076 A 
ENDROOT
BRANCH   1  15
ATOM     15  C   LIG    1        0.059  -4.275  -0.021  0.00  0.00    +0.269 C 
BRANCH  15  20
ATOM     16  C   LIG    1       -0.018   1.503   0.010  0.00  0.00    +0.044 C 
ATOM     17  C   LIG    1        0.002  -0.004   0.002  0.00  0.00    -0.050 A 
ATOM     18  C   LIG    1        0.006  -0.689  -1.199  0.00  0.00    +0.004 A 
ATOM     19  C   LIG    1        0.025  -2.071  -1.206  0.00  0.00    +0.008 A 
ATOM     20  C   LIG    1        0.040  -2.768  -0.013  0.00  0.00    -0.007 A 
ATOM     21  C   LIG    1        0.037  -2.084   1.188  0.00  0.00    +0.008 A 
ATOM     22  C   LIG    1        0.023  -0.702   1.195  0.00  0.00    +0.004 A 
ENDBRANCH  15  20
ENDBRANCH   1  15
BRANCH  12  23
ATOM     23  C   LIG    1       -0.656  -9.502  -0.061  0.00  0.00    +0.269 C 
BRANCH  23  24
ATOM     24  C   LIG    1       -1.080 -10.948  -0.071  0.00  0.00    -0.007 A 
ATOM     25  C   LIG    1       -1.270 -11.604  -1.272  0.00  0.00    +0.008 A 
ATOM     26  C   LIG    1       -1.659 -12.931  -1.281  0.00  0.00    +0.004 A 
ATOM     27  C   LIG    1       -1.857 -13.601  -0.088  0.00  0.00    -0.050 A 
ATOM     28  C   LIG    1       -2.282 -15.047  -0.097  0.00  0.00    +0.044 C 
ATOM     29  C   LIG    1       -1.667 -12.944   1.113  0.00  0.00    +0.004 A 
ATOM     30  C   LIG    1       -1.274 -11.619   1.122  0.00  0.00    +0.008 A 
ENDBRANCH  23  24
ENDBRANCH  12  23
TORSDOF 4
