REMARK  Name = ZINC40973756
REMARK                            x       y       z     vdW  Elec       q    Type
REMARK                         _______ _______ _______ _____ _____    ______ ____
ROOT
ATOM      1  C   LIG    1       -0.017   1.378   0.010  0.00  0.00    +0.051 A 
ATOM      2  C   LIG    1        1.296   1.807  -0.001  0.00  0.00    +0.058 A 
ATOM      3  C   LIG    1        2.147   0.692  -0.015  0.00  0.00    +0.146 A 
ATOM      4  N   LIG    1        3.445   1.001  -0.026  0.00  0.00    -0.230 NA
ATOM      5  C   LIG    1        3.868   2.237  -0.024  0.00  0.00    +0.158 A 
ATOM      6  N   LIG    1        1.320  -0.419  -0.013  0.00  0.00    -0.334 N 
ATOM      7  H   LIG    1        1.619  -1.342  -0.020  0.00  0.00    +0.168 HD
ATOM      8  S   LIG    1        2.454   3.150  -0.004  0.00  0.00    -0.074 S 
ATOM      9  CA  LIG    1        0.002  -0.004   0.002  0.00  0.00    +0.127 A 
ENDROOT
BRANCH   9  10
ATOM     10  C   LIG    1       -1.134  -0.849   0.009  0.00  0.00    +0.353 C 
ATOM     11  O   LIG    1       -0.992  -2.066   0.001  0.00  0.00    -0.243 OA
BRANCH  10  12
ATOM     12  OXT LIG    1       -2.259  -0.363   0.023  0.00  0.00    -0.476 OA
ATOM     13  HXT LIG    1       -2.367   0.567   0.029  0.00  0.00    +0.295 HD
ENDBRANCH  10  12
ENDBRANCH   9  10
TORSDOF 2
