REMARK  Name = ZINC36056300
REMARK                            x       y       z     vdW  Elec       q    Type
REMARK                         _______ _______ _______ _____ _____    ______ ____
ROOT
ATOM      1  N   LIG    1       -1.224  -1.037   0.218  0.00  0.00    -0.243 N 
ATOM      2  C   LIG    1       -1.900  -1.394  -0.911  0.00  0.00    +0.164 A 
ATOM      3  C   LIG    1       -3.245  -1.583  -0.540  0.00  0.00    +0.086 A 
ATOM      4  C   LIG    1       -4.167  -1.960  -1.530  0.00  0.00    +0.131 A 
ATOM      5  N   LIG    1       -3.727  -2.121  -2.774  0.00  0.00    -0.220 NA
ATOM      6  C   LIG    1       -2.455  -1.932  -3.078  0.00  0.00    +0.225 A 
ATOM      7  C   LIG    1       -3.320  -1.312   0.896  0.00  0.00    +0.105 A 
ATOM      8  N   LIG    1       -1.556  -1.580  -2.185  0.00  0.00    -0.216 NA
ATOM      9  N   LIG    1       -2.111  -1.001   1.300  0.00  0.00    -0.168 NA
ENDROOT
BRANCH   7  10
ATOM     10  C   LIG    1       -4.537  -1.383   1.739  0.00  0.00    +0.005 A 
ATOM     11  C   LIG    1       -5.406  -2.481   1.605  0.00  0.00    +0.011 A 
ATOM     12  C   LIG    1       -6.531  -2.591   2.353  0.00  0.00    +0.014 A 
ATOM     13  C   LIG    1       -6.850  -1.591   3.292  0.00  0.00    +0.039 A 
ATOM     14  C   LIG    1       -7.892  -1.395   4.194  0.00  0.00    +0.118 A 
ATOM     15  N   LIG    1       -7.662  -0.238   4.839  0.00  0.00    -0.286 N 
ATOM     16  H   LIG    1       -8.234   0.140   5.525  0.00  0.00    +0.188 HD
ATOM     17  N   LIG    1       -6.475   0.339   4.375  0.00  0.00    -0.298 N 
ATOM     18  H   LIG    1       -6.097   1.176   4.687  0.00  0.00    +0.187 HD
ATOM     19  C   LIG    1       -5.950  -0.437   3.443  0.00  0.00    +0.066 A 
ATOM     20  C   LIG    1       -4.791  -0.374   2.643  0.00  0.00    +0.037 A 
BRANCH  14  21
ATOM     21  N   LIG    1       -8.972  -2.240   4.392  0.00  0.00    -0.343 N 
ATOM     22  H   LIG    1       -9.650  -2.015   5.048  0.00  0.00    +0.144 HD
ATOM     23  H   LIG    1       -9.050  -3.057   3.875  0.00  0.00    +0.144 HD
ENDBRANCH  14  21
ENDBRANCH   7  10
BRANCH   1  25
ATOM     24  C   LIG    1        0.413   0.688   0.788  0.00  0.00    +0.032 C 
ATOM     25  C   LIG    1        0.209  -0.744   0.289  0.00  0.00    +0.103 C 
ATOM     26  C   LIG    1        0.883  -1.721   1.255  0.00  0.00    +0.032 C 
ENDBRANCH   1  25
BRANCH   4  27
ATOM     27  N   LIG    1       -5.498  -2.158  -1.218  0.00  0.00    -0.342 N 
ATOM     28  H   LIG    1       -6.074  -2.638  -1.834  0.00  0.00    +0.144 HD
ATOM     29  H   LIG    1       -5.857  -1.818  -0.383  0.00  0.00    +0.144 HD
ENDBRANCH   4  27
TORSDOF 4
