REMARK  Name = ZINC20432232
REMARK                            x       y       z     vdW  Elec       q    Type
REMARK                         _______ _______ _______ _____ _____    ______ ____
ROOT
ATOM      1  C   LIG    1       -2.517   1.413   0.021  0.00  0.00    +0.040 A 
ATOM      2  C   LIG    1       -2.963   0.467  -0.904  0.00  0.00    +0.044 A 
ATOM      3  C   LIG    1       -4.293   0.053  -0.865  0.00  0.00    +0.109 A 
ATOM      4  N   LIG    1       -5.143   0.553   0.030  0.00  0.00    -0.228 NA
ATOM      5  C   LIG    1       -4.772   1.454   0.922  0.00  0.00    +0.135 A 
ATOM      6  C   LIG    1       -3.447   1.923   0.958  0.00  0.00    +0.102 A 
ENDROOT
BRANCH   1   9
ATOM      7  C   LIG    1        1.105   1.931   0.002  0.00  0.00    +0.042 A 
ATOM      8  C   LIG    1       -0.013   1.076   0.008  0.00  0.00    +0.050 A 
ATOM      9  C   LIG    1       -1.116   1.874   0.017  0.00  0.00    +0.136 A 
ATOM     10  O   LIG    1       -0.705   3.157   0.025  0.00  0.00    -0.463 OA
ATOM     11  C   LIG    1        0.636   3.195   0.013  0.00  0.00    +0.196 A 
ENDBRANCH   1   9
BRANCH   3  12
ATOM     12  C   LIG    1       -4.768  -0.951  -1.835  0.00  0.00    +0.153 A 
ATOM     13  C   LIG    1       -6.033  -1.447  -1.917  0.00  0.00    +0.051 A 
ATOM     14  C   LIG    1       -6.039  -2.369  -2.980  0.00  0.00    +0.042 A 
ATOM     15  C   LIG    1       -4.789  -2.398  -3.486  0.00  0.00    +0.196 A 
ATOM     16  O   LIG    1       -4.024  -1.540  -2.792  0.00  0.00    -0.461 OA
ENDBRANCH   3  12
BRANCH   5  17
ATOM     17  N   LIG    1       -5.697   1.941   1.830  0.00  0.00    -0.342 N 
ATOM     18  H   LIG    1       -6.735   1.578   1.806  0.00  0.00    +0.144 HD
ATOM     19  H   LIG    1       -5.393   2.692   2.575  0.00  0.00    +0.144 HD
ENDBRANCH   5  17
BRANCH   6  20
ATOM     20  C   LIG    1       -3.046   2.900   1.925  0.00  0.00    +0.103 C 
ATOM     21  N   LIG    1       -2.728   3.675   2.693  0.00  0.00    -0.191 NA
ENDBRANCH   6  20
TORSDOF 4
