REMARK  Name = ZINC58538075
REMARK                            x       y       z     vdW  Elec       q    Type
REMARK                         _______ _______ _______ _____ _____    ______ ____
ROOT
ATOM      1  C   LIG    1       -0.320  -0.363  -2.550  0.00  0.00    +0.123 C 
ENDROOT
BRANCH   1   4
ATOM      2  C   LIG    1       -0.340   1.478   0.028  0.00  0.00    +0.068 C 
ATOM      3  C   LIG    1       -0.137  -0.015   0.010  0.00  0.00    +0.065 A 
ATOM      4  C   LIG    1       -0.128  -0.827  -1.129  0.00  0.00    +0.010 A 
ATOM      5  C   LIG    1        0.084  -2.102  -0.730  0.00  0.00    +0.047 A 
ATOM      6  C   LIG    1        0.170  -3.312  -1.625  0.00  0.00    +0.066 C 
ATOM      7  N   LIG    1        0.204  -2.097   0.617  0.00  0.00    -0.236 N 
ATOM      8  N   LIG    1        0.067  -0.774   1.056  0.00  0.00    -0.171 NA
BRANCH   7   9
ATOM      9  C   LIG    1        0.431  -3.217   1.429  0.00  0.00    +0.066 A 
ATOM     10  C   LIG    1        1.349  -4.184   1.041  0.00  0.00    +0.028 A 
ATOM     11  C   LIG    1        1.570  -5.286   1.844  0.00  0.00    +0.002 A 
ATOM     12  C   LIG    1        0.878  -5.427   3.033  0.00  0.00    +0.000 A 
ATOM     13  C   LIG    1       -0.037  -4.466   3.422  0.00  0.00    +0.002 A 
ATOM     14  C   LIG    1       -0.258  -3.358   2.626  0.00  0.00    +0.028 A 
ENDBRANCH   7   9
ENDBRANCH   1   4
BRANCH   1  15
ATOM     15  N   LIG    1        0.984  -0.024  -3.135  0.00  0.00    -0.295 NA
ATOM     16  C   LIG    1        1.579   1.136  -2.459  0.00  0.00    +0.103 C 
ATOM     17  C   LIG    1        3.008   1.345  -2.972  0.00  0.00    +0.120 C 
ATOM     18  N   LIG    1        2.969   1.433  -4.440  0.00  0.00    -0.325 N 
ATOM     19  C   LIG    1        2.268   0.374  -5.182  0.00  0.00    +0.120 C 
ATOM     20  C   LIG    1        0.869   0.203  -4.582  0.00  0.00    +0.103 C 
BRANCH  18  21
ATOM     21  C   LIG    1        3.583   2.496  -5.112  0.00  0.00    +0.072 A 
ATOM     22  C   LIG    1        4.906   2.392  -5.516  0.00  0.00    +0.027 A 
ATOM     23  C   LIG    1        5.510   3.443  -6.181  0.00  0.00    +0.002 A 
ATOM     24  C   LIG    1        4.798   4.599  -6.444  0.00  0.00    +0.004 A 
ATOM     25  C   LIG    1        3.479   4.710  -6.044  0.00  0.00    +0.047 A 
ATOM     26  C   LIG    1        2.865   3.659  -5.383  0.00  0.00    +0.141 A 
BRANCH  26  27
ATOM     27  O   LIG    1        1.566   3.765  -4.994  0.00  0.00    -0.493 OA
ATOM     28  C   LIG    1        0.893   4.986  -5.305  0.00  0.00    +0.277 C 
ENDBRANCH  26  27
ENDBRANCH  18  21
ENDBRANCH   1  15
TORSDOF 5
