REMARK  Name = ZINC13817997
REMARK                            x       y       z     vdW  Elec       q    Type
REMARK                         _______ _______ _______ _____ _____    ______ ____
ROOT
ATOM      1  C   LIG    1       -0.017   1.389   0.010  0.00  0.00    +0.020 A 
ATOM      2  C   LIG    1        1.158   2.086   0.002  0.00  0.00    +0.011 A 
ATOM      3  C   LIG    1        2.362   1.358  -0.014  0.00  0.00    +0.002 A 
ATOM      4  C   LIG    1        3.609   2.007  -0.019  0.00  0.00    +0.011 A 
ATOM      5  C   LIG    1        4.753   1.280  -0.050  0.00  0.00    +0.011 A 
ATOM      6  C   LIG    1        4.729  -0.131  -0.080  0.00  0.00    +0.009 A 
ATOM      7  C   LIG    1        3.514  -0.796  -0.043  0.00  0.00    +0.082 A 
ATOM      8  N   LIG    1        3.431  -2.190   0.001  0.00  0.00    -0.214 N 
ATOM      9  H   LIG    1        2.700  -2.640   0.484  0.00  0.00    +0.174 HD
ATOM     10  S   LIG    1        4.607  -3.066  -0.787  0.00  0.00    +0.073 S 
ATOM     11  C   LIG    1        6.107  -2.197  -0.443  0.00  0.00    +0.116 A 
ATOM     12  C   LIG    1        7.319  -2.845  -0.479  0.00  0.00    +0.031 A 
ATOM     13  C   LIG    1        8.482  -2.142  -0.213  0.00  0.00    +0.022 A 
ATOM     14  C   LIG    1        8.422  -0.792   0.087  0.00  0.00    +0.042 A 
ATOM     15 CL   LIG    1        9.885   0.084   0.413  0.00  0.00    -0.084 Cl
ATOM     16  C   LIG    1        7.207  -0.138   0.128  0.00  0.00    +0.030 A 
ATOM     17  O   LIG    1        4.694  -4.326  -0.136  0.00  0.00    -0.150 OA
ATOM     18  O   LIG    1        4.360  -2.935  -2.181  0.00  0.00    -0.150 OA
ATOM     19  C   LIG    1        6.029  -0.840  -0.136  0.00  0.00    +0.012 A 
ATOM     20  C   LIG    1        2.309  -0.056  -0.022  0.00  0.00    +0.094 A 
ATOM     21  N   LIG    1        1.127  -0.678  -0.013  0.00  0.00    -0.253 NA
ATOM     22  C   LIG    1        0.002  -0.004   0.002  0.00  0.00    +0.111 A 
ENDROOT
TORSDOF 0
