REMARK  Name = ZINC20216477
REMARK                            x       y       z     vdW  Elec       q    Type
REMARK                         _______ _______ _______ _____ _____    ______ ____
ROOT
ATOM      1  C   LIG    1       -2.320   3.965   0.048  0.00  0.00    -0.014 C 
ATOM      2  C   LIG    1       -3.048   3.610  -1.250  0.00  0.00    +0.010 C 
ATOM      3  C   LIG    1       -4.271   4.515  -1.413  0.00  0.00    +0.001 C 
ATOM      4  C   LIG    1       -3.820   5.976  -1.464  0.00  0.00    +0.000 C 
ATOM      5  C   LIG    1       -3.092   6.331  -0.166  0.00  0.00    +0.001 C 
ATOM      6  C   LIG    1       -1.870   5.426  -0.003  0.00  0.00    +0.010 C 
ENDROOT
BRANCH   1   9
ATOM      7  C   LIG    1        0.168   1.115   0.499  0.00  0.00    +0.008 A 
ATOM      8  C   LIG    1       -1.064   1.728   0.365  0.00  0.00    +0.012 A 
ATOM      9  C   LIG    1       -1.116   3.073   0.209  0.00  0.00    -0.006 A 
ATOM     10  S   LIG    1        0.614   3.514   0.233  0.00  0.00    -0.101 S 
ATOM     11  C   LIG    1        1.288   1.876   0.458  0.00  0.00    +0.045 A 
ENDBRANCH   1   9
BRANCH   1  12
ATOM     12  C   LIG    1       -3.265   3.764   1.234  0.00  0.00    -0.074 C 
BRANCH  12  13
ATOM     13  N   LIG    1       -2.538   4.010   2.487  0.00  0.00    +0.379 N 
ATOM     14  H   LIG    1       -1.696   3.307   2.566  0.00  0.00    -0.090 HD
ATOM     15  H   LIG    1       -2.157   5.041   2.493  0.00  0.00    -0.090 HD
ATOM     16  H   LIG    1       -3.218   3.865   3.340  0.00  0.00    -0.090 HD
ENDBRANCH  12  13
ENDBRANCH   1  12
TORSDOF 3
