REMARK  Name = ZINC14607249
REMARK                            x       y       z     vdW  Elec       q    Type
REMARK                         _______ _______ _______ _____ _____    ______ ____
ROOT
ATOM      1  C   LIG    1       -1.540   2.899  -0.426  0.00  0.00    +0.028 C 
ATOM      2  C   LIG    1       -1.341   1.576  -1.168  0.00  0.00    +0.081 C 
ATOM      3  C   LIG    1       -0.046   1.630  -1.989  0.00  0.00    +0.051 C 
ATOM      4  C   LIG    1        1.118   1.959  -1.055  0.00  0.00    +0.131 C 
ATOM      5  C   LIG    1        1.123   1.029   0.129  0.00  0.00    -0.004 A 
ATOM      6  C   LIG    1        2.296   0.865   0.848  0.00  0.00    +0.007 A 
ATOM      7  C   LIG    1        2.332   0.021   1.940  0.00  0.00    +0.000 A 
ATOM      8  C   LIG    1        1.195  -0.666   2.325  0.00  0.00    +0.002 A 
ATOM      9  C   LIG    1        0.022  -0.509   1.614  0.00  0.00    +0.024 A 
ATOM     10  C   LIG    1       -0.016   0.338   0.512  0.00  0.00    +0.042 A 
ATOM     11  N   LIG    1       -1.215   0.477  -0.201  0.00  0.00    -0.264 N 
ATOM     12  C   LIG    1       -2.234  -0.383  -0.004  0.00  0.00    +0.251 C 
ATOM     13  O   LIG    1       -2.168  -1.212   0.883  0.00  0.00    -0.270 OA
ENDROOT
BRANCH  12  14
ATOM     14  C   LIG    1       -3.432  -0.319  -0.868  0.00  0.00    +0.037 A 
ATOM     15  C   LIG    1       -3.309   0.031  -2.213  0.00  0.00    +0.013 A 
ATOM     16  C   LIG    1       -4.431   0.089  -3.013  0.00  0.00    +0.001 A 
ATOM     17  C   LIG    1       -5.677  -0.200  -2.485  0.00  0.00    +0.000 A 
ATOM     18  C   LIG    1       -5.806  -0.547  -1.152  0.00  0.00    +0.001 A 
ATOM     19  C   LIG    1       -4.691  -0.614  -0.342  0.00  0.00    +0.013 A 
ENDBRANCH  12  14
BRANCH   4  20
ATOM     20  N   LIG    1        2.379   1.817  -1.786  0.00  0.00    -0.196 N 
BRANCH  20  21
ATOM     21  C   LIG    1        2.681   0.616  -2.432  0.00  0.00    +0.052 A 
ATOM     22  C   LIG    1        3.510  -0.315  -1.819  0.00  0.00    +0.025 A 
ATOM     23  C   LIG    1        3.806  -1.502  -2.461  0.00  0.00    +0.002 A 
ATOM     24  C   LIG    1        3.278  -1.764  -3.712  0.00  0.00    +0.000 A 
ATOM     25  C   LIG    1        2.452  -0.839  -4.324  0.00  0.00    +0.002 A 
ATOM     26  C   LIG    1        2.147   0.347  -3.686  0.00  0.00    +0.025 A 
ENDBRANCH  20  21
BRANCH  20  27
ATOM     27  S   LIG    1        3.448   3.081  -1.847  0.00  0.00    +0.075 S 
ATOM     28  O   LIG    1        2.729   4.240  -1.449  0.00  0.00    -0.150 OA
ATOM     29  O   LIG    1        4.114   2.990  -3.099  0.00  0.00    -0.150 OA
BRANCH  27  30
ATOM     30  C   LIG    1        4.666   2.793  -0.606  0.00  0.00    +0.109 A 
ATOM     31  C   LIG    1        4.475   3.276   0.675  0.00  0.00    +0.029 A 
ATOM     32  C   LIG    1        5.431   3.050   1.648  0.00  0.00    +0.002 A 
ATOM     33  C   LIG    1        6.577   2.341   1.340  0.00  0.00    +0.000 A 
ATOM     34  C   LIG    1        6.767   1.857   0.059  0.00  0.00    +0.002 A 
ATOM     35  C   LIG    1        5.809   2.079  -0.913  0.00  0.00    +0.029 A 
ENDBRANCH  27  30
ENDBRANCH  20  27
ENDBRANCH   4  20
TORSDOF 5
