REMARK  Name = ZINC14946539
REMARK                            x       y       z     vdW  Elec       q    Type
REMARK                         _______ _______ _______ _____ _____    ______ ____
ROOT
ATOM      1  C   LIG    1       -5.467   0.708   1.319  0.00  0.00    +0.097 A 
ATOM      2  C   LIG    1       -4.271   0.043   1.154  0.00  0.00    +0.061 A 
ATOM      3  N   LIG    1       -4.286  -1.264   1.191  0.00  0.00    -0.252 NA
ATOM      4  C   LIG    1       -5.402  -1.939   1.375  0.00  0.00    +0.156 A 
ATOM      5  S   LIG    1       -6.583  -0.674   1.516  0.00  0.00    -0.071 S 
ENDROOT
BRANCH   1   8
ATOM      6  N   LIG    1       -7.007   2.588   1.508  0.00  0.00    -0.281 N 
ATOM      7  H   LIG    1       -7.740   1.955   1.555  0.00  0.00    +0.155 HD
ATOM      8  C   LIG    1       -5.746   2.147   1.329  0.00  0.00    +0.257 C 
ATOM      9  O   LIG    1       -4.839   2.944   1.174  0.00  0.00    -0.269 OA
BRANCH   6  16
ATOM     10  C   LIG    1       -6.326   4.787   2.239  0.00  0.00    +0.025 A 
ATOM     11  C   LIG    1       -6.574   6.141   2.350  0.00  0.00    +0.022 A 
ATOM     12  C   LIG    1       -7.756   6.671   1.863  0.00  0.00    +0.041 A 
ATOM     13 CL   LIG    1       -8.068   8.373   2.011  0.00  0.00    -0.084 Cl
ATOM     14  C   LIG    1       -8.690   5.848   1.259  0.00  0.00    +0.022 A 
ATOM     15  C   LIG    1       -8.444   4.494   1.140  0.00  0.00    +0.025 A 
ATOM     16  C   LIG    1       -7.259   3.959   1.627  0.00  0.00    +0.034 A 
ENDBRANCH   6  16
ENDBRANCH   1   8
BRANCH   2  17
ATOM     17  C   LIG    1       -2.985   0.800   0.944  0.00  0.00    +0.061 C 
BRANCH  17  18
ATOM     18  C   LIG    1       -2.761   1.019  -0.553  0.00  0.00    +0.041 C 
BRANCH  18  19
ATOM     19  C   LIG    1       -1.475   1.776  -0.763  0.00  0.00    -0.044 A 
ATOM     20  C   LIG    1       -0.273   1.103  -0.923  0.00  0.00    +0.023 A 
ATOM     21  C   LIG    1        0.885   1.830  -1.119  0.00  0.00    +0.111 A 
ATOM     22  N   LIG    1        0.857   3.148  -1.150  0.00  0.00    -0.263 NA
ATOM     23  C   LIG    1       -0.267   3.822  -0.996  0.00  0.00    +0.111 A 
ATOM     24  C   LIG    1       -1.464   3.162  -0.797  0.00  0.00    +0.023 A 
ENDBRANCH  18  19
ENDBRANCH  17  18
ENDBRANCH   2  17
TORSDOF 5
