REMARK  Name = ZINC13816313
REMARK                            x       y       z     vdW  Elec       q    Type
REMARK                         _______ _______ _______ _____ _____    ______ ____
ROOT
ATOM      1  C   LIG    1       -1.182  -2.113  -0.103  0.00  0.00    +0.157 A 
ATOM      2  C   LIG    1       -2.347  -2.984  -0.218  0.00  0.00    +0.100 A 
ATOM      3  C   LIG    1       -3.738  -2.785  -0.254  0.00  0.00    +0.132 A 
ATOM      4  N   LIG    1       -4.525  -3.850  -0.372  0.00  0.00    -0.220 NA
ATOM      5  C   LIG    1       -4.018  -5.068  -0.453  0.00  0.00    +0.225 A 
ATOM      6  N   LIG    1       -2.725  -5.303  -0.423  0.00  0.00    -0.216 NA
ATOM      7  C   LIG    1       -1.854  -4.300  -0.308  0.00  0.00    +0.163 A 
ATOM      8  N   LIG    1       -0.496  -4.216  -0.250  0.00  0.00    -0.258 N 
ATOM      9  H   LIG    1        0.115  -4.969  -0.290  0.00  0.00    +0.191 HD
ATOM     10  N   LIG    1       -0.118  -2.874  -0.131  0.00  0.00    -0.156 NA
ENDROOT
BRANCH   3  11
ATOM     11  N   LIG    1       -4.274  -1.515  -0.170  0.00  0.00    -0.342 N 
ATOM     12  H   LIG    1       -5.235  -1.391  -0.196  0.00  0.00    +0.144 HD
ATOM     13  H   LIG    1       -3.688  -0.746  -0.084  0.00  0.00    +0.144 HD
ENDBRANCH   3  11
BRANCH   1  14
ATOM     14  N   LIG    1       -1.199  -0.721   0.010  0.00  0.00    -0.297 N 
ATOM     15  H   LIG    1       -2.037  -0.238  -0.064  0.00  0.00    +0.154 HD
BRANCH  14  22
ATOM     16  C   LIG    1        0.136   1.275  -0.243  0.00  0.00    +0.026 A 
ATOM     17  C   LIG    1        1.314   1.963  -0.025  0.00  0.00    +0.040 A 
ATOM     18  C   LIG    1        2.351   1.359   0.665  0.00  0.00    +0.124 A 
ATOM     19  F   LIG    1        3.503   2.033   0.877  0.00  0.00    -0.205 F 
ATOM     20  C   LIG    1        2.211   0.065   1.138  0.00  0.00    +0.040 A 
ATOM     21  C   LIG    1        1.035  -0.626   0.922  0.00  0.00    +0.026 A 
ATOM     22  C   LIG    1       -0.007  -0.023   0.230  0.00  0.00    +0.033 A 
ENDBRANCH  14  22
ENDBRANCH   1  14
TORSDOF 3
