REMARK  Name = ZINC40901549
REMARK                            x       y       z     vdW  Elec       q    Type
REMARK                         _______ _______ _______ _____ _____    ______ ____
ROOT
ATOM      1  C   LIG    1       -0.091  -0.899  -2.382  0.00  0.00    +0.000 A 
ATOM      2  C   LIG    1       -1.456  -0.603  -2.437  0.00  0.00    +0.010 A 
ATOM      3  C   LIG    1       -2.182  -0.920  -3.566  0.00  0.00    +0.004 A 
ATOM      4  C   LIG    1       -1.563  -1.530  -4.643  0.00  0.00    -0.044 A 
ATOM      5  C   LIG    1       -0.212  -1.827  -4.596  0.00  0.00    +0.004 A 
ATOM      6  C   LIG    1        0.529  -1.510  -3.476  0.00  0.00    +0.010 A 
ENDROOT
BRANCH   1  10
ATOM      7  C   LIG    1       -0.620   0.603   0.569  0.00  0.00    +0.062 C 
ATOM      8  C   LIG    1        0.065  -0.709   0.182  0.00  0.00    +0.149 C 
ATOM      9  C   LIG    1       -0.973  -1.833   0.145  0.00  0.00    +0.062 C 
ATOM     10  C   LIG    1        0.691  -0.564  -1.180  0.00  0.00    +0.092 C 
ATOM     11  N   LIG    1        1.918  -0.145  -1.306  0.00  0.00    -0.239 NA
ATOM     12  C   LIG    1        2.667   0.113  -0.198  0.00  0.00    +0.165 A 
ATOM     13  C   LIG    1        3.882   0.811  -0.274  0.00  0.00    +0.149 A 
ATOM     14  N   LIG    1        4.551   1.041   0.854  0.00  0.00    -0.219 NA
ATOM     15  C   LIG    1        4.090   0.623   2.016  0.00  0.00    +0.227 A 
ATOM     16  N   LIG    1        2.956  -0.044   2.131  0.00  0.00    -0.199 NA
ATOM     17  C   LIG    1        2.226  -0.320   1.060  0.00  0.00    +0.247 A 
ATOM     18  O   LIG    1        1.072  -1.024   1.149  0.00  0.00    -0.462 OA
BRANCH  13  19
ATOM     19  N   LIG    1        4.373   1.250  -1.492  0.00  0.00    -0.341 N 
ATOM     20  H   LIG    1        5.214   1.732  -1.530  0.00  0.00    +0.144 HD
ATOM     21  H   LIG    1        3.876   1.076  -2.306  0.00  0.00    +0.144 HD
ENDBRANCH  13  19
ENDBRANCH   1  10
BRANCH   4  22
ATOM     22  C   LIG    1       -2.363  -1.874  -5.872  0.00  0.00    +0.019 C 
ATOM     23  C   LIG    1       -2.305  -3.384  -6.113  0.00  0.00    +0.008 C 
ATOM     24  C   LIG    1       -3.118  -3.733  -7.361  0.00  0.00    +0.004 C 
ATOM     25  C   LIG    1       -2.535  -3.001  -8.571  0.00  0.00    -0.000 C 
ATOM     26  C   LIG    1       -2.593  -1.491  -8.330  0.00  0.00    +0.004 C 
ATOM     27  C   LIG    1       -1.780  -1.142  -7.082  0.00  0.00    +0.008 C 
BRANCH  25  28
ATOM     28  C   LIG    1       -1.080  -3.429  -8.774  0.00  0.00    +0.124 C 
BRANCH  28  29
ATOM     29  C   LIG    1       -0.543  -2.803 -10.035  0.00  0.00    +0.305 C 
ATOM     30  O   LIG    1       -1.258  -2.081 -10.709  0.00  0.00    -0.251 OA
BRANCH  29  31
ATOM     31  O   LIG    1        0.606  -3.018 -10.381  0.00  0.00    -0.481 OA
ATOM     32  H   LIG    1        1.155  -3.572  -9.863  0.00  0.00    +0.295 HD
ENDBRANCH  29  31
ENDBRANCH  28  29
ENDBRANCH  25  28
ENDBRANCH   4  22
TORSDOF 6
