REMARK  Name = ZINC29129620
REMARK                            x       y       z     vdW  Elec       q    Type
REMARK                         _______ _______ _______ _____ _____    ______ ____
ROOT
ATOM      1  C   LIG    1        1.152   1.776   0.001  0.00  0.00    +0.139 A 
ATOM      2  C   LIG    1       -0.013   1.076   0.008  0.00  0.00    +0.098 A 
ATOM      3  C   LIG    1       -1.246   1.772   0.018  0.00  0.00    +0.197 A 
ATOM      4  C   LIG    1       -1.193   3.244   0.030  0.00  0.00    +0.107 A 
ATOM      5  C   LIG    1        0.067   3.869   0.021  0.00  0.00    +0.146 A 
ATOM      6  C   LIG    1        0.141   5.253   0.026  0.00  0.00    +0.094 A 
ATOM      7  C   LIG    1       -1.018   6.012   0.040  0.00  0.00    +0.144 A 
ATOM      8  C   LIG    1       -2.269   5.396   0.048  0.00  0.00    +0.110 A 
ATOM      9  C   LIG    1       -2.362   4.012   0.044  0.00  0.00    +0.155 A 
ATOM     10  O   LIG    1       -2.310   1.176   0.019  0.00  0.00    -0.287 OA
ATOM     11  O   LIG    1        1.188   3.117   0.007  0.00  0.00    -0.454 OA
ENDROOT
BRANCH   1  15
ATOM     12  C   LIG    1        4.819  -0.364  -0.043  0.00  0.00    +0.000 A 
ATOM     13  C   LIG    1        4.830   1.019  -0.037  0.00  0.00    +0.001 A 
ATOM     14  C   LIG    1        3.642   1.721  -0.023  0.00  0.00    +0.011 A 
ATOM     15  C   LIG    1        2.428   1.032  -0.015  0.00  0.00    +0.017 A 
ATOM     16  C   LIG    1        2.425  -0.365  -0.016  0.00  0.00    +0.011 A 
ATOM     17  C   LIG    1        3.620  -1.054  -0.036  0.00  0.00    +0.001 A 
ENDBRANCH   1  15
BRANCH   8  18
ATOM     18  N   LIG    1       -3.436   6.178   0.062  0.00  0.00    -0.352 N 
ATOM     19  H   LIG    1       -3.363   7.275   0.066  0.00  0.00    +0.143 HD
ATOM     20  H   LIG    1       -4.423   5.692   0.069  0.00  0.00    +0.143 HD
ENDBRANCH   8  18
BRANCH   7  21
ATOM     21  O   LIG    1       -0.935   7.368   0.045  0.00  0.00    -0.505 OA
ATOM     22  H   LIG    1       -1.852   7.975   0.056  0.00  0.00    +0.292 HD
ENDBRANCH   7  21
BRANCH   9  23
ATOM     23  O   LIG    1       -3.579   3.408   0.052  0.00  0.00    -0.504 OA
ATOM     24  H   LIG    1       -4.495   4.016   0.063  0.00  0.00    +0.292 HD
ENDBRANCH   9  23
TORSDOF 4
