REMARK  Name = ZINC27182176
REMARK                            x       y       z     vdW  Elec       q    Type
REMARK                         _______ _______ _______ _____ _____    ______ ____
ROOT
ATOM      1  C   LIG    1       -3.750   3.151   0.056  0.00  0.00    +0.033 A 
ATOM      2  C   LIG    1       -4.480   2.768  -1.036  0.00  0.00    +0.048 A 
ATOM      3  N   LIG    1       -5.597   2.156  -0.605  0.00  0.00    -0.267 N 
ATOM      4  C   LIG    1       -6.425   1.712  -1.740  0.00  0.00    +0.144 C 
ATOM      5  C   LIG    1       -5.910   2.502  -2.963  0.00  0.00    +0.029 C 
ATOM      6  N   LIG    1       -5.599   2.144   0.801  0.00  0.00    -0.169 NA
ATOM      7  C   LIG    1       -4.452   2.803  -2.551  0.00  0.00    +0.057 C 
ATOM      8  C   LIG    1       -4.504   2.725   1.234  0.00  0.00    +0.119 A 
ENDROOT
BRANCH   1  14
ATOM      9  C   LIG    1       -0.013   1.076   0.008  0.00  0.00    +0.001 A 
ATOM     10  C   LIG    1        1.189   1.780   0.000  0.00  0.00    +0.002 A 
ATOM     11  C   LIG    1        1.205   3.141   0.007  0.00  0.00    +0.028 A 
ATOM     12  C   LIG    1       -0.007   3.853   0.022  0.00  0.00    +0.072 A 
ATOM     13  C   LIG    1       -1.226   3.133   0.031  0.00  0.00    +0.008 A 
ATOM     14  C   LIG    1       -2.448   3.854   0.046  0.00  0.00    -0.003 A 
ATOM     15  C   LIG    1       -2.381   5.242   0.052  0.00  0.00    +0.029 A 
ATOM     16  C   LIG    1       -1.143   5.870   0.043  0.00  0.00    +0.112 A 
ATOM     17  N   LIG    1       -0.021   5.190   0.029  0.00  0.00    -0.255 NA
ATOM     18  C   LIG    1       -1.206   1.733   0.017  0.00  0.00    +0.010 A 
ENDBRANCH   1  14
BRANCH   8  19
ATOM     19  C   LIG    1       -4.109   2.917   2.650  0.00  0.00    +0.091 A 
ATOM     20  C   LIG    1       -5.088   2.953   3.642  0.00  0.00    +0.030 A 
ATOM     21  C   LIG    1       -4.704   3.132   4.959  0.00  0.00    +0.004 A 
ATOM     22  C   LIG    1       -3.352   3.268   5.243  0.00  0.00    +0.020 A 
ATOM     23  C   LIG    1       -2.434   3.222   4.210  0.00  0.00    +0.111 A 
ATOM     24  N   LIG    1       -2.826   3.046   2.964  0.00  0.00    -0.253 NA
ENDBRANCH   8  19
TORSDOF 2
