REMARK  Name = ZINC27636674
REMARK                            x       y       z     vdW  Elec       q    Type
REMARK                         _______ _______ _______ _____ _____    ______ ____
ROOT
ATOM      1  N   LIG    1        1.543  -2.502  -2.374  0.00  0.00    -0.341 N 
ATOM      2  C   LIG    1        2.656  -3.268  -2.294  0.00  0.00    +0.028 A 
ATOM      3  C   LIG    1        3.281  -3.759  -1.013  0.00  0.00    +0.064 C 
ATOM      4  C   LIG    1        3.129  -3.527  -3.549  0.00  0.00    +0.050 A 
ATOM      5  C   LIG    1        2.213  -2.853  -4.487  0.00  0.00    +0.011 A 
ATOM      6  C   LIG    1        2.157  -2.745  -5.874  0.00  0.00    +0.011 A 
ATOM      7  C   LIG    1        1.142  -2.022  -6.461  0.00  0.00    +0.001 A 
ATOM      8  C   LIG    1        0.179  -1.403  -5.677  0.00  0.00    +0.002 A 
ATOM      9  C   LIG    1        0.223  -1.503  -4.303  0.00  0.00    +0.026 A 
ATOM     10  C   LIG    1        1.237  -2.232  -3.692  0.00  0.00    +0.050 A 
ENDROOT
BRANCH   1  11
ATOM     11  C   LIG    1        0.768  -2.031  -1.223  0.00  0.00    +0.084 C 
ATOM     12  C   LIG    1       -0.664  -2.562  -1.321  0.00  0.00    +0.031 C 
BRANCH  11  13
ATOM     13  C   LIG    1        0.745  -0.501  -1.214  0.00  0.00    +0.025 C 
BRANCH  13  14
ATOM     14  C   LIG    1        0.044  -0.009   0.053  0.00  0.00    +0.002 C 
BRANCH  14  15
ATOM     15  C   LIG    1        0.021   1.521   0.061  0.00  0.00    -0.000 C 
BRANCH  15  17
ATOM     16  C   LIG    1       -0.703   3.544   1.337  0.00  0.00    +0.004 C 
ATOM     17  C   LIG    1       -0.680   2.014   1.329  0.00  0.00    -0.003 C 
ENDBRANCH  15  17
ENDBRANCH  14  15
ENDBRANCH  13  14
ENDBRANCH  11  13
ENDBRANCH   1  11
BRANCH   4  18
ATOM     18  C   LIG    1        4.315  -4.322  -3.895  0.00  0.00    +0.196 C 
ATOM     19  O   LIG    1        5.384  -3.770  -4.082  0.00  0.00    -0.287 OA
BRANCH  18  20
ATOM     20  C   LIG    1        4.211  -5.788  -4.016  0.00  0.00    +0.030 A 
ATOM     21  C   LIG    1        2.978  -6.421  -3.920  0.00  0.00    +0.012 A 
ATOM     22  C   LIG    1        2.883  -7.801  -4.035  0.00  0.00    +0.001 A 
ATOM     23  C   LIG    1        3.979  -8.582  -4.242  0.00  0.00    +0.008 A 
ATOM     24  C   LIG    1        5.257  -8.009  -4.348  0.00  0.00    -0.017 A 
ATOM     25  C   LIG    1        6.398  -8.802  -4.561  0.00  0.00    +0.008 A 
ATOM     26  C   LIG    1        7.620  -8.210  -4.659  0.00  0.00    +0.001 A 
ATOM     27  C   LIG    1        7.759  -6.828  -4.551  0.00  0.00    +0.001 A 
ATOM     28  C   LIG    1        6.674  -6.029  -4.344  0.00  0.00    +0.009 A 
ATOM     29  C   LIG    1        5.401  -6.604  -4.244  0.00  0.00    -0.007 A 
ENDBRANCH  18  20
ENDBRANCH   4  18
TORSDOF 7
