REMARK  Name = ZINC17835434
REMARK                            x       y       z     vdW  Elec       q    Type
REMARK                         _______ _______ _______ _____ _____    ______ ____
ROOT
ATOM      1  N   LIG    1        0.059  -4.173  -0.022  0.00  0.00    -0.210 N 
ATOM      2  C   LIG    1       -0.030  -4.891  -1.148  0.00  0.00    +0.233 C 
ATOM      3  C   LIG    1        0.015  -6.363  -0.810  0.00  0.00    +0.125 C 
ATOM      4  C   LIG    1        1.340  -6.964  -1.327  0.00  0.00    +0.163 C 
ATOM      5  O   LIG    1        2.297  -6.728  -0.270  0.00  0.00    -0.348 OA
ATOM      6  C   LIG    1        1.579  -6.967   0.950  0.00  0.00    +0.206 C 
ATOM      7  C   LIG    1        1.500  -8.436   1.255  0.00  0.00    +0.204 C 
ATOM      8  C   LIG    1        2.129  -8.636   2.575  0.00  0.00    +0.031 A 
ATOM      9  C   LIG    1        2.321  -9.797   3.327  0.00  0.00    +0.012 A 
ATOM     10  C   LIG    1        2.948  -9.732   4.556  0.00  0.00    +0.001 A 
ATOM     11  C   LIG    1        3.391  -8.518   5.052  0.00  0.00    +0.001 A 
ATOM     12  C   LIG    1        3.211  -7.357   4.326  0.00  0.00    +0.012 A 
ATOM     13  C   LIG    1        2.579  -7.401   3.081  0.00  0.00    +0.031 A 
ATOM     14  O   LIG    1        1.011  -9.294   0.552  0.00  0.00    -0.288 OA
ATOM     15  C   LIG    1        2.267  -6.324   2.121  0.00  0.00    +0.204 C 
ATOM     16  O   LIG    1        2.519  -5.145   2.252  0.00  0.00    -0.288 OA
ATOM     17  C   LIG    1        0.159  -6.372   0.739  0.00  0.00    +0.138 C 
ATOM     18  O   LIG    1       -0.131  -4.431  -2.265  0.00  0.00    -0.274 OA
ATOM     19  C   LIG    1        0.172  -4.902   1.094  0.00  0.00    +0.234 C 
ATOM     20  O   LIG    1        0.269  -4.454   2.216  0.00  0.00    -0.274 OA
ENDROOT
BRANCH   1  25
ATOM     21  C   LIG    1       -0.013   1.503   0.012  0.00  0.00    +0.045 C 
ATOM     22  C   LIG    1        0.005  -0.004   0.003  0.00  0.00    -0.032 A 
ATOM     23  C   LIG    1        1.157  -0.682   0.357  0.00  0.00    +0.006 A 
ATOM     24  C   LIG    1        1.178  -2.063   0.350  0.00  0.00    +0.024 A 
ATOM     25  C   LIG    1        0.040  -2.771  -0.013  0.00  0.00    +0.045 A 
ATOM     26  C   LIG    1       -1.115  -2.089  -0.369  0.00  0.00    +0.044 A 
ATOM     27  C   LIG    1       -1.132  -0.707  -0.355  0.00  0.00    +0.046 A 
ATOM     28 CL   LIG    1       -2.578   0.148  -0.793  0.00  0.00    -0.083 Cl
ENDBRANCH   1  25
BRANCH   4  29
ATOM     29  C   LIG    1        1.772  -6.269  -2.592  0.00  0.00    -0.018 A 
ATOM     30  C   LIG    1        2.502  -5.097  -2.522  0.00  0.00    +0.006 A 
ATOM     31  C   LIG    1        2.898  -4.459  -3.683  0.00  0.00    +0.000 A 
ATOM     32  C   LIG    1        2.564  -4.993  -4.913  0.00  0.00    +0.000 A 
ATOM     33  C   LIG    1        1.835  -6.165  -4.983  0.00  0.00    +0.000 A 
ATOM     34  C   LIG    1        1.442  -6.806  -3.823  0.00  0.00    +0.006 A 
ENDBRANCH   4  29
TORSDOF 2
