REMARK  Name = ZINC35622996
REMARK                            x       y       z     vdW  Elec       q    Type
REMARK                         _______ _______ _______ _____ _____    ______ ____
ROOT
ATOM      1  N   LIG    1        3.040  -2.026  -1.143  0.00  0.00    +0.389 N 
ATOM      2  H   LIG    1        2.367  -2.706  -0.823  0.00  0.00    -0.080 HD
ATOM      3  C   LIG    1        2.722  -1.633  -2.522  0.00  0.00    -0.062 C 
ATOM      4  C   LIG    1        2.755  -2.868  -3.425  0.00  0.00    +0.066 C 
ATOM      5  N   LIG    1        4.091  -3.478  -3.367  0.00  0.00    -0.298 NA
ATOM      6  C   LIG    1        4.434  -3.853  -1.988  0.00  0.00    +0.066 C 
ATOM      7  C   LIG    1        4.387  -2.610  -1.097  0.00  0.00    -0.062 C 
ENDROOT
BRANCH   1   8
ATOM      8  C   LIG    1        2.990  -0.843  -0.273  0.00  0.00    -0.007 C 
BRANCH   8  12
ATOM      9  C   LIG    1       -0.926   0.858  -0.408  0.00  0.00    +0.000 A 
ATOM     10  C   LIG    1        0.185   1.681  -0.391  0.00  0.00    +0.000 A 
ATOM     11  C   LIG    1        1.452   1.131  -0.347  0.00  0.00    +0.002 A 
ATOM     12  C   LIG    1        1.609  -0.243  -0.320  0.00  0.00    -0.057 A 
ATOM     13  C   LIG    1        0.498  -1.065  -0.336  0.00  0.00    +0.002 A 
ATOM     14  C   LIG    1       -0.769  -0.515  -0.382  0.00  0.00    +0.000 A 
ENDBRANCH   8  12
BRANCH   8  15
ATOM     15  C   LIG    1        3.315  -1.246   1.142  0.00  0.00    -0.057 A 
ATOM     16  C   LIG    1        2.826  -2.433   1.652  0.00  0.00    +0.002 A 
ATOM     17  C   LIG    1        3.124  -2.803   2.951  0.00  0.00    +0.000 A 
ATOM     18  C   LIG    1        3.912  -1.985   3.738  0.00  0.00    +0.000 A 
ATOM     19  C   LIG    1        4.402  -0.798   3.228  0.00  0.00    +0.000 A 
ATOM     20  C   LIG    1        4.108  -0.430   1.928  0.00  0.00    +0.002 A 
ENDBRANCH   8  15
ENDBRANCH   1   8
BRANCH   5  21
ATOM     21  C   LIG    1        4.181  -4.636  -4.266  0.00  0.00    +0.181 C 
BRANCH  21  22
ATOM     22  C   LIG    1        5.616  -5.083  -4.368  0.00  0.00    +0.238 C 
ATOM     23  N   LIG    1        5.925  -6.208  -5.043  0.00  0.00    -0.239 N 
ATOM     24  O   LIG    1        6.493  -4.430  -3.844  0.00  0.00    -0.273 OA
BRANCH  23  25
ATOM     25  C   LIG    1        7.241  -6.688  -5.038  0.00  0.00    +0.041 A 
ATOM     26  C   LIG    1        7.875  -6.967  -3.834  0.00  0.00    +0.024 A 
ATOM     27  C   LIG    1        9.173  -7.440  -3.833  0.00  0.00    +0.002 A 
ATOM     28  C   LIG    1        9.840  -7.636  -5.028  0.00  0.00    +0.000 A 
ATOM     29  C   LIG    1        9.211  -7.359  -6.228  0.00  0.00    +0.002 A 
ATOM     30  C   LIG    1        7.912  -6.891  -6.237  0.00  0.00    +0.024 A 
ENDBRANCH  23  25
BRANCH  23  31
ATOM     31  C   LIG    1        4.931  -6.897  -5.748  0.00  0.00    +0.041 A 
ATOM     32  C   LIG    1        4.332  -6.312  -6.856  0.00  0.00    +0.024 A 
ATOM     33  C   LIG    1        3.352  -6.995  -7.549  0.00  0.00    +0.002 A 
ATOM     34  C   LIG    1        2.966  -8.258  -7.141  0.00  0.00    +0.000 A 
ATOM     35  C   LIG    1        3.561  -8.843  -6.038  0.00  0.00    +0.002 A 
ATOM     36  C   LIG    1        4.546  -8.169  -5.344  0.00  0.00    +0.024 A 
ENDBRANCH  23  31
ENDBRANCH  21  22
ENDBRANCH   5  21
TORSDOF 7
