REMARK  Name = ZINC35643764
REMARK                            x       y       z     vdW  Elec       q    Type
REMARK                         _______ _______ _______ _____ _____    ______ ____
ROOT
ATOM      1  C   LIG    1        2.010  -1.915   2.926  0.00  0.00    -0.021 A 
ATOM      2  C   LIG    1        1.127  -2.523   3.797  0.00  0.00    +0.028 A 
ATOM      3  C   LIG    1        1.600  -3.395   4.769  0.00  0.00    +0.028 A 
ATOM      4  C   LIG    1        2.961  -3.654   4.864  0.00  0.00    +0.026 A 
ATOM      5  C   LIG    1        3.843  -3.046   3.993  0.00  0.00    +0.047 A 
ATOM      6  C   LIG    1        3.368  -2.179   3.018  0.00  0.00    +0.118 A 
ENDROOT
BRANCH   3   7
ATOM      7  N   LIG    1        0.706  -4.011   5.652  0.00  0.00    -0.341 N 
ATOM      8  H   LIG    1       -0.026  -3.502   6.035  0.00  0.00    +0.146 HD
BRANCH   7   9
ATOM      9  C   LIG    1        0.867  -5.349   5.980  0.00  0.00    +0.076 C 
ATOM     10  C   LIG    1        1.806  -6.136   5.332  0.00  0.00    +0.037 C 
ATOM     11  C   LIG    1        1.944  -7.472   5.683  0.00  0.00    +0.083 C 
ATOM     12  N   LIG    1        1.205  -8.022   6.619  0.00  0.00    -0.313 NA
ATOM     13  H   LIG    1        1.333  -8.959   6.832  0.00  0.00    +0.122 HD
ATOM     14  C   LIG    1        0.279  -7.322   7.285  0.00  0.00    +0.060 C 
ATOM     15  C   LIG    1       -0.504  -7.926   8.284  0.00  0.00    +0.038 C 
ATOM     16  C   LIG    1       -1.429  -7.186   8.957  0.00  0.00    +0.082 C 
ATOM     17 CL   LIG    1       -2.387  -7.937  10.195  0.00  0.00    -0.122 Cl
ATOM     18  C   LIG    1       -1.625  -5.839   8.660  0.00  0.00    +0.020 C 
ATOM     19  C   LIG    1       -0.887  -5.223   7.695  0.00  0.00    +0.008 C 
ATOM     20  C   LIG    1        0.081  -5.952   6.990  0.00  0.00    +0.026 C 
ENDBRANCH   7   9
ENDBRANCH   3   7
BRANCH   6  21
ATOM     21  O   LIG    1        4.237  -1.585   2.157  0.00  0.00    -0.507 OA
ATOM     22  H   LIG    1        4.581  -0.737   2.469  0.00  0.00    +0.292 HD
ENDBRANCH   6  21
BRANCH   1  23
ATOM     23  C   LIG    1        1.497  -0.970   1.871  0.00  0.00    -0.043 C 
BRANCH  23  24
ATOM     24  N   LIG    1        1.806   0.413   2.260  0.00  0.00    +0.382 N 
ATOM     25  H   LIG    1        1.363   0.621   3.143  0.00  0.00    -0.085 HD
ATOM     26  H   LIG    1        2.805   0.521   2.352  0.00  0.00    -0.085 HD
BRANCH  24  28
ATOM     27  C   LIG    1        1.628   2.774   1.637  0.00  0.00    -0.017 C 
ATOM     28  C   LIG    1        1.306   1.335   1.232  0.00  0.00    -0.086 C 
ENDBRANCH  24  28
ENDBRANCH  23  24
ENDBRANCH   1  23
TORSDOF 6
