REMARK  Name = ZINC17175232
REMARK                            x       y       z     vdW  Elec       q    Type
REMARK                         _______ _______ _______ _____ _____    ______ ____
ROOT
ATOM      1  C   LIG    1       -0.016   1.352   0.009  0.00  0.00    +0.043 A 
ATOM      2  C   LIG    1        1.315   1.790  -0.001  0.00  0.00    +0.012 A 
ATOM      3  C   LIG    1        2.118   0.638  -0.054  0.00  0.00    +0.110 A 
ATOM      4  C   LIG    1        3.577   0.739  -0.187  0.00  0.00    +0.261 C 
ATOM      5  N   LIG    1        4.212   1.669   0.572  0.00  0.00    -0.310 N 
ATOM      6  H   LIG    1        5.123   1.923   0.356  0.00  0.00    +0.149 HD
ATOM      7  C   LIG    1        3.543   2.286   1.707  0.00  0.00    +0.109 C 
ATOM      8  C   LIG    1        2.676   3.487   1.317  0.00  0.00    +0.058 C 
ATOM      9  O   LIG    1        4.193   0.017  -0.949  0.00  0.00    -0.269 OA
ATOM     10  N   LIG    1        1.294  -0.440  -0.018  0.00  0.00    -0.345 N 
ATOM     11  H   LIG    1        1.577  -1.368  -0.009  0.00  0.00    +0.167 HD
ATOM     12  C   LIG    1        1.877   3.142   0.075  0.00  0.00    +0.007 C 
ATOM     13  C   LIG    1        1.690   4.046  -0.924  0.00  0.00    +0.175 C 
ATOM     14  C   LIG    1        2.196   5.424  -0.985  0.00  0.00    +0.329 C 
ATOM     15  N   LIG    1        1.783   5.941  -2.123  0.00  0.00    -0.030 NA
ATOM     16  C   LIG    1        1.059   5.046  -2.812  0.00  0.00    +0.419 C 
ATOM     17  N   LIG    1        0.511   5.265  -3.984  0.00  0.00    -0.128 NA
ATOM     18  H   LIG    1        0.001   4.565  -4.420  0.00  0.00    +0.306 HD
ATOM     19  N   LIG    1        0.981   3.861  -2.114  0.00  0.00    -0.196 N 
ATOM     20  H   LIG    1        0.520   3.054  -2.393  0.00  0.00    +0.252 HD
ATOM     21  C   LIG    1        0.002  -0.004   0.002  0.00  0.00    +0.084 A 
ATOM     22 BR   LIG    1       -1.526  -1.117   0.018  0.00  0.00    -0.031 Br
ENDROOT
BRANCH  14  23
ATOM     23  O   LIG    1        2.947   6.045  -0.048  0.00  0.00    -0.478 OA
ATOM     24  H   LIG    1        3.191   5.589   0.734  0.00  0.00    +0.295 HD
ENDBRANCH  14  23
TORSDOF 1
