REMARK  Name = ZINC13796731
REMARK                            x       y       z     vdW  Elec       q    Type
REMARK                         _______ _______ _______ _____ _____    ______ ____
ROOT
ATOM      1  C   UNK A  0       -1.474   3.056   3.530  0.00  0.00    +0.045 A 
ATOM      2  C   UNK A  0       -0.510   3.922   3.007  0.00  0.00    +0.015 A 
ATOM      3  C   UNK A  0       -0.633   5.280   3.187  0.00  0.00    +0.024 A 
ATOM      4  C   UNK A  0       -1.717   5.803   3.890  0.00  0.00    +0.028 A 
ATOM      5  C   UNK A  0       -2.684   4.956   4.416  0.00  0.00    +0.032 A 
ATOM      6  C   UNK A  0       -2.574   3.582   4.237  0.00  0.00    -0.003 A 
ENDROOT
BRANCH   6   7
ATOM      7  C   UNK A  0       -3.604   2.675   4.790  0.00  0.00    -0.009 A 
ATOM      8  C   UNK A  0       -4.901   2.711   4.307  0.00  0.00    +0.009 A 
ATOM      9  C   UNK A  0       -5.874   1.862   4.822  0.00  0.00    +0.001 A 
ATOM     10  C   UNK A  0       -5.581   0.974   5.812  0.00  0.00    +0.008 A 
ATOM     11  C   UNK A  0       -4.277   0.903   6.333  0.00  0.00    -0.017 A 
ATOM     12  C   UNK A  0       -3.950  -0.004   7.356  0.00  0.00    +0.008 A 
ATOM     13  C   UNK A  0       -2.673  -0.059   7.824  0.00  0.00    +0.001 A 
ATOM     14  C   UNK A  0       -1.688   0.786   7.319  0.00  0.00    +0.001 A 
ATOM     15  C   UNK A  0       -1.971   1.681   6.332  0.00  0.00    +0.009 A 
ATOM     16  C   UNK A  0       -3.272   1.757   5.816  0.00  0.00    -0.010 A 
ENDBRANCH   6   7
BRANCH   1  19
ATOM     17  N   LEU A  1       -0.290   1.103   2.662  0.00  0.00    -0.298 N 
ATOM     18  H   LEU A  1        0.382   1.702   2.302  0.00  0.00    +0.150 HD
ATOM     19  C   UNK A  0       -1.344   1.602   3.339  0.00  0.00    +0.245 C 
ATOM     20  O   UNK A  0       -2.187   0.851   3.791  0.00  0.00    -0.270 OA
BRANCH  17  21
ATOM     21  CA  LEU A  1       -0.161  -0.344   2.472  0.00  0.00    +0.182 C 
BRANCH  21  22
ATOM     22  C   LEU A  1        0.510  -0.951   3.677  0.00  0.00    +0.325 C 
ATOM     23  O   LEU A  1        1.011  -0.231   4.524  0.00  0.00    -0.249 OA
BRANCH  22  24
ATOM     24  OXT LEU A  1        0.551  -2.163   3.806  0.00  0.00    -0.479 OA
ATOM     25  HXT LEU A  1        0.166  -2.716   3.155  0.00  0.00    +0.295 HD
ENDBRANCH  22  24
ENDBRANCH  21  22
BRANCH  21  26
ATOM     26  CB  LEU A  1        0.683  -0.621   1.226  0.00  0.00    +0.036 C 
BRANCH  26  28
ATOM     27  CD1 LEU A  1        0.856  -0.242  -1.238  0.00  0.00    +0.007 C 
ATOM     28  CG  LEU A  1       -0.046  -0.091  -0.011  0.00  0.00    -0.015 C 
ATOM     29  CD2 LEU A  1       -1.335  -0.887  -0.224  0.00  0.00    +0.007 C 
ENDBRANCH  26  28
ENDBRANCH  21  26
ENDBRANCH  17  21
ENDBRANCH   1  19
BRANCH   4  30
ATOM     30  N   UNK A  0       -1.832   7.178   4.066  0.00  0.00    -0.338 N 
ATOM     31  H   UNK A  0       -2.585   7.543   4.555  0.00  0.00    +0.146 HD
BRANCH  30  32
ATOM     32  C   UNK A  0       -0.813   8.074   3.512  0.00  0.00    +0.158 C 
BRANCH  32  33
ATOM     33  C   UNK A  0       -1.169   9.501   3.839  0.00  0.00    +0.076 A 
ATOM     34  C   UNK A  0       -0.709  10.211   4.887  0.00  0.00    +0.108 A 
ATOM     35  N   UNK A  0       -1.280  11.453   4.806  0.00  0.00    -0.351 N 
ATOM     36  C   UNK A  0       -2.070  11.458   3.711  0.00  0.00    +0.196 A 
ATOM     37  H   UNK A  0       -1.143  12.191   5.420  0.00  0.00    +0.166 HD
ATOM     38  N   UNK A  0       -1.995  10.289   3.135  0.00  0.00    -0.239 NA
ENDBRANCH  32  33
ENDBRANCH  30  32
ENDBRANCH   4  30
TORSDOF 10
