REMARK  Name = ZINC21659037
REMARK                            x       y       z     vdW  Elec       q    Type
REMARK                         _______ _______ _______ _____ _____    ______ ____
ROOT
ATOM      1  C   LIG    1       -1.126  -1.002   0.278  0.00  0.00    +0.069 A 
ATOM      2  C   LIG    1       -2.251  -0.689   1.000  0.00  0.00    +0.089 A 
ATOM      3  C   LIG    1       -3.281  -1.693   0.633  0.00  0.00    +0.082 A 
ATOM      4  N   LIG    1       -4.551  -1.605   1.225  0.00  0.00    -0.294 N 
ATOM      5  C   LIG    1       -5.608  -2.568   0.907  0.00  0.00    +0.154 C 
ATOM      6  C   LIG    1       -4.753  -0.605   2.110  0.00  0.00    +0.332 A 
ATOM      7  N   LIG    1       -3.850   0.316   2.461  0.00  0.00    -0.263 N 
ATOM      8  C   LIG    1       -4.248   1.336   3.434  0.00  0.00    +0.157 C 
ATOM      9  O   LIG    1       -5.852  -0.531   2.625  0.00  0.00    -0.246 OA
ATOM     10  C   LIG    1       -2.717  -2.514  -0.239  0.00  0.00    +0.073 A 
ATOM     11  C   LIG    1       -3.292  -3.739  -0.917  0.00  0.00    +0.150 C 
ATOM     12  N   LIG    1       -2.554  -3.950  -2.172  0.00  0.00    -0.330 N 
ATOM     13  H   LIG    1       -3.087  -4.281  -3.075  0.00  0.00    +0.147 HD
ATOM     14  C   LIG    1       -1.172  -3.732  -2.219  0.00  0.00    +0.052 A 
ATOM     15  C   LIG    1       -0.377  -4.442  -3.105  0.00  0.00    +0.025 A 
ATOM     16  C   LIG    1        0.983  -4.197  -3.159  0.00  0.00    +0.002 A 
ATOM     17  C   LIG    1        1.557  -3.247  -2.334  0.00  0.00    +0.002 A 
ATOM     18  C   LIG    1        0.773  -2.538  -1.440  0.00  0.00    +0.028 A 
ATOM     19  C   LIG    1       -0.586  -2.782  -1.377  0.00  0.00    +0.068 A 
ATOM     20  C   LIG    1       -2.585   0.360   1.969  0.00  0.00    +0.266 A 
ATOM     21  O   LIG    1       -1.784   1.210   2.309  0.00  0.00    -0.267 OA
ATOM     22  N   LIG    1       -1.414  -2.097  -0.476  0.00  0.00    -0.306 N 
ENDROOT
BRANCH   1  28
ATOM     23  C   LIG    1        2.787   0.698   2.864  0.00  0.00    +0.044 C 
ATOM     24  C   LIG    1        2.050   0.535   1.559  0.00  0.00    -0.050 A 
ATOM     25  C   LIG    1        2.584   1.058   0.394  0.00  0.00    +0.003 A 
ATOM     26  C   LIG    1        1.915   0.913  -0.808  0.00  0.00    +0.001 A 
ATOM     27  C   LIG    1        0.709   0.245  -0.853  0.00  0.00    +0.010 A 
ATOM     28  C   LIG    1        0.164  -0.286   0.319  0.00  0.00    -0.000 A 
ATOM     29  C   LIG    1        0.846  -0.136   1.529  0.00  0.00    +0.013 A 
ENDBRANCH   1  28
BRANCH  11  30
ATOM     30  C   LIG    1       -3.131  -4.940  -0.022  0.00  0.00    -0.021 A 
ATOM     31  C   LIG    1       -1.907  -5.579   0.062  0.00  0.00    +0.009 A 
ATOM     32  C   LIG    1       -1.755  -6.677   0.887  0.00  0.00    +0.046 A 
ATOM     33  C   LIG    1       -2.835  -7.146   1.621  0.00  0.00    +0.117 A 
ATOM     34  C   LIG    1       -4.063  -6.507   1.530  0.00  0.00    +0.046 A 
ATOM     35  C   LIG    1       -4.208  -5.406   0.709  0.00  0.00    +0.009 A 
BRANCH  33  36
ATOM     36  O   LIG    1       -2.690  -8.230   2.427  0.00  0.00    -0.507 OA
ATOM     37  H   LIG    1       -3.546  -8.602   3.009  0.00  0.00    +0.292 HD
ENDBRANCH  33  36
ENDBRANCH  11  30
TORSDOF 3
