REMARK  Name = ZINC29050027
REMARK                            x       y       z     vdW  Elec       q    Type
REMARK                         _______ _______ _______ _____ _____    ______ ____
ROOT
ATOM      1  C   UNK A  0        6.849  -3.130   4.302  0.00  0.00    +0.154 A 
ATOM      2  C   UNK A  0        7.046  -2.182   3.283  0.00  0.00    +0.148 A 
ATOM      3  C   UNK A  0        6.340  -2.342   2.080  0.00  0.00    +0.169 A 
ATOM      4  N   UNK A  0        6.720  -1.297   1.276  0.00  0.00    -0.310 N 
ATOM      5  C   UNK A  0        7.610  -0.541   1.981  0.00  0.00    +0.202 A 
ATOM      6  N   UNK A  0        5.525  -3.383   1.941  0.00  0.00    -0.175 NA
ATOM      7  C   UNK A  0        5.369  -4.251   2.926  0.00  0.00    +0.327 A 
ATOM      8  N   UNK A  0        7.800  -1.062   3.158  0.00  0.00    -0.231 NA
ATOM      9  N   UNK A  0        6.011  -4.135   4.080  0.00  0.00    -0.178 NA
ENDROOT
BRANCH   1  10
ATOM     10  N   PHE A  1        7.514  -3.017   5.510  0.00  0.00    -0.322 N 
ATOM     11  H   PHE A  1        8.206  -2.179   5.682  0.00  0.00    +0.148 HD
BRANCH  10  12
ATOM     12  CA  PHE A  1        7.297  -4.014   6.561  0.00  0.00    +0.101 C 
BRANCH  12  13
ATOM     13  CB  PHE A  1        8.518  -4.059   7.482  0.00  0.00    +0.059 C 
BRANCH  13  17
ATOM     14  CZ  PHE A  1       11.908  -5.452   5.287  0.00  0.00    +0.000 A 
ATOM     15  CE1 PHE A  1       11.627  -4.099   5.341  0.00  0.00    +0.000 A 
ATOM     16  CD1 PHE A  1       10.530  -3.649   6.051  0.00  0.00    +0.004 A 
ATOM     17  CG  PHE A  1        9.713  -4.551   6.708  0.00  0.00    -0.046 A 
ATOM     18  CD2 PHE A  1        9.997  -5.903   6.658  0.00  0.00    +0.004 A 
ATOM     19  CE2 PHE A  1       11.091  -6.354   5.944  0.00  0.00    +0.000 A 
ENDBRANCH  13  17
ENDBRANCH  12  13
BRANCH  12  20
ATOM     20  C   PHE A  1        6.058  -3.636   7.375  0.00  0.00    +0.178 C 
BRANCH  20  21
ATOM     21  O   PHE A  1        6.298  -2.407   8.064  0.00  0.00    -0.393 OA
ATOM     22  H   PHE A  1        5.515  -1.973   8.704  0.00  0.00    +0.209 HD
ENDBRANCH  20  21
ENDBRANCH  12  20
ENDBRANCH  10  12
ENDBRANCH   1  10
BRANCH   4  23
ATOM     23  C   UNK A  0        6.250  -1.037  -0.087  0.00  0.00    +0.159 C 
BRANCH  23  24
ATOM     24  C   UNK A  0        4.952  -0.274  -0.035  0.00  0.00    -0.028 A 
ATOM     25  C   UNK A  0        4.967   1.110  -0.023  0.00  0.00    +0.006 A 
ATOM     26  C   UNK A  0        3.781   1.814   0.025  0.00  0.00    +0.009 A 
ATOM     27  C   UNK A  0        2.568   1.130   0.062  0.00  0.00    -0.018 A 
ATOM     28  C   UNK A  0        2.559  -0.264   0.056  0.00  0.00    +0.009 A 
ATOM     29  C   UNK A  0        3.751  -0.958   0.001  0.00  0.00    +0.006 A 
BRANCH  27  30
ATOM     30  C   UNK A  0        1.290   1.882   0.114  0.00  0.00    -0.018 A 
ATOM     31  C   UNK A  0        0.077   1.197   0.151  0.00  0.00    +0.008 A 
ATOM     32  C   UNK A  0       -1.109   1.902   0.194  0.00  0.00    +0.001 A 
ATOM     33  C   UNK A  0       -1.095   3.285   0.212  0.00  0.00    +0.000 A 
ATOM     34  C   UNK A  0        0.107   3.970   0.176  0.00  0.00    +0.001 A 
ATOM     35  C   UNK A  0        1.298   3.275   0.127  0.00  0.00    +0.008 A 
ENDBRANCH  27  30
ENDBRANCH  23  24
ENDBRANCH   4  23
BRANCH   7  36
ATOM     36  O   UNK A  0        4.524  -5.295   2.749  0.00  0.00    -0.424 OA
BRANCH  36  37
ATOM     37  C   UNK A  0        4.451  -6.231   3.732  0.00  0.00    +0.132 A 
ATOM     38  C   UNK A  0        3.740  -5.966   4.894  0.00  0.00    +0.046 A 
ATOM     39  C   UNK A  0        3.670  -6.919   5.889  0.00  0.00    +0.007 A 
ATOM     40  C   UNK A  0        4.306  -8.140   5.734  0.00  0.00    -0.044 A 
ATOM     41  C   UNK A  0        5.015  -8.406   4.577  0.00  0.00    -0.041 A 
ATOM     42  C   UNK A  0        5.612  -9.796   4.651  0.00  0.00    +0.036 C 
ATOM     43  C   UNK A  0        4.833 -10.510   5.775  0.00  0.00    +0.009 C 
ATOM     44  C   UNK A  0        4.378  -9.333   6.663  0.00  0.00    +0.036 C 
ATOM     45  C   UNK A  0        5.083  -7.454   3.574  0.00  0.00    +0.050 A 
ENDBRANCH  36  37
ENDBRANCH   7  36
TORSDOF 11
