REMARK  Name = ZINC19928958
REMARK                            x       y       z     vdW  Elec       q    Type
REMARK                         _______ _______ _______ _____ _____    ______ ____
ROOT
ATOM      1  C   LIG    1        0.145  -0.068   0.400  0.00  0.00    +0.117 C 
ENDROOT
BRANCH   1   6
ATOM      2  C   LIG    1        5.412   1.131  -0.113  0.00  0.00    +0.247 C 
ATOM      3  N   LIG    1        4.080   1.324  -0.031  0.00  0.00    -0.295 N 
ATOM      4  C   LIG    1        3.429   1.554   1.267  0.00  0.00    +0.123 C 
ATOM      5  C   LIG    1        2.252   0.582   1.400  0.00  0.00    +0.104 C 
ATOM      6  N   LIG    1        1.373   0.720   0.231  0.00  0.00    -0.289 NA
ATOM      7  C   LIG    1        2.071   0.349  -1.007  0.00  0.00    +0.104 C 
ATOM      8  C   LIG    1        3.240   1.311  -1.238  0.00  0.00    +0.123 C 
ATOM      9  O   LIG    1        6.100   1.213   0.886  0.00  0.00    -0.270 OA
BRANCH   2  13
ATOM     10  C   LIG    1        7.202   0.232  -3.858  0.00  0.00    +0.000 A 
ATOM     11  C   LIG    1        6.331   1.301  -3.750  0.00  0.00    +0.001 A 
ATOM     12  C   LIG    1        5.746   1.598  -2.537  0.00  0.00    +0.013 A 
ATOM     13  C   LIG    1        6.035   0.818  -1.416  0.00  0.00    +0.037 A 
ATOM     14  C   LIG    1        6.919  -0.256  -1.531  0.00  0.00    +0.013 A 
ATOM     15  C   LIG    1        7.493  -0.546  -2.751  0.00  0.00    +0.001 A 
ENDBRANCH   2  13
ENDBRANCH   1   6
BRANCH   1  16
ATOM     16  C   LIG    1       -0.597   0.412   1.621  0.00  0.00    -0.026 A 
ATOM     17  C   LIG    1       -0.662   1.764   1.902  0.00  0.00    +0.008 A 
ATOM     18  C   LIG    1       -1.346   2.206   3.019  0.00  0.00    +0.038 A 
ATOM     19  C   LIG    1       -1.956   1.294   3.862  0.00  0.00    +0.123 A 
ATOM     20  F   LIG    1       -2.620   1.724   4.957  0.00  0.00    -0.205 F 
ATOM     21  C   LIG    1       -1.885  -0.061   3.583  0.00  0.00    +0.038 A 
ATOM     22  C   LIG    1       -1.206  -0.500   2.462  0.00  0.00    +0.008 A 
ENDBRANCH   1  16
BRANCH   1  23
ATOM     23  C   LIG    1       -0.730   0.098  -0.816  0.00  0.00    -0.026 A 
ATOM     24  C   LIG    1       -0.853   1.339  -1.414  0.00  0.00    +0.008 A 
ATOM     25  C   LIG    1       -1.651   1.491  -2.532  0.00  0.00    +0.038 A 
ATOM     26  C   LIG    1       -2.336   0.403  -3.047  0.00  0.00    +0.123 A 
ATOM     27  F   LIG    1       -3.119   0.552  -4.137  0.00  0.00    -0.205 F 
ATOM     28  C   LIG    1       -2.216  -0.837  -2.444  0.00  0.00    +0.038 A 
ATOM     29  C   LIG    1       -1.413  -0.988  -1.329  0.00  0.00    +0.008 A 
ENDBRANCH   1  23
TORSDOF 4
