REMARK  Name = ZINC14559870
REMARK                            x       y       z     vdW  Elec       q    Type
REMARK                         _______ _______ _______ _____ _____    ______ ____
ROOT
ATOM      1  C   LIG    1        2.976   3.834  -0.006  0.00  0.00    +0.001 A 
ATOM      2  C   LIG    1        3.395   2.512  -0.017  0.00  0.00    +0.002 A 
ATOM      3  C   LIG    1        2.476   1.484  -0.014  0.00  0.00    +0.026 A 
ATOM      4  C   LIG    1        1.115   1.768   0.001  0.00  0.00    +0.049 A 
ATOM      5  C   LIG    1        0.692   3.107   0.012  0.00  0.00    +0.010 A 
ATOM      6  C   LIG    1       -0.779   3.071   0.026  0.00  0.00    +0.038 A 
ATOM      7  C   LIG    1       -1.799   4.109   0.041  0.00  0.00    +0.065 A 
ATOM      8  C   LIG    1       -3.146   3.734   0.052  0.00  0.00    +0.078 A 
ATOM      9  C   LIG    1       -3.918   4.984   0.066  0.00  0.00    +0.261 A 
ATOM     10  N   LIG    1       -3.059   6.020   0.063  0.00  0.00    -0.289 N 
ATOM     11  H   LIG    1       -3.321   6.954   0.070  0.00  0.00    +0.172 HD
ATOM     12  O   LIG    1       -5.131   5.069   0.078  0.00  0.00    -0.267 OA
ATOM     13  C   LIG    1       -3.479   2.316   0.049  0.00  0.00    +0.080 A 
ATOM     14  C   LIG    1       -4.671   1.623   0.056  0.00  0.00    +0.139 A 
ATOM     15  N   LIG    1       -4.381   0.321   0.047  0.00  0.00    -0.243 NA
ATOM     16  C   LIG    1       -3.084   0.153   0.034  0.00  0.00    +0.205 A 
ATOM     17  N   LIG    1       -2.475   1.367   0.035  0.00  0.00    -0.284 N 
ATOM     18  C   LIG    1       -1.786   5.583   0.049  0.00  0.00    +0.260 A 
ATOM     19  O   LIG    1       -0.794   6.284   0.043  0.00  0.00    -0.267 OA
ATOM     20  C   LIG    1       -1.147   1.729   0.016  0.00  0.00    +0.126 A 
ATOM     21  N   LIG    1       -0.011   0.966   0.007  0.00  0.00    -0.340 N 
ATOM     22  H   LIG    1        0.002  -0.004   0.002  0.00  0.00    +0.167 HD
ATOM     23  C   LIG    1        1.631   4.136   0.008  0.00  0.00    +0.010 A 
ENDROOT
TORSDOF 0
