REMARK  Name = ZINC35636045
REMARK                            x       y       z     vdW  Elec       q    Type
REMARK                         _______ _______ _______ _____ _____    ______ ____
ROOT
ATOM      1  C   LIG    1        0.004   1.379   0.172  0.00  0.00    +0.002 A 
ATOM      2  C   LIG    1        1.178   2.086  -0.014  0.00  0.00    +0.006 A 
ATOM      3  C   LIG    1        2.371   1.414  -0.203  0.00  0.00    -0.020 A 
ATOM      4  C   LIG    1        2.394   0.033  -0.206  0.00  0.00    +0.029 A 
ATOM      5  C   LIG    1        1.218  -0.681  -0.019  0.00  0.00    +0.034 A 
ATOM      6  C   LIG    1        0.021  -0.002   0.171  0.00  0.00    +0.023 A 
ENDROOT
BRANCH   5   7
ATOM      7  N   LIG    1        1.238  -2.079  -0.021  0.00  0.00    -0.281 N 
ATOM      8  H   LIG    1        0.479  -2.574  -0.368  0.00  0.00    +0.155 HD
ATOM      9  C   LIG    1        2.311  -2.738   0.458  0.00  0.00    +0.248 C 
ATOM     10  O   LIG    1        3.220  -2.122   0.980  0.00  0.00    -0.270 OA
BRANCH   9  11
ATOM     11  C   LIG    1        2.383  -4.211   0.348  0.00  0.00    +0.037 A 
ATOM     12  C   LIG    1        1.344  -4.921  -0.256  0.00  0.00    +0.013 A 
ATOM     13  C   LIG    1        1.417  -6.295  -0.354  0.00  0.00    +0.013 A 
ATOM     14  C   LIG    1        2.518  -6.969   0.144  0.00  0.00    +0.055 A 
ATOM     15  C   LIG    1        3.551  -6.272   0.744  0.00  0.00    +0.013 A 
ATOM     16  C   LIG    1        3.493  -4.897   0.844  0.00  0.00    +0.013 A 
BRANCH  14  17
ATOM     17  C   LIG    1        2.592  -8.470   0.033  0.00  0.00    +0.417 C 
ATOM     18  F   LIG    1        1.299  -9.004   0.060  0.00  0.00    -0.166 F 
ATOM     19  F   LIG    1        3.330  -8.982   1.105  0.00  0.00    -0.166 F 
ATOM     20  F   LIG    1        3.214  -8.819  -1.171  0.00  0.00    -0.166 F 
ENDBRANCH  14  17
ENDBRANCH   9  11
ENDBRANCH   5   7
BRANCH   3  21
ATOM     21  C   LIG    1        3.648   2.188  -0.406  0.00  0.00    +0.196 C 
BRANCH  21  22
ATOM     22  O   LIG    1        4.262   2.435   0.860  0.00  0.00    -0.362 OA
BRANCH  22  23
ATOM     23  C   LIG    1        5.487   3.167   0.779  0.00  0.00    +0.223 C 
BRANCH  23  24
ATOM     24  C   LIG    1        6.639   2.206   0.637  0.00  0.00    +0.333 C 
ATOM     25  O   LIG    1        7.768   2.630   0.460  0.00  0.00    -0.248 OA
BRANCH  24  26
ATOM     26  O   LIG    1        6.441   1.004   0.700  0.00  0.00    -0.479 OA
ATOM     27  H   LIG    1        5.573   0.679   0.836  0.00  0.00    +0.295 HD
ENDBRANCH  24  26
ENDBRANCH  23  24
BRANCH  23  28
ATOM     28  CA  LIG    1        5.669   3.998   2.051  0.00  0.00    +0.076 C 
BRANCH  28  29
ATOM     29  N   LIG    1        5.828   3.100   3.203  0.00  0.00    +0.389 N 
ATOM     30  H1  LIG    1        5.949   3.648   4.042  0.00  0.00    -0.089 HD
ATOM     31  H2  LIG    1        6.639   2.515   3.064  0.00  0.00    -0.089 HD
ATOM     32  H3  LIG    1        5.007   2.521   3.295  0.00  0.00    -0.089 HD
ENDBRANCH  28  29
BRANCH  28  33
ATOM     33  C   LIG    1        4.459   4.871   2.258  0.00  0.00    +0.293 C 
ATOM     34  O   LIG    1        3.513   4.459   2.908  0.00  0.00    -0.253 OA
BRANCH  33  35
ATOM     35  OXT LIG    1        4.425   5.991   1.776  0.00  0.00    -0.482 OA
ATOM     36  HXT LIG    1        5.152   6.308   1.277  0.00  0.00    +0.295 HD
ENDBRANCH  33  35
ENDBRANCH  28  33
ENDBRANCH  23  28
ENDBRANCH  22  23
ENDBRANCH  21  22
ENDBRANCH   3  21
TORSDOF 12
