REMARK  Name = ZINC19364229
REMARK                            x       y       z     vdW  Elec       q    Type
REMARK                         _______ _______ _______ _____ _____    ______ ____
ROOT
ATOM      1  C   LIG    1        3.711  -0.707  -0.038  0.00  0.00    +0.117 C 
ENDROOT
BRANCH   1   2
ATOM      2  C   LIG    1        2.393   0.021   0.029  0.00  0.00    -0.026 A 
ATOM      3  C   LIG    1        1.602   0.121  -1.101  0.00  0.00    +0.007 A 
ATOM      4  C   LIG    1        0.393   0.788  -1.040  0.00  0.00    +0.020 A 
ATOM      5  C   LIG    1       -0.025   1.355   0.150  0.00  0.00    +0.041 A 
ATOM      6 CL   LIG    1       -1.543   2.194   0.226  0.00  0.00    -0.084 Cl
ATOM      7  C   LIG    1        0.767   1.254   1.280  0.00  0.00    +0.020 A 
ATOM      8  C   LIG    1        1.973   0.582   1.220  0.00  0.00    +0.007 A 
ENDBRANCH   1   2
BRANCH   1  12
ATOM      9  C   LIG    1        6.591   1.738  -2.031  0.00  0.00    +0.000 A 
ATOM     10  C   LIG    1        6.645   1.587  -0.658  0.00  0.00    +0.000 A 
ATOM     11  C   LIG    1        5.713   0.795  -0.013  0.00  0.00    +0.005 A 
ATOM     12  C   LIG    1        4.727   0.156  -0.741  0.00  0.00    -0.026 A 
ATOM     13  C   LIG    1        4.672   0.308  -2.114  0.00  0.00    +0.005 A 
ATOM     14  C   LIG    1        5.605   1.098  -2.759  0.00  0.00    +0.000 A 
ENDBRANCH   1  12
BRANCH   1  15
ATOM     15  N   LIG    1        3.540  -1.964  -0.778  0.00  0.00    -0.289 NA
ATOM     16  C   LIG    1        2.517  -2.811  -0.149  0.00  0.00    +0.100 C 
ATOM     17  C   LIG    1        2.312  -4.071  -0.993  0.00  0.00    +0.100 C 
ATOM     18  N   LIG    1        3.588  -4.791  -1.111  0.00  0.00    -0.298 NA
ATOM     19  C   LIG    1        4.611  -3.944  -1.740  0.00  0.00    +0.100 C 
ATOM     20  C   LIG    1        4.816  -2.684  -0.896  0.00  0.00    +0.100 C 
BRANCH  18  21
ATOM     21  C   LIG    1        3.417  -6.048  -1.852  0.00  0.00    +0.112 C 
BRANCH  21  22
ATOM     22  C   LIG    1        4.694  -6.883  -1.742  0.00  0.00    +0.176 C 
BRANCH  22  23
ATOM     23  O   LIG    1        4.894  -7.271  -0.381  0.00  0.00    -0.367 OA
BRANCH  23  24
ATOM     24  C   LIG    1        6.067  -8.059  -0.167  0.00  0.00    +0.280 C 
BRANCH  24  25
ATOM     25  C   LIG    1        6.178  -8.408   1.295  0.00  0.00    +0.331 C 
ATOM     26  O   LIG    1        5.331  -8.019   2.081  0.00  0.00    -0.248 OA
BRANCH  25  27
ATOM     27  O   LIG    1        7.114  -9.081   1.691  0.00  0.00    -0.479 OA
ATOM     28  H   LIG    1        7.765  -9.380   1.087  0.00  0.00    +0.295 HD
ENDBRANCH  25  27
ENDBRANCH  24  25
ENDBRANCH  23  24
ENDBRANCH  22  23
ENDBRANCH  21  22
ENDBRANCH  18  21
ENDBRANCH   1  15
TORSDOF 9
