REMARK  Name = ZINC22454221
REMARK                            x       y       z     vdW  Elec       q    Type
REMARK                         _______ _______ _______ _____ _____    ______ ____
ROOT
ATOM      1  N   LIG    1      -10.911  -0.433   0.081  0.00  0.00    +0.381 N 
ATOM      2  H   LIG    1      -10.873  -1.080  -0.693  0.00  0.00    -0.082 HD
ATOM      3  C   LIG    1      -10.983  -1.161   1.325  0.00  0.00    -0.078 C 
ATOM      4  C   LIG    1      -11.579  -2.570   1.132  0.00  0.00    -0.003 C 
ATOM      5  C   LIG    1      -12.772  -2.566   0.155  0.00  0.00    +0.082 C 
ATOM      6  N   LIG    1      -13.658  -1.444   0.352  0.00  0.00    -0.304 NA
ATOM      7  C   LIG    1      -13.278  -0.323  -0.542  0.00  0.00    +0.066 C 
ATOM      8  C   LIG    1      -12.119   0.407  -0.030  0.00  0.00    -0.063 C 
ENDROOT
BRANCH   6   9
ATOM      9  C   LIG    1      -15.058  -1.835   0.140  0.00  0.00    +0.087 C 
BRANCH   9  10
ATOM     10  C   LIG    1      -15.480  -2.827   1.226  0.00  0.00    +0.056 C 
BRANCH  10  11
ATOM     11  C   LIG    1      -16.938  -3.235   1.005  0.00  0.00    +0.234 C 
BRANCH  11  12
ATOM     12  O   LIG    1      -17.333  -4.161   2.019  0.00  0.00    -0.461 OA
BRANCH  12  13
ATOM     13  C   LIG    1      -18.598  -4.621   1.968  0.00  0.00    +0.339 C 
ATOM     14  O   LIG    1      -19.346  -4.247   1.087  0.00  0.00    -0.245 OA
BRANCH  13  15
ATOM     15  C   LIG    1      -19.075  -5.580   2.982  0.00  0.00    +0.066 A 
ATOM     16  C   LIG    1      -18.218  -6.008   4.000  0.00  0.00    +0.064 A 
ATOM     17  C   LIG    1      -18.667  -6.906   4.949  0.00  0.00    +0.166 A 
ATOM     18  C   LIG    1      -19.973  -7.386   4.891  0.00  0.00    +0.204 A 
ATOM     19  C   LIG    1      -20.830  -6.962   3.879  0.00  0.00    +0.166 A 
ATOM     20  C   LIG    1      -20.387  -6.058   2.931  0.00  0.00    +0.064 A 
BRANCH  19  21
ATOM     21  O   LIG    1      -22.105  -7.433   3.825  0.00  0.00    -0.491 OA
ATOM     22  C   LIG    1      -22.928  -6.956   2.760  0.00  0.00    +0.277 C 
ENDBRANCH  19  21
BRANCH  18  23
ATOM     23  O   LIG    1      -20.413  -8.270   5.825  0.00  0.00    -0.488 OA
ATOM     24  C   LIG    1      -21.010  -7.725   7.004  0.00  0.00    +0.277 C 
ENDBRANCH  18  23
BRANCH  17  25
ATOM     25  O   LIG    1      -17.834  -7.323   5.939  0.00  0.00    -0.491 OA
ATOM     26  C   LIG    1      -16.507  -6.790   5.937  0.00  0.00    +0.277 C 
ENDBRANCH  17  25
ENDBRANCH  13  15
ENDBRANCH  12  13
ENDBRANCH  11  12
ENDBRANCH  10  11
ENDBRANCH   9  10
ENDBRANCH   6   9
BRANCH   1  27
ATOM     27  C   LIG    1       -9.713   0.418   0.073  0.00  0.00    -0.075 C 
BRANCH  27  28
ATOM     28  C   LIG    1       -8.462  -0.462   0.063  0.00  0.00    +0.023 C 
BRANCH  28  29
ATOM     29  C   LIG    1       -7.215   0.424   0.055  0.00  0.00    +0.230 C 
BRANCH  29  30
ATOM     30  O   LIG    1       -6.046  -0.398   0.045  0.00  0.00    -0.461 OA
BRANCH  30  31
ATOM     31  C   LIG    1       -4.855   0.232   0.038  0.00  0.00    +0.339 C 
ATOM     32  O   LIG    1       -4.810   1.446   0.040  0.00  0.00    -0.245 OA
BRANCH  31  35
ATOM     33  C   LIG    1       -1.201  -0.638   0.010  0.00  0.00    +0.166 A 
ATOM     34  C   LIG    1       -2.370   0.100   0.019  0.00  0.00    +0.064 A 
ATOM     35  C   LIG    1       -3.606  -0.552   0.027  0.00  0.00    +0.066 A 
ATOM     36  C   LIG    1       -3.657  -1.949   0.026  0.00  0.00    +0.064 A 
ATOM     37  C   LIG    1       -2.485  -2.682   0.016  0.00  0.00    +0.166 A 
ATOM     38  C   LIG    1       -1.254  -2.029   0.003  0.00  0.00    +0.204 A 
BRANCH  38  39
ATOM     39  O   LIG    1       -0.104  -2.752  -0.012  0.00  0.00    -0.488 OA
ATOM     40  C   LIG    1        0.458  -3.104   1.254  0.00  0.00    +0.277 C 
ENDBRANCH  38  39
BRANCH  37  41
ATOM     41  O   LIG    1       -2.533  -4.041   0.015  0.00  0.00    -0.491 OA
ATOM     42  C   LIG    1       -3.828  -4.644   0.024  0.00  0.00    +0.277 C 
ENDBRANCH  37  41
BRANCH  33  44
ATOM     43  C   LIG    1       -0.017   1.425   0.010  0.00  0.00    +0.277 C 
ATOM     44  O   LIG    1        0.002  -0.004   0.002  0.00  0.00    -0.491 OA
ENDBRANCH  33  44
ENDBRANCH  31  35
ENDBRANCH  30  31
ENDBRANCH  29  30
ENDBRANCH  28  29
ENDBRANCH  27  28
ENDBRANCH   1  27
TORSDOF 18
