REMARK  Name = ZINC40833987
REMARK                            x       y       z     vdW  Elec       q    Type
REMARK                         _______ _______ _______ _____ _____    ______ ____
ROOT
ATOM      1  N   LIG    1        1.442  -3.982  -2.474  0.00  0.00    -0.277 N 
ATOM      2  C   LIG    1        2.348  -4.807  -1.911  0.00  0.00    +0.259 A 
ATOM      3  C   LIG    1        2.170  -6.160  -2.141  0.00  0.00    +0.099 A 
ATOM      4  C   LIG    1        1.099  -6.493  -2.909  0.00  0.00    +0.100 A 
ATOM      5 CL   LIG    1        0.578  -8.076  -3.395  0.00  0.00    -0.074 Cl
ATOM      6  O   LIG    1        3.274  -4.384  -1.236  0.00  0.00    -0.267 OA
ATOM      7  S   LIG    1        0.395  -5.015  -3.272  0.00  0.00    +0.004 S 
ENDROOT
BRANCH   1   8
ATOM      8  C   LIG    1        1.385  -2.521  -2.400  0.00  0.00    +0.144 C 
BRANCH   8   9
ATOM      9  C   LIG    1        0.657  -2.104  -1.120  0.00  0.00    +0.143 C 
BRANCH   9  10
ATOM     10  C   LIG    1        0.598  -0.600  -1.043  0.00  0.00    +0.309 C 
ATOM     11  O   LIG    1        1.088   0.070  -1.921  0.00  0.00    -0.251 OA
BRANCH  10  13
ATOM     12  C   LIG    1       -0.017   1.425   0.010  0.00  0.00    +0.280 C 
ATOM     13  O   LIG    1        0.002  -0.004   0.002  0.00  0.00    -0.468 OA
ENDBRANCH  10  13
ENDBRANCH   9  10
ENDBRANCH   8   9
ENDBRANCH   1   8
TORSDOF 4
