REMARK  Name = ZINC35923465
REMARK                            x       y       z     vdW  Elec       q    Type
REMARK                         _______ _______ _______ _____ _____    ______ ____
ROOT
ATOM      1  C   LIG    1        2.696  -1.861  -4.733  0.00  0.00    +0.139 A 
ATOM      2  N   LIG    1        2.157  -2.611  -5.662  0.00  0.00    -0.228 NA
ATOM      3  C   LIG    1        3.069  -2.862  -6.632  0.00  0.00    +0.091 A 
ATOM      4  C   LIG    1        3.026  -3.592  -7.827  0.00  0.00    +0.030 A 
ATOM      5  C   LIG    1        4.134  -3.667  -8.621  0.00  0.00    +0.004 A 
ATOM      6  C   LIG    1        5.311  -3.027  -8.261  0.00  0.00    +0.025 A 
ATOM      7  C   LIG    1        5.380  -2.299  -7.085  0.00  0.00    +0.055 A 
ATOM      8  C   LIG    1        4.257  -2.211  -6.262  0.00  0.00    +0.088 A 
ATOM      9  N   LIG    1        3.994  -1.580  -5.061  0.00  0.00    -0.336 N 
ATOM     10  H   LIG    1        4.615  -1.042  -4.545  0.00  0.00    +0.167 HD
ENDROOT
BRANCH   7  11
ATOM     11  N   LIG    1        6.568  -1.656  -6.724  0.00  0.00    -0.332 N 
ATOM     12  C   LIG    1        7.585  -2.345  -5.915  0.00  0.00    +0.086 C 
ATOM     13  C   LIG    1        7.967  -1.438  -4.740  0.00  0.00    -0.059 C 
ATOM     14  N   LIG    1        8.385  -0.127  -5.251  0.00  0.00    +0.384 N 
ATOM     15  H   LIG    1        9.135  -0.249  -5.915  0.00  0.00    -0.081 HD
ATOM     16  C   LIG    1        7.253   0.537  -5.910  0.00  0.00    -0.059 C 
ATOM     17  C   LIG    1        6.838  -0.273  -7.147  0.00  0.00    +0.086 C 
BRANCH  14  18
ATOM     18  C   LIG    1        8.855   0.704  -4.134  0.00  0.00    -0.043 C 
BRANCH  18  19
ATOM     19  C   LIG    1        9.398   2.004  -4.669  0.00  0.00    -0.062 A 
ATOM     20  C   LIG    1       10.746   2.096  -5.011  0.00  0.00    +0.004 A 
ATOM     21  C   LIG    1       11.268   3.255  -5.498  0.00  0.00    +0.030 A 
ATOM     22  C   LIG    1       10.438   4.379  -5.659  0.00  0.00    +0.089 A 
ATOM     23  C   LIG    1        9.067   4.285  -5.311  0.00  0.00    +0.089 A 
ATOM     24  N   LIG    1        8.273   5.351  -5.463  0.00  0.00    -0.252 NA
ATOM     25  C   LIG    1        8.771   6.472  -5.932  0.00  0.00    +0.131 A 
ATOM     26  C   LIG    1       10.122   6.564  -6.275  0.00  0.00    +0.131 A 
ATOM     27  N   LIG    1       10.921   5.532  -6.135  0.00  0.00    -0.252 NA
ATOM     28  C   LIG    1        8.564   3.069  -4.817  0.00  0.00    +0.031 A 
ENDBRANCH  18  19
ENDBRANCH  14  18
ENDBRANCH   7  11
BRANCH   1  32
ATOM     29  C   LIG    1        0.707  -0.490  -1.238  0.00  0.00    -0.042 A 
ATOM     30  C   LIG    1        0.033  -1.285  -2.147  0.00  0.00    +0.005 A 
ATOM     31  C   LIG    1        0.673  -1.733  -3.284  0.00  0.00    +0.012 A 
ATOM     32  C   LIG    1        2.003  -1.383  -3.516  0.00  0.00    +0.017 A 
ATOM     33  C   LIG    1        2.678  -0.581  -2.595  0.00  0.00    +0.012 A 
ATOM     34  C   LIG    1        2.025  -0.135  -1.465  0.00  0.00    +0.005 A 
BRANCH  29  36
ATOM     35  C   LIG    1       -0.019   1.526   0.010  0.00  0.00    +0.015 C 
ATOM     36  C   LIG    1        0.002  -0.004   0.002  0.00  0.00    -0.013 C 
ATOM     37  C   LIG    1       -1.433  -0.534   0.013  0.00  0.00    +0.015 C 
ATOM     38  C   LIG    1        0.742  -0.511   1.242  0.00  0.00    +0.015 C 
ENDBRANCH  29  36
ENDBRANCH   1  32
TORSDOF 5
