REMARK  Name = ZINC00073547
REMARK                            x       y       z     vdW  Elec       q    Type
REMARK                         _______ _______ _______ _____ _____    ______ ____
ROOT
ATOM      1  N   LIG    1       -2.433  -4.254   0.016  0.00  0.00    -0.294 N 
ATOM      2  H   LIG    1       -1.594  -4.733  -0.074  0.00  0.00    +0.154 HD
ENDROOT
BRANCH   1   7
ATOM      3  C   LIG    1       -3.382  -0.780   0.809  0.00  0.00    +0.019 A 
ATOM      4  C   LIG    1       -2.440  -0.077   0.050  0.00  0.00    +0.011 A 
ATOM      5  C   LIG    1       -1.512  -0.764  -0.705  0.00  0.00    +0.002 A 
ATOM      6  C   LIG    1       -1.509  -2.146  -0.717  0.00  0.00    +0.023 A 
ATOM      7  C   LIG    1       -2.441  -2.856   0.033  0.00  0.00    +0.033 A 
ATOM      8  C   LIG    1       -3.374  -2.177   0.801  0.00  0.00    +0.034 A 
BRANCH   3  10
ATOM      9  C   LIG    1       -4.380   1.456   1.621  0.00  0.00    +0.091 C 
ATOM     10  C   LIG    1       -4.374  -0.051   1.616  0.00  0.00    +0.160 C 
ATOM     11  O   LIG    1       -5.186  -0.663   2.276  0.00  0.00    -0.292 OA
ENDBRANCH   3  10
ENDBRANCH   1   7
BRANCH   1  12
ATOM     12  C   LIG    1       -3.623  -4.955   0.130  0.00  0.00    +0.163 A 
ATOM     13  N   LIG    1       -3.818  -6.256   0.243  0.00  0.00    -0.225 NA
ATOM     14  C   LIG    1       -5.045  -6.762   0.343  0.00  0.00    +0.080 A 
ATOM     15  C   LIG    1       -6.119  -5.918   0.327  0.00  0.00    +0.076 A 
ATOM     16  S   LIG    1       -5.300  -4.337   0.168  0.00  0.00    -0.060 S 
BRANCH  14  17
ATOM     17  C   LIG    1       -5.244  -8.226   0.470  0.00  0.00    +0.001 A 
ATOM     18  C   LIG    1       -6.531  -8.751   0.568  0.00  0.00    +0.010 A 
ATOM     19  C   LIG    1       -6.710 -10.115   0.685  0.00  0.00    +0.001 A 
ATOM     20  C   LIG    1       -5.615 -10.959   0.706  0.00  0.00    +0.000 A 
ATOM     21  C   LIG    1       -4.335 -10.444   0.610  0.00  0.00    +0.001 A 
ATOM     22  C   LIG    1       -4.144  -9.082   0.486  0.00  0.00    +0.010 A 
ENDBRANCH  14  17
ENDBRANCH   1  12
TORSDOF 4
