REMARK  Name = ZINC25783468
REMARK                            x       y       z     vdW  Elec       q    Type
REMARK                         _______ _______ _______ _____ _____    ______ ____
ROOT
ATOM      1  C   LIG    1       -0.037   1.527  -0.007  0.00  0.00    +0.064 C 
ATOM      2  C   LIG    1       -0.008   0.020  -0.001  0.00  0.00    +0.028 A 
ATOM      3  C   LIG    1        0.007  -0.774  -1.127  0.00  0.00    +0.051 A 
ATOM      4  C   LIG    1        0.035  -2.172  -0.664  0.00  0.00    +0.015 A 
ATOM      5  C   LIG    1        0.059  -3.448  -1.226  0.00  0.00    +0.011 A 
ATOM      6  C   LIG    1        0.081  -4.553  -0.399  0.00  0.00    +0.004 A 
ATOM      7  C   LIG    1        0.081  -4.438   0.990  0.00  0.00    +0.048 A 
ATOM      8  C   LIG    1        0.059  -3.192   1.563  0.00  0.00    +0.145 A 
ATOM      9  O   LIG    1        0.057  -2.893   2.889  0.00  0.00    -0.488 OA
ATOM     10  C   LIG    1       -0.556  -1.664   3.275  0.00  0.00    +0.255 C 
ATOM     11  C   LIG    1        0.018  -0.444   2.539  0.00  0.00    +0.139 C 
ATOM     12  C   LIG    1        0.036  -2.080   0.718  0.00  0.00    +0.093 A 
ATOM     13  N   LIG    1        0.015  -0.742   1.099  0.00  0.00    -0.333 N 
ENDROOT
BRANCH   3  14
ATOM     14  C   LIG    1       -0.005  -0.315  -2.521  0.00  0.00    +0.196 C 
ATOM     15  O   LIG    1       -1.058  -0.232  -3.126  0.00  0.00    -0.287 OA
BRANCH  14  16
ATOM     16  C   LIG    1        1.259   0.046  -3.189  0.00  0.00    +0.030 A 
ATOM     17  C   LIG    1        2.479  -0.153  -2.554  0.00  0.00    +0.012 A 
ATOM     18  C   LIG    1        3.667   0.188  -3.185  0.00  0.00    +0.001 A 
ATOM     19  C   LIG    1        3.688   0.724  -4.436  0.00  0.00    +0.008 A 
ATOM     20  C   LIG    1        2.493   0.953  -5.138  0.00  0.00    -0.017 A 
ATOM     21  C   LIG    1        2.498   1.507  -6.430  0.00  0.00    +0.008 A 
ATOM     22  C   LIG    1        1.319   1.698  -7.085  0.00  0.00    +0.001 A 
ATOM     23  C   LIG    1        0.105   1.369  -6.487  0.00  0.00    +0.001 A 
ATOM     24  C   LIG    1        0.063   0.836  -5.233  0.00  0.00    +0.009 A 
ATOM     25  C   LIG    1        1.256   0.615  -4.535  0.00  0.00    -0.007 A 
ENDBRANCH  14  16
ENDBRANCH   3  14
BRANCH  11  26
ATOM     26  C   LIG    1        1.449  -0.180   3.009  0.00  0.00    +0.113 C 
BRANCH  26  27
ATOM     27  N   LIG    1        1.433   0.234   4.419  0.00  0.00    -0.296 NA
ATOM     28  C   LIG    1        0.773   1.538   4.577  0.00  0.00    +0.112 C 
ATOM     29  C   LIG    1        0.725   1.902   6.064  0.00  0.00    +0.175 C 
ATOM     30  O   LIG    1        2.054   1.899   6.593  0.00  0.00    -0.377 OA
ATOM     31  C   LIG    1        2.725   0.644   6.456  0.00  0.00    +0.175 C 
ATOM     32  C   LIG    1        2.794   0.267   4.974  0.00  0.00    +0.112 C 
ENDBRANCH  26  27
ENDBRANCH  11  26
TORSDOF 4
