REMARK  Name = ZINC40847911
REMARK                            x       y       z     vdW  Elec       q    Type
REMARK                         _______ _______ _______ _____ _____    ______ ____
ROOT
ATOM      1  C   LIG    1        6.064   1.966  -0.046  0.00  0.00    +0.061 A 
ATOM      2  C   LIG    1        6.270   3.297  -0.036  0.00  0.00    +0.108 A 
ATOM      3  N   LIG    1        7.619   3.559  -0.050  0.00  0.00    -0.344 N 
ATOM      4  C   LIG    1        8.328   2.382  -0.070  0.00  0.00    +0.140 A 
ATOM      5  N   LIG    1        9.627   2.110  -0.089  0.00  0.00    -0.237 NA
ATOM      6  C   LIG    1       10.077   0.876  -0.091  0.00  0.00    +0.121 A 
ATOM      7  C   LIG    1        9.206  -0.217  -0.088  0.00  0.00    +0.001 A 
ATOM      8  C   LIG    1        7.830   0.011  -0.073  0.00  0.00    +0.023 A 
ATOM      9  H   LIG    1        8.013   4.445  -0.045  0.00  0.00    +0.167 HD
ATOM     10  C   LIG    1        7.387   1.333  -0.062  0.00  0.00    +0.040 A 
ENDROOT
BRANCH   7  11
ATOM     11  C   LIG    1        9.737  -1.601  -0.100  0.00  0.00    -0.016 A 
ATOM     12  C   LIG    1        8.859  -2.685  -0.102  0.00  0.00    +0.010 A 
ATOM     13  C   LIG    1        9.351  -3.971  -0.113  0.00  0.00    +0.019 A 
ATOM     14  C   LIG    1       10.731  -4.190  -0.121  0.00  0.00    +0.052 A 
ATOM     15  C   LIG    1       11.610  -3.103  -0.119  0.00  0.00    +0.019 A 
ATOM     16  C   LIG    1       11.116  -1.819  -0.114  0.00  0.00    +0.010 A 
BRANCH  14  17
ATOM     17  C   LIG    1       11.245  -5.527  -0.132  0.00  0.00    +0.099 C 
ATOM     18  N   LIG    1       11.652  -6.587  -0.141  0.00  0.00    -0.191 NA
ENDBRANCH  14  17
ENDBRANCH   7  11
BRANCH   1  20
ATOM     19  C   LIG    1        3.680   2.028  -0.023  0.00  0.00    +0.250 C 
ATOM     20  N   LIG    1        4.821   1.310  -0.037  0.00  0.00    -0.280 N 
ATOM     21  H   LIG    1        4.784   0.341  -0.042  0.00  0.00    +0.155 HD
ATOM     22  O   LIG    1        3.727   3.243  -0.017  0.00  0.00    -0.270 OA
BRANCH  19  25
ATOM     23  C   LIG    1       -0.017   1.379   0.010  0.00  0.00    +0.020 A 
ATOM     24  C   LIG    1        1.181   2.073   0.002  0.00  0.00    +0.016 A 
ATOM     25  C   LIG    1        2.373   1.339  -0.013  0.00  0.00    +0.055 A 
ATOM     26  C   LIG    1        2.306  -0.056  -0.020  0.00  0.00    +0.123 A 
ATOM     27  N   LIG    1        1.141  -0.670  -0.012  0.00  0.00    -0.263 NA
ATOM     28  C   LIG    1        0.002  -0.004   0.002  0.00  0.00    +0.111 A 
ENDBRANCH  19  25
ENDBRANCH   1  20
TORSDOF 4
