REMARK  Name = ZINC26578175
REMARK                            x       y       z     vdW  Elec       q    Type
REMARK                         _______ _______ _______ _____ _____    ______ ____
ROOT
ATOM      1  C   LIG    1        1.644  -2.363   2.341  0.00  0.00    +0.073 C 
ATOM      2  C   LIG    1        1.741  -3.696   2.483  0.00  0.00    +0.017 C 
ATOM      3  C   LIG    1        1.331  -4.595   1.346  0.00  0.00    +0.061 C 
ATOM      4  N   LIG    1        2.206  -4.248   3.645  0.00  0.00    -0.317 N 
ATOM      5  H   LIG    1        2.511  -5.169   3.654  0.00  0.00    +0.152 HD
ATOM      6  C   LIG    1        2.241  -3.501   4.801  0.00  0.00    +0.050 C 
ATOM      7  C   LIG    1        2.164  -2.145   4.750  0.00  0.00    +0.078 C 
ATOM      8  C   LIG    1        2.053  -1.420   3.436  0.00  0.00    +0.141 C 
ENDROOT
BRANCH   6   9
ATOM      9  C   LIG    1        2.364  -4.179   6.108  0.00  0.00    -0.003 A 
ATOM     10  C   LIG    1        1.528  -5.253   6.422  0.00  0.00    +0.010 A 
ATOM     11  C   LIG    1        1.647  -5.881   7.644  0.00  0.00    +0.001 A 
ATOM     12  C   LIG    1        2.593  -5.450   8.558  0.00  0.00    +0.000 A 
ATOM     13  C   LIG    1        3.424  -4.387   8.253  0.00  0.00    +0.001 A 
ATOM     14  C   LIG    1        3.320  -3.753   7.032  0.00  0.00    +0.010 A 
ENDBRANCH   6   9
BRANCH   1  15
ATOM     15  C   LIG    1        1.150  -1.834   1.127  0.00  0.00    +0.338 C 
ATOM     16  O   LIG    1        1.923  -1.413   0.287  0.00  0.00    -0.245 OA
BRANCH  15  17
ATOM     17  O   LIG    1       -0.180  -1.798   0.898  0.00  0.00    -0.462 OA
BRANCH  17  19
ATOM     18  C   LIG    1       -2.136  -1.292  -0.427  0.00  0.00    +0.048 C 
ATOM     19  C   LIG    1       -0.609  -1.250  -0.350  0.00  0.00    +0.229 C 
ENDBRANCH  17  19
ENDBRANCH  15  17
ENDBRANCH   1  15
BRANCH   7  20
ATOM     20  C   LIG    1        2.193  -1.405   5.948  0.00  0.00    +0.339 C 
ATOM     21  O   LIG    1        3.192  -0.781   6.254  0.00  0.00    -0.245 OA
BRANCH  20  22
ATOM     22  O   LIG    1        1.112  -1.388   6.757  0.00  0.00    -0.457 OA
BRANCH  22  23
ATOM     23  C   LIG    1        1.170  -0.531   7.899  0.00  0.00    +0.268 C 
BRANCH  23  24
ATOM     24  C   LIG    1       -0.069  -0.723   8.735  0.00  0.00    -0.010 A 
ATOM     25  C   LIG    1       -1.222  -0.023   8.433  0.00  0.00    +0.009 A 
ATOM     26  C   LIG    1       -2.358  -0.199   9.200  0.00  0.00    +0.033 A 
ATOM     27  C   LIG    1       -2.342  -1.076  10.268  0.00  0.00    +0.122 A 
ATOM     28  C   LIG    1       -1.189  -1.777  10.570  0.00  0.00    +0.033 A 
ATOM     29  C   LIG    1       -0.054  -1.604   9.800  0.00  0.00    +0.009 A 
BRANCH  27  30
ATOM     30  N   LIG    1       -3.559  -1.264  11.090  0.00  0.00    +0.006 N 
ATOM     31  O   LIG    1       -4.567  -0.650  10.826  0.00  0.00    -0.130 OA
BRANCH  30  32
ATOM     32  O   LIG    1       -3.545  -2.030  12.024  0.00  0.00    -0.396 OA
ATOM     33  H   LIG    1       -2.763  -2.506  12.229  0.00  0.00    +0.329 HD
ENDBRANCH  30  32
ENDBRANCH  27  30
ENDBRANCH  23  24
ENDBRANCH  22  23
ENDBRANCH  20  22
ENDBRANCH   7  20
BRANCH   8  34
ATOM     34  C   LIG    1        1.045  -0.354   3.559  0.00  0.00    -0.084 C 
ATOM     35  C   LIG    1        0.242   0.496   3.657  0.00  0.00    -0.065 C 
BRANCH  35  36
ATOM     36  C   LIG    1       -0.739   1.533   3.776  0.00  0.00    +0.025 A 
ATOM     37  C   LIG    1       -1.857   1.539   2.941  0.00  0.00    +0.017 A 
ATOM     38  C   LIG    1       -2.798   2.541   3.061  0.00  0.00    +0.001 A 
ATOM     39  C   LIG    1       -2.635   3.538   4.007  0.00  0.00    +0.000 A 
ATOM     40  C   LIG    1       -1.528   3.537   4.837  0.00  0.00    +0.001 A 
ATOM     41  C   LIG    1       -0.583   2.538   4.731  0.00  0.00    +0.017 A 
ENDBRANCH  35  36
ENDBRANCH   8  34
TORSDOF 12
