REMARK  Name = ZINC49808162
REMARK                            x       y       z     vdW  Elec       q    Type
REMARK                         _______ _______ _______ _____ _____    ______ ____
ROOT
ATOM      1  C   LIG    1       -5.329  -3.233   1.751  0.00  0.00    +0.042 C 
ATOM      2  C   LIG    1       -6.609  -4.052   1.936  0.00  0.00    +0.012 C 
ATOM      3  C   LIG    1       -6.783  -4.338   3.433  0.00  0.00    +0.024 C 
ATOM      4  C   LIG    1       -7.041  -3.013   4.152  0.00  0.00    +0.142 C 
ATOM      5  N   LIG    1       -6.049  -2.020   3.764  0.00  0.00    -0.287 NA
ATOM      6  C   LIG    1       -5.308  -2.094   2.729  0.00  0.00    +0.048 C 
ENDROOT
BRANCH   6   7
ATOM      7  C   LIG    1       -4.364  -0.988   2.479  0.00  0.00    +0.014 A 
ATOM      8  C   LIG    1       -3.134  -1.228   1.853  0.00  0.00    +0.012 A 
ATOM      9  C   LIG    1       -2.285  -0.156   1.642  0.00  0.00    +0.020 A 
ATOM     10  C   LIG    1       -2.674   1.107   2.051  0.00  0.00    +0.111 A 
ATOM     11  N   LIG    1       -3.838   1.304   2.639  0.00  0.00    -0.263 NA
ATOM     12  C   LIG    1       -4.684   0.318   2.857  0.00  0.00    +0.120 A 
ENDBRANCH   6   7
BRANCH   1  13
ATOM     13  C   LIG    1       -5.282  -2.679   0.326  0.00  0.00    +0.048 C 
BRANCH  13  17
ATOM     14  C   LIG    1       -5.010  -5.919  -2.453  0.00  0.00    +0.124 A 
ATOM     15  C   LIG    1       -3.857  -5.313  -1.972  0.00  0.00    +0.046 A 
ATOM     16  C   LIG    1       -3.948  -4.266  -1.075  0.00  0.00    +0.011 A 
ATOM     17  C   LIG    1       -5.186  -3.820  -0.654  0.00  0.00    -0.005 A 
ATOM     18  C   LIG    1       -6.341  -4.422  -1.131  0.00  0.00    +0.127 A 
ATOM     19  C   LIG    1       -6.253  -5.469  -2.037  0.00  0.00    +0.091 A 
BRANCH  14  21
ATOM     20  C   LIG    1       -3.609  -7.432  -3.636  0.00  0.00    +0.277 C 
ATOM     21  O   LIG    1       -4.920  -6.948  -3.336  0.00  0.00    -0.495 OA
ENDBRANCH  14  21
BRANCH  18  22
ATOM     22  O   LIG    1       -7.559  -3.983  -0.716  0.00  0.00    -0.495 OA
ATOM     23  C   LIG    1       -8.705  -4.649  -1.249  0.00  0.00    +0.277 C 
ENDBRANCH  18  22
ENDBRANCH  13  17
ENDBRANCH   1  13
TORSDOF 5
