REMARK  Name = ZINC29134634
REMARK                            x       y       z     vdW  Elec       q    Type
REMARK                         _______ _______ _______ _____ _____    ______ ____
ROOT
ATOM      1  C   LIG    1        3.215  -2.597  -2.273  0.00  0.00    -0.001 C 
ATOM      2  C   LIG    1        3.096  -2.097  -0.832  0.00  0.00    +0.002 C 
ATOM      3  C   LIG    1        1.801  -2.628  -0.213  0.00  0.00    +0.020 C 
ATOM      4  C   LIG    1        0.605  -2.129  -1.026  0.00  0.00    +0.059 C 
ATOM      5  C   LIG    1        0.724  -2.630  -2.467  0.00  0.00    -0.055 C 
ATOM      6  C   LIG    1        2.018  -2.099  -3.086  0.00  0.00    -0.014 C 
ENDROOT
BRANCH   4   7
ATOM      7  N   LIG    1        0.585  -0.664  -1.018  0.00  0.00    -0.304 N 
ATOM      8  H   LIG    1        1.046  -0.104  -1.845  0.00  0.00    +0.149 HD
ATOM      9  C   LIG    1        0.002  -0.004   0.002  0.00  0.00    +0.325 C 
ATOM     10  O   LIG    1       -0.506  -0.622   0.913  0.00  0.00    -0.262 OA
BRANCH   9  11
ATOM     11  P   LIG    1       -0.022   1.810   0.012  0.00  0.00    +0.412 P 
ATOM     12  O   LIG    1        1.366   2.322   0.002  0.00  0.00    -0.249 OA
BRANCH  11  13
ATOM     13  O   LIG    1       -0.776   2.329   1.337  0.00  0.00    -0.318 OA
ATOM     14  H   LIG    1       -0.307   2.008   2.122  0.00  0.00    +0.220 HD
ENDBRANCH  11  13
BRANCH  11  15
ATOM     15  O   LIG    1       -0.801   2.343  -1.292  0.00  0.00    -0.318 OA
ATOM     16  H   LIG    1       -0.347   2.030  -2.090  0.00  0.00    +0.220 HD
ENDBRANCH  11  15
ENDBRANCH   9  11
ENDBRANCH   4   7
BRANCH   5  17
ATOM     17  N   LIG    1       -0.425  -2.151  -3.248  0.00  0.00    +0.381 N 
ATOM     18  H   LIG    1       -1.355  -2.533  -2.803  0.00  0.00    -0.090 HD
ATOM     19  H   LIG    1       -0.440  -1.052  -3.242  0.00  0.00    -0.090 HD
ATOM     20  H   LIG    1       -0.339  -2.511  -4.284  0.00  0.00    -0.090 HD
ENDBRANCH   5  17
TORSDOF 5
