REMARK  Name = ZINC14974852
REMARK                            x       y       z     vdW  Elec       q    Type
REMARK                         _______ _______ _______ _____ _____    ______ ____
ROOT
ATOM      1  C   LIG    1        1.471  -2.311   2.659  0.00  0.00    +0.176 A 
ATOM      2  C   LIG    1        1.853  -3.700   2.923  0.00  0.00    +0.061 A 
ATOM      3  C   LIG    1        2.630  -3.686   4.069  0.00  0.00    +0.179 A 
ATOM      4  O   LIG    1        2.727  -2.412   4.484  0.00  0.00    -0.353 OA
ATOM      5  N   LIG    1        2.010  -1.574   3.600  0.00  0.00    -0.072 NA
ENDROOT
BRANCH   3   6
ATOM      6  C   LIG    1        3.241  -4.860   4.717  0.00  0.00    +0.064 A 
ATOM      7  C   LIG    1        3.944  -5.796   3.954  0.00  0.00    +0.039 A 
ATOM      8  C   LIG    1        4.514  -6.893   4.564  0.00  0.00    +0.083 A 
ATOM      9 CL   LIG    1        5.387  -8.055   3.615  0.00  0.00    -0.080 Cl
ATOM     10  C   LIG    1        4.393  -7.070   5.939  0.00  0.00    +0.139 A 
ATOM     11  C   LIG    1        3.697  -6.146   6.704  0.00  0.00    +0.093 A 
ATOM     12  C   LIG    1        3.125  -5.038   6.103  0.00  0.00    +0.131 A 
BRANCH  10  13
ATOM     13  O   LIG    1        4.957  -8.153   6.534  0.00  0.00    -0.505 OA
ATOM     14  H   LIG    1        5.866  -8.010   6.831  0.00  0.00    +0.292 HD
ENDBRANCH  10  13
BRANCH  12  15
ATOM     15  O   LIG    1        2.449  -4.130   6.853  0.00  0.00    -0.506 OA
ATOM     16  H   LIG    1        1.506  -4.323   6.948  0.00  0.00    +0.292 HD
ENDBRANCH  12  15
ENDBRANCH   3   6
BRANCH   2  17
ATOM     17  C   LIG    1        1.480  -4.888   2.121  0.00  0.00    -0.012 A 
ATOM     18  C   LIG    1        0.627  -5.853   2.655  0.00  0.00    +0.012 A 
ATOM     19  C   LIG    1        0.282  -6.958   1.905  0.00  0.00    +0.046 A 
ATOM     20  C   LIG    1        0.784  -7.111   0.620  0.00  0.00    +0.120 A 
ATOM     21  C   LIG    1        1.634  -6.152   0.085  0.00  0.00    +0.046 A 
ATOM     22  C   LIG    1        1.978  -5.042   0.826  0.00  0.00    +0.012 A 
BRANCH  20  23
ATOM     23  O   LIG    1        0.442  -8.201  -0.116  0.00  0.00    -0.495 OA
ATOM     24  C   LIG    1        0.994  -8.295  -1.431  0.00  0.00    +0.277 C 
ENDBRANCH  20  23
ENDBRANCH   2  17
BRANCH   1  27
ATOM     25  N   LIG    1        0.367  -0.512   1.410  0.00  0.00    -0.310 N 
ATOM     26  H   LIG    1        0.721   0.117   2.058  0.00  0.00    +0.149 HD
ATOM     27  C   LIG    1        0.636  -1.827   1.534  0.00  0.00    +0.266 C 
ATOM     28  O   LIG    1        0.193  -2.616   0.722  0.00  0.00    -0.268 OA
BRANCH  25  30
ATOM     29  C   LIG    1       -0.608   1.485   0.391  0.00  0.00    +0.024 C 
ATOM     30  C   LIG    1       -0.458  -0.034   0.298  0.00  0.00    +0.101 C 
ENDBRANCH  25  30
ENDBRANCH   1  27
TORSDOF 7
