REMARK  Name = ZINC19702690
REMARK                            x       y       z     vdW  Elec       q    Type
REMARK                         _______ _______ _______ _____ _____    ______ ____
ROOT
ATOM      1  C   LIG    1       -0.017   1.379   0.010  0.00  0.00    +0.001 A 
ATOM      2  C   LIG    1        1.173   2.086   0.002  0.00  0.00    +0.004 A 
ATOM      3  C   LIG    1        2.386   1.426  -0.023  0.00  0.00    +0.046 A 
ATOM      4  C   LIG    1        2.427   0.040  -0.036  0.00  0.00    +0.130 A 
ATOM      5  C   LIG    1        1.214  -0.670  -0.011  0.00  0.00    +0.044 A 
ATOM      6  C   LIG    1        1.319  -2.147   0.028  0.00  0.00    +0.103 A 
ATOM      7  N   LIG    1        0.472  -3.114  -0.143  0.00  0.00    -0.173 NA
ATOM      8  N   LIG    1        1.055  -4.259  -0.008  0.00  0.00    -0.270 N 
ATOM      9  H   LIG    1        0.617  -5.120  -0.094  0.00  0.00    +0.189 HD
ATOM     10  C   LIG    1        2.388  -4.076   0.276  0.00  0.00    +0.149 A 
ATOM     11  C   LIG    1        2.587  -2.728   0.307  0.00  0.00    +0.049 A 
ATOM     12  C   LIG    1        3.794  -1.871   0.561  0.00  0.00    +0.269 C 
ATOM     13  O   LIG    1        3.614  -0.610  -0.089  0.00  0.00    -0.487 OA
ATOM     14  C   LIG    1        0.002  -0.004   0.002  0.00  0.00    +0.014 A 
ENDROOT
BRANCH  10  15
ATOM     15  C   LIG    1        3.393  -5.121   0.501  0.00  0.00    +0.355 C 
ATOM     16  O   LIG    1        3.072  -6.301   0.443  0.00  0.00    -0.243 OA
BRANCH  15  17
ATOM     17  O   LIG    1        4.552  -4.814   0.747  0.00  0.00    -0.476 OA
ATOM     18  H   LIG    1        4.797  -3.910   0.791  0.00  0.00    +0.295 HD
ENDBRANCH  15  17
ENDBRANCH  10  15
TORSDOF 2
