REMARK  Name = ZINC28572584
REMARK                            x       y       z     vdW  Elec       q    Type
REMARK                         _______ _______ _______ _____ _____    ______ ____
ROOT
ATOM      1  C   LIG    1        2.675   5.822   0.027  0.00  0.00    +0.125 A 
ATOM      2  C   LIG    1        1.315   5.552   0.131  0.00  0.00    +0.046 A 
ATOM      3  C   LIG    1        0.867   4.249   0.122  0.00  0.00    +0.018 A 
ATOM      4  C   LIG    1        1.780   3.198   0.009  0.00  0.00    +0.051 A 
ATOM      5  C   LIG    1        3.147   3.474  -0.091  0.00  0.00    +0.137 A 
ATOM      6  F   LIG    1        4.036   2.461  -0.195  0.00  0.00    -0.205 F 
ATOM      7  C   LIG    1        3.587   4.783  -0.087  0.00  0.00    +0.084 A 
ENDROOT
BRANCH   4   8
ATOM      8  C   LIG    1        1.303   1.800   0.000  0.00  0.00    +0.122 A 
ATOM      9  N   LIG    1        2.075   0.741  -0.004  0.00  0.00    -0.339 N 
ATOM     10  H   LIG    1        3.169   0.857  -0.003  0.00  0.00    +0.167 HD
ATOM     11  C   LIG    1        1.309  -0.379  -0.011  0.00  0.00    +0.065 A 
ATOM     12  C   LIG    1        1.606  -1.742  -0.018  0.00  0.00    +0.042 A 
ATOM     13  C   LIG    1        0.569  -2.670  -0.024  0.00  0.00    +0.061 A 
ATOM     14  C   LIG    1       -0.765  -2.236  -0.023  0.00  0.00    +0.017 A 
ATOM     15  C   LIG    1       -1.059  -0.904  -0.016  0.00  0.00    +0.029 A 
ATOM     16  C   LIG    1       -0.036   0.038  -0.011  0.00  0.00    +0.067 A 
ATOM     17  N   LIG    1       -0.012   1.417  -0.003  0.00  0.00    -0.322 N 
BRANCH  17  18
ATOM     18  C   LIG    1       -1.176   2.306   0.001  0.00  0.00    +0.089 C 
ATOM     19  C   LIG    1       -1.083   3.273  -1.181  0.00  0.00    +0.025 C 
ATOM     20  C   LIG    1       -2.299   4.202  -1.176  0.00  0.00    +0.002 C 
ATOM     21  C   LIG    1       -2.329   4.996   0.131  0.00  0.00    +0.000 C 
ATOM     22  C   LIG    1       -2.422   4.029   1.313  0.00  0.00    +0.002 C 
ATOM     23  C   LIG    1       -1.206   3.100   1.308  0.00  0.00    +0.025 C 
ENDBRANCH  17  18
BRANCH  13  24
ATOM     24  C   LIG    1        0.873  -4.113  -0.032  0.00  0.00    +0.337 C 
ATOM     25  O   LIG    1        2.028  -4.491  -0.033  0.00  0.00    -0.245 OA
BRANCH  24  26
ATOM     26  O   LIG    1       -0.130  -5.013  -0.037  0.00  0.00    -0.477 OA
ATOM     27  H   LIG    1       -1.021  -4.722  -0.036  0.00  0.00    +0.295 HD
ENDBRANCH  24  26
ENDBRANCH  13  24
ENDBRANCH   4   8
BRANCH   1  28
ATOM     28  O   LIG    1        3.111   7.108   0.036  0.00  0.00    -0.479 OA
BRANCH  28  29
ATOM     29  C   LIG    1        4.507   7.321  -0.185  0.00  0.00    +0.235 C 
BRANCH  29  33
ATOM     30  C   LIG    1        5.679  11.028   1.584  0.00  0.00    +0.000 A 
ATOM     31  C   LIG    1        6.553   9.957   1.581  0.00  0.00    +0.000 A 
ATOM     32  C   LIG    1        6.173   8.757   1.009  0.00  0.00    +0.007 A 
ATOM     33  C   LIG    1        4.920   8.629   0.439  0.00  0.00    -0.003 A 
ATOM     34  C   LIG    1        4.049   9.702   0.437  0.00  0.00    +0.007 A 
ATOM     35  C   LIG    1        4.427  10.900   1.013  0.00  0.00    +0.000 A 
ENDBRANCH  29  33
BRANCH  29  36
ATOM     36  C   LIG    1        4.781   7.363  -1.666  0.00  0.00    +0.015 A 
ATOM     37  C   LIG    1        5.915   6.758  -2.188  0.00  0.00    +0.010 A 
ATOM     38  C   LIG    1        6.126   6.821  -3.557  0.00  0.00    +0.020 A 
ATOM     39  C   LIG    1        5.206   7.481  -4.350  0.00  0.00    +0.111 A 
ATOM     40  N   LIG    1        4.139   8.044  -3.819  0.00  0.00    -0.263 NA
ATOM     41  C   LIG    1        3.903   7.999  -2.523  0.00  0.00    +0.118 A 
ENDBRANCH  29  36
ENDBRANCH  28  29
ENDBRANCH   1  28
TORSDOF 8
