REMARK  Name = ZINC27558313
REMARK                            x       y       z     vdW  Elec       q    Type
REMARK                         _______ _______ _______ _____ _____    ______ ____
ROOT
ATOM      1  C   LIG    1        0.454   1.664   4.354  0.00  0.00    +0.023 C 
ATOM      2  C   LIG    1        1.852   2.360   4.350  0.00  0.00    +0.024 C 
ATOM      3  C   LIG    1        2.284   2.139   5.845  0.00  0.00    +0.038 C 
ATOM      4  C   LIG    1        1.006   2.820   6.448  0.00  0.00    +0.123 C 
ATOM      5  O   LIG    1        0.996   4.105   5.769  0.00  0.00    -0.376 OA
ATOM      6  C   LIG    1        1.506   3.880   4.423  0.00  0.00    +0.164 C 
ATOM      7  C   LIG    1       -0.120   1.995   5.752  0.00  0.00    +0.029 C 
ENDROOT
BRANCH   1   9
ATOM      8  C   LIG    1       -0.875   1.463   2.316  0.00  0.00    -0.000 C 
ATOM      9  C   LIG    1       -0.425   2.236   3.272  0.00  0.00    -0.024 C 
BRANCH   8  10
ATOM     10  C   LIG    1       -1.754   2.035   1.234  0.00  0.00    +0.137 C 
BRANCH  10  11
ATOM     11  O   LIG    1       -1.857   3.450   1.403  0.00  0.00    -0.388 OA
ATOM     12  H   LIG    1       -2.275   3.864   2.332  0.00  0.00    +0.210 HD
ENDBRANCH  10  11
BRANCH  10  13
ATOM     13  C   LIG    1       -1.144   1.728  -0.135  0.00  0.00    +0.035 C 
BRANCH  13  14
ATOM     14  C   LIG    1       -2.097   2.199  -1.236  0.00  0.00    +0.003 C 
BRANCH  14  15
ATOM     15  C   LIG    1       -1.486   1.891  -2.604  0.00  0.00    -0.000 C 
BRANCH  15  17
ATOM     16  C   LIG    1       -1.829   2.055  -5.074  0.00  0.00    +0.004 C 
ATOM     17  C   LIG    1       -2.439   2.362  -3.705  0.00  0.00    -0.003 C 
ENDBRANCH  15  17
ENDBRANCH  14  15
ENDBRANCH  13  14
ENDBRANCH  10  13
ENDBRANCH   8  10
ENDBRANCH   1   9
BRANCH   7  18
ATOM     18  C   LIG    1       -0.401   0.710   6.533  0.00  0.00    +0.033 C 
BRANCH  18  19
ATOM     19  C   LIG    1       -1.071   1.051   7.838  0.00  0.00    -0.031 C 
ATOM     20  C   LIG    1       -2.206   0.481   8.161  0.00  0.00    -0.031 C 
BRANCH  20  21
ATOM     21  C   LIG    1       -2.756  -0.636   7.313  0.00  0.00    +0.027 C 
BRANCH  21  22
ATOM     22  C   LIG    1       -3.073  -1.842   8.200  0.00  0.00    +0.015 C 
BRANCH  22  23
ATOM     23  C   LIG    1       -3.631  -2.977   7.339  0.00  0.00    +0.121 C 
BRANCH  23  24
ATOM     24  C   LIG    1       -3.943  -4.164   8.213  0.00  0.00    +0.305 C 
ATOM     25  O   LIG    1       -3.740  -4.108   9.403  0.00  0.00    -0.251 OA
BRANCH  24  26
ATOM     26  O   LIG    1       -4.446  -5.283   7.670  0.00  0.00    -0.481 OA
ATOM     27  H   LIG    1       -4.604  -5.327   6.748  0.00  0.00    +0.295 HD
ENDBRANCH  24  26
ENDBRANCH  23  24
ENDBRANCH  22  23
ENDBRANCH  21  22
ENDBRANCH  20  21
ENDBRANCH  18  19
ENDBRANCH   7  18
TORSDOF 14
