REMARK  Name = ZINC26898952
REMARK                            x       y       z     vdW  Elec       q    Type
REMARK                         _______ _______ _______ _____ _____    ______ ____
ROOT
ATOM      1  N   LIG    1        0.077   5.190   0.026  0.00  0.00    -0.317 N 
ATOM      2  C   LIG    1       -0.659   5.734   1.176  0.00  0.00    +0.087 C 
ATOM      3  C   LIG    1       -0.656   7.263   1.102  0.00  0.00    -0.063 C 
ATOM      4  N   LIG    1        0.731   7.748   1.091  0.00  0.00    +0.381 N 
ATOM      5  H   LIG    1        1.237   7.434   2.016  0.00  0.00    -0.086 HD
ATOM      6  H   LIG    1        0.735   8.846   1.026  0.00  0.00    -0.086 HD
ATOM      7  C   LIG    1        1.467   7.204  -0.059  0.00  0.00    -0.063 C 
ATOM      8  C   LIG    1        1.464   5.675   0.015  0.00  0.00    +0.087 C 
ENDROOT
BRANCH   1  13
ATOM      9  C   LIG    1       -0.013   1.076   0.008  0.00  0.00    +0.023 A 
ATOM     10  C   LIG    1       -1.221   1.761   0.017  0.00  0.00    +0.043 A 
ATOM     11  C   LIG    1       -1.195   3.145   0.029  0.00  0.00    +0.163 A 
ATOM     12  F   LIG    1       -2.347   3.852   0.043  0.00  0.00    -0.202 F 
ATOM     13  C   LIG    1        0.035   3.799   0.021  0.00  0.00    +0.157 A 
ATOM     14  N   LIG    1        1.164   3.109   0.007  0.00  0.00    -0.237 NA
ATOM     15  C   LIG    1        1.169   1.789   0.001  0.00  0.00    +0.113 A 
ENDBRANCH   1  13
TORSDOF 1
