REMARK  Name = ZINC13779542
REMARK                            x       y       z     vdW  Elec       q    Type
REMARK                         _______ _______ _______ _____ _____    ______ ____
ROOT
ATOM      1  C   LIG    1        2.146   1.639  -1.514  0.00  0.00    -0.011 C 
ATOM      2  C   LIG    1        1.414   2.308  -0.350  0.00  0.00    +0.003 C 
ATOM      3  C   LIG    1       -0.017   1.774  -0.272  0.00  0.00    +0.001 C 
ATOM      4  C   LIG    1        0.015   0.260  -0.051  0.00  0.00    +0.005 C 
ATOM      5  C   LIG    1        0.747  -0.410  -1.216  0.00  0.00    -0.035 C 
ATOM      6  C   LIG    1        2.179   0.125  -1.294  0.00  0.00    +0.009 C 
ENDROOT
BRANCH   1   8
ATOM      7  C   LIG    1        3.547   3.664  -1.937  0.00  0.00    +0.004 C 
ATOM      8  C   LIG    1        3.578   2.173  -1.592  0.00  0.00    +0.000 C 
ENDBRANCH   1   8
BRANCH   5   9
ATOM      9  C   LIG    1        0.780  -1.923  -0.995  0.00  0.00    -0.079 C 
BRANCH   9  10
ATOM     10  N   LIG    1       -0.594  -2.449  -1.078  0.00  0.00    +0.378 N 
ATOM     11  H   LIG    1       -1.001  -2.187  -1.984  0.00  0.00    -0.090 HD
ATOM     12  H   LIG    1       -1.165  -2.054  -0.332  0.00  0.00    -0.090 HD
ATOM     13  H   LIG    1       -0.586  -3.464  -0.998  0.00  0.00    -0.090 HD
ENDBRANCH   9  10
ENDBRANCH   5   9
BRANCH   5  14
ATOM     14  C   LIG    1        0.016  -0.101  -2.523  0.00  0.00    +0.125 C 
BRANCH  14  15
ATOM     15  C   LIG    1        0.764  -0.720  -3.676  0.00  0.00    +0.305 C 
ATOM     16  O   LIG    1        1.714  -1.435  -3.465  0.00  0.00    -0.251 OA
BRANCH  15  17
ATOM     17  O   LIG    1        0.375  -0.475  -4.937  0.00  0.00    -0.481 OA
ATOM     18  H   LIG    1       -0.362   0.080  -5.101  0.00  0.00    +0.295 HD
ENDBRANCH  15  17
ENDBRANCH  14  15
ENDBRANCH   5  14
TORSDOF 6
