REMARK  Name = ZINC21992287
REMARK                            x       y       z     vdW  Elec       q    Type
REMARK                         _______ _______ _______ _____ _____    ______ ____
ROOT
ATOM      1  C   LIG    1        1.875   3.317   4.729  0.00  0.00    -0.050 C 
ATOM      2  C   LIG    1        2.410   2.731   6.010  0.00  0.00    +0.044 C 
ATOM      3  C   LIG    1        0.841   4.205   4.765  0.00  0.00    +0.003 C 
ENDROOT
BRANCH   1   5
ATOM      4  C   LIG    1        1.646   2.519   2.483  0.00  0.00    +0.004 C 
ATOM      5  C   LIG    1        2.443   2.948   3.496  0.00  0.00    +0.003 C 
BRANCH   4   8
ATOM      6  C   LIG    1        0.986   0.802   4.463  0.00  0.00    +0.039 C 
ATOM      7  C   LIG    1       -0.099   1.478   3.666  0.00  0.00    -0.069 C 
ATOM      8  C   LIG    1        0.261   2.315   2.708  0.00  0.00    -0.043 C 
ATOM      9  C   LIG    1       -0.715   3.062   1.844  0.00  0.00    -0.010 C 
ATOM     10  C   LIG    1       -0.232   3.033   0.393  0.00  0.00    +0.016 C 
ATOM     11  C   LIG    1       -0.803   4.514   2.318  0.00  0.00    +0.016 C 
ATOM     12  C   LIG    1       -2.098   2.414   1.932  0.00  0.00    +0.011 C 
ATOM     13  C   LIG    1       -2.455   2.225   3.411  0.00  0.00    +0.005 C 
ATOM     14  C   LIG    1       -1.527   1.159   4.000  0.00  0.00    +0.031 C 
ENDBRANCH   4   8
ENDBRANCH   1   5
BRANCH   3  15
ATOM     15  C   LIG    1        0.275   4.573   5.995  0.00  0.00    +0.001 C 
ATOM     16  C   LIG    1       -0.760   5.462   6.031  0.00  0.00    +0.003 C 
BRANCH  16  17
ATOM     17  C   LIG    1       -1.240   5.931   7.264  0.00  0.00    -0.044 C 
ATOM     18  C   LIG    1       -0.538   5.546   8.541  0.00  0.00    +0.044 C 
ATOM     19  C   LIG    1       -2.341   6.734   7.306  0.00  0.00    +0.094 C 
BRANCH  19  20
ATOM     20  C   LIG    1       -2.775   7.271   8.535  0.00  0.00    +0.330 C 
ATOM     21  O   LIG    1       -2.111   7.102   9.541  0.00  0.00    -0.246 OA
BRANCH  20  22
ATOM     22  O   LIG    1       -3.928   7.973   8.596  0.00  0.00    -0.478 OA
ATOM     23  H   LIG    1       -4.439   8.102   7.822  0.00  0.00    +0.295 HD
ENDBRANCH  20  22
ENDBRANCH  19  20
ENDBRANCH  16  17
ENDBRANCH   3  15
TORSDOF 6
