REMARK  Name = ZINC28525101
REMARK                            x       y       z     vdW  Elec       q    Type
REMARK                         _______ _______ _______ _____ _____    ______ ____
ROOT
ATOM      1  C   LIG    1        0.587  -4.179   0.229  0.00  0.00    +0.171 C 
ATOM      2  O   LIG    1        0.703  -4.685   1.325  0.00  0.00    -0.292 OA
ENDROOT
BRANCH   1   7
ATOM      3  C   LIG    1       -0.549   1.436  -0.242  0.00  0.00    +0.044 C 
ATOM      4  C   LIG    1       -0.251  -0.036  -0.118  0.00  0.00    -0.050 A 
ATOM      5  C   LIG    1        0.012  -0.782  -1.254  0.00  0.00    +0.004 A 
ATOM      6  C   LIG    1        0.286  -2.130  -1.149  0.00  0.00    +0.012 A 
ATOM      7  C   LIG    1        0.296  -2.742   0.108  0.00  0.00    +0.021 A 
ATOM      8  C   LIG    1        0.029  -1.981   1.251  0.00  0.00    -0.040 A 
ATOM      9  C   LIG    1        0.037  -2.630   2.610  0.00  0.00    +0.044 C 
ATOM     10  C   LIG    1       -0.237  -0.633   1.130  0.00  0.00    +0.007 A 
ENDBRANCH   1   7
BRANCH   1  11
ATOM     11  C   LIG    1        0.740  -5.024  -1.010  0.00  0.00    +0.166 C 
BRANCH  11  12
ATOM     12  C   LIG    1        1.031  -6.448  -0.614  0.00  0.00    +0.246 C 
ATOM     13  O   LIG    1        1.107  -6.747   0.553  0.00  0.00    -0.285 OA
BRANCH  12  14
ATOM     14  C   LIG    1        1.226  -7.490  -1.666  0.00  0.00    +0.373 C 
ATOM     15  O   LIG    1        1.462  -8.644  -1.346  0.00  0.00    -0.242 OA
BRANCH  14  16
ATOM     16  O   LIG    1        1.150  -7.188  -2.846  0.00  0.00    -0.475 OA
ATOM     17  H   LIG    1        0.969  -6.303  -3.092  0.00  0.00    +0.295 HD
ENDBRANCH  14  16
ENDBRANCH  12  14
ENDBRANCH  11  12
ENDBRANCH   1  11
TORSDOF 5
