REMARK  Name = ZINC28357928
REMARK                            x       y       z     vdW  Elec       q    Type
REMARK                         _______ _______ _______ _____ _____    ______ ____
ROOT
ATOM      1  C   LIG    1       -1.351  -3.312   4.767  0.00  0.00    +0.064 A 
ATOM      2  C   LIG    1       -1.323  -4.365   5.680  0.00  0.00    +0.043 A 
ATOM      3  C   LIG    1       -1.313  -4.102   7.035  0.00  0.00    +0.106 A 
ATOM      4  C   LIG    1       -1.332  -2.795   7.491  0.00  0.00    +0.032 A 
ATOM      5  C   LIG    1       -1.361  -1.744   6.595  0.00  0.00    +0.048 A 
ATOM      6  C   LIG    1       -1.364  -1.993   5.232  0.00  0.00    +0.131 A 
ENDROOT
BRANCH   1  14
ATOM      7  C   LIG    1       -1.413  -2.041   0.005  0.00  0.00    +0.132 A 
ATOM      8  N   LIG    1       -1.407  -2.793  -1.071  0.00  0.00    -0.235 NA
ATOM      9  C   LIG    1       -1.388  -4.079  -0.724  0.00  0.00    +0.071 A 
ATOM     10  C   LIG    1       -1.376  -5.258  -1.663  0.00  0.00    +0.068 C 
ATOM     11  C   LIG    1       -1.382  -4.133   0.653  0.00  0.00    +0.149 A 
ATOM     12  C   LIG    1       -1.364  -5.171   1.610  0.00  0.00    +0.242 A 
ATOM     13  N   LIG    1       -1.348  -4.864   2.893  0.00  0.00    -0.190 NA
ATOM     14  C   LIG    1       -1.361  -3.590   3.312  0.00  0.00    +0.187 A 
ATOM     15  N   LIG    1       -1.383  -2.579   2.472  0.00  0.00    -0.144 NA
ATOM     16  N   LIG    1       -1.392  -2.820   1.094  0.00  0.00    -0.210 N 
BRANCH  12  17
ATOM     17  O   LIG    1       -1.348  -6.465   1.216  0.00  0.00    -0.491 OA
ATOM     18  H   LIG    1       -1.360  -6.677   0.304  0.00  0.00    +0.294 HD
ENDBRANCH  12  17
BRANCH   7  19
ATOM     19  C   LIG    1       -1.433  -0.534   0.013  0.00  0.00    +0.076 C 
BRANCH  19  21
ATOM     20  C   LIG    1       -0.019   1.526   0.010  0.00  0.00    +0.004 C 
ATOM     21  C   LIG    1        0.002  -0.004   0.002  0.00  0.00    +0.004 C 
ENDBRANCH  19  21
ENDBRANCH   7  19
ENDBRANCH   1  14
BRANCH   3  22
ATOM     22  S   LIG    1       -1.278  -5.434   8.188  0.00  0.00    +0.061 S 
ATOM     23  O   LIG    1       -1.816  -6.565   7.517  0.00  0.00    -0.153 OA
ATOM     24  O   LIG    1       -1.825  -4.936   9.400  0.00  0.00    -0.153 OA
BRANCH  22  25
ATOM     25  N   LIG    1        0.314  -5.776   8.492  0.00  0.00    -0.174 NA
ATOM     26  C   LIG    1        1.045  -6.754   7.672  0.00  0.00    +0.125 C 
ATOM     27  C   LIG    1        2.349  -6.107   7.192  0.00  0.00    +0.101 C 
ATOM     28  N   LIG    1        3.090  -5.589   8.350  0.00  0.00    -0.298 NA
ATOM     29  C   LIG    1        2.337  -4.529   9.033  0.00  0.00    +0.101 C 
ATOM     30  C   LIG    1        1.034  -5.106   9.585  0.00  0.00    +0.125 C 
BRANCH  28  31
ATOM     31  C   LIG    1        4.423  -5.116   7.953  0.00  0.00    +0.112 C 
BRANCH  31  32
ATOM     32  C   LIG    1        5.252  -4.819   9.204  0.00  0.00    +0.171 C 
BRANCH  32  33
ATOM     33  O   LIG    1        5.480  -6.032   9.924  0.00  0.00    -0.394 OA
ATOM     34  H   LIG    1        6.001  -5.919  10.731  0.00  0.00    +0.209 HD
ENDBRANCH  32  33
ENDBRANCH  31  32
ENDBRANCH  28  31
ENDBRANCH  22  25
ENDBRANCH   3  22
BRANCH   6  35
ATOM     35  O   LIG    1       -1.386  -0.961   4.350  0.00  0.00    -0.492 OA
BRANCH  35  36
ATOM     36  C   LIG    1       -1.399   0.359   4.897  0.00  0.00    +0.226 C 
ATOM     37  C   LIG    1       -1.423   1.383   3.760  0.00  0.00    +0.048 C 
ENDBRANCH  35  36
ENDBRANCH   6  35
TORSDOF 11
