REMARK  Name = ZINC19167200
REMARK                            x       y       z     vdW  Elec       q    Type
REMARK                         _______ _______ _______ _____ _____    ______ ____
ROOT
ATOM      1  C   LIG    1       -0.070   5.347   0.031  0.00  0.00    +0.101 C 
ENDROOT
BRANCH   1   2
ATOM      2  C   LIG    1       -0.050   3.840   0.023  0.00  0.00    -0.035 A 
ATOM      3  C   LIG    1        1.156   3.165   0.008  0.00  0.00    +0.005 A 
ATOM      4  C   LIG    1        1.175   1.783   0.000  0.00  0.00    +0.000 A 
ATOM      5  C   LIG    1       -0.013   1.076   0.008  0.00  0.00    +0.000 A 
ATOM      6  C   LIG    1       -1.219   1.751   0.017  0.00  0.00    +0.000 A 
ATOM      7  C   LIG    1       -1.238   3.133   0.030  0.00  0.00    +0.005 A 
ENDBRANCH   1   2
BRANCH   1   9
ATOM      8  C   LIG    1       -0.230   7.306  -1.383  0.00  0.00    +0.084 C 
ATOM      9  N   LIG    1       -0.090   5.844  -1.351  0.00  0.00    -0.355 NA
BRANCH   9  10
ATOM     10  N   LIG    1        1.097   5.418  -2.075  0.00  0.00    +0.389 N 
ATOM     11  H   LIG    1        1.023   5.743  -3.123  0.00  0.00    -0.065 HD
ATOM     12  H   LIG    1        1.988   5.868  -1.614  0.00  0.00    -0.065 HD
ATOM     13  H   LIG    1        1.176   4.322  -2.035  0.00  0.00    -0.065 HD
ENDBRANCH   9  10
ENDBRANCH   1   9
TORSDOF 3
