REMARK  Name = ZINC38557962
REMARK                            x       y       z     vdW  Elec       q    Type
REMARK                         _______ _______ _______ _____ _____    ______ ____
ROOT
ATOM      1  C   LIG    1       -0.550   1.517   0.447  0.00  0.00    +0.012 C 
ATOM      2  C   LIG    1       -0.450  -0.016   0.342  0.00  0.00    -0.019 C 
ATOM      3  C   LIG    1       -0.215  -0.375  -1.119  0.00  0.00    +0.008 C 
ATOM      4  C   LIG    1        1.218  -0.025  -1.550  0.00  0.00    +0.005 C 
ATOM      5  C   LIG    1        2.169  -0.825  -0.661  0.00  0.00    +0.004 C 
ATOM      6  C   LIG    1        2.077  -0.308   0.768  0.00  0.00    -0.023 C 
ATOM      7  C   LIG    1        2.474   1.159   0.884  0.00  0.00    +0.012 C 
ATOM      8  C   LIG    1        3.006  -1.136   1.667  0.00  0.00    +0.041 C 
ATOM      9  C   LIG    1        4.434  -1.150   1.151  0.00  0.00    +0.144 C 
ATOM     10  C   LIG    1        4.530  -1.635  -0.285  0.00  0.00    +0.149 C 
ATOM     11  C   LIG    1        3.561  -0.935  -1.234  0.00  0.00    -0.003 C 
ATOM     12  C   LIG    1        3.487  -1.823  -2.504  0.00  0.00    +0.014 C 
ATOM     13  C   LIG    1        4.133   0.414  -1.674  0.00  0.00    +0.014 C 
ATOM     14  C   LIG    1       -1.801  -0.580   0.815  0.00  0.00    -0.005 C 
ATOM     15  C   LIG    1       -1.785  -2.095   0.574  0.00  0.00    +0.016 C 
ATOM     16  C   LIG    1       -2.945  -0.002  -0.006  0.00  0.00    +0.012 C 
ATOM     17  C   LIG    1       -4.305  -0.271   0.637  0.00  0.00    +0.019 C 
ATOM     18  C   LIG    1       -4.357   0.298   2.051  0.00  0.00    +0.074 C 
ATOM     19  C   LIG    1       -3.350  -0.433   2.933  0.00  0.00    +0.033 C 
ATOM     20  C   LIG    1       -3.749  -1.889   3.131  0.00  0.00    +0.015 C 
ATOM     21  C   LIG    1       -5.153  -2.004   3.725  0.00  0.00    -0.034 C 
ATOM     22  C   LIG    1       -5.532  -3.491   3.802  0.00  0.00    +0.011 C 
ATOM     23  C   LIG    1       -5.188  -1.414   5.133  0.00  0.00    +0.011 C 
ATOM     24  C   LIG    1       -6.155  -1.290   2.818  0.00  0.00    +0.007 C 
ATOM     25  C   LIG    1       -5.768   0.170   2.624  0.00  0.00    +0.019 C 
ATOM     26  C   LIG    1       -1.978  -0.356   2.287  0.00  0.00    -0.063 C 
ATOM     27  C   LIG    1       -0.980  -0.085   3.089  0.00  0.00    -0.026 C 
ATOM     28  C   LIG    1        0.452   0.047   2.664  0.00  0.00    +0.031 C 
ATOM     29  C   LIG    1        0.643  -0.530   1.263  0.00  0.00    +0.006 C 
ENDROOT
BRANCH   9  30
ATOM     30  O   LIG    1        5.074   0.115   1.310  0.00  0.00    -0.389 OA
ATOM     31  H   LIG    1        5.986   0.137   0.990  0.00  0.00    +0.210 HD
ENDBRANCH   9  30
BRANCH  10  32
ATOM     32  O   LIG    1        4.287  -3.048  -0.329  0.00  0.00    -0.389 OA
ATOM     33  H   LIG    1        4.913  -3.570   0.192  0.00  0.00    +0.210 HD
ENDBRANCH  10  32
BRANCH  18  34
ATOM     34  C   LIG    1       -4.007   1.769   2.020  0.00  0.00    +0.312 C 
ATOM     35  O   LIG    1       -4.686   2.544   1.368  0.00  0.00    -0.250 OA
BRANCH  34  36
ATOM     36  O   LIG    1       -3.046   2.180   2.648  0.00  0.00    -0.480 OA
ATOM     37  H   LIG    1       -2.525   1.585   3.149  0.00  0.00    +0.295 HD
ENDBRANCH  34  36
ENDBRANCH  18  34
TORSDOF 4
