REMARK  Name = ZINC00056527
REMARK                            x       y       z     vdW  Elec       q    Type
REMARK                         _______ _______ _______ _____ _____    ______ ____
ROOT
ATOM      1  C   LIG    1        1.816   1.413  -1.000  0.00  0.00    +0.001 A 
ATOM      2  C   LIG    1        1.368   2.028   0.156  0.00  0.00    +0.001 A 
ATOM      3  C   LIG    1        0.892   1.273   1.212  0.00  0.00    +0.016 A 
ATOM      4  C   LIG    1        0.861  -0.117   1.115  0.00  0.00    +0.070 A 
ATOM      5  C   LIG    1        1.317  -0.743  -0.061  0.00  0.00    +0.036 A 
ATOM      6  C   LIG    1        1.793   0.035  -1.114  0.00  0.00    +0.012 A 
ENDROOT
BRANCH   4   7
ATOM      7  C   LIG    1        0.354  -0.928   2.240  0.00  0.00    +0.337 C 
ATOM      8  O   LIG    1        0.038  -0.388   3.290  0.00  0.00    -0.245 OA
BRANCH   7   9
ATOM      9  O   LIG    1        0.251  -2.141   2.122  0.00  0.00    -0.477 OA
ATOM     10  H   LIG    1        0.493  -2.555   1.317  0.00  0.00    +0.295 HD
ENDBRANCH   7   9
ENDBRANCH   4   7
BRANCH   5  11
ATOM     11  C   LIG    1        1.291  -2.217  -0.178  0.00  0.00    +0.194 C 
ATOM     12  O   LIG    1        2.319  -2.854  -0.059  0.00  0.00    -0.287 OA
BRANCH  11  13
ATOM     13  C   LIG    1        0.016  -2.914  -0.439  0.00  0.00    +0.022 A 
ATOM     14  C   LIG    1       -1.145  -2.180  -0.699  0.00  0.00    +0.013 A 
ATOM     15  C   LIG    1       -2.332  -2.837  -0.942  0.00  0.00    +0.021 A 
ATOM     16  C   LIG    1       -2.377  -4.222  -0.927  0.00  0.00    +0.041 A 
ATOM     17 CL   LIG    1       -3.876  -5.042  -1.233  0.00  0.00    -0.084 Cl
ATOM     18  C   LIG    1       -1.230  -4.956  -0.670  0.00  0.00    +0.021 A 
ATOM     19  C   LIG    1       -0.035  -4.311  -0.432  0.00  0.00    +0.013 A 
ENDBRANCH  11  13
ENDBRANCH   5  11
TORSDOF 4
