REMARK  Name = ZINC16052239
REMARK                            x       y       z     vdW  Elec       q    Type
REMARK                         _______ _______ _______ _____ _____    ______ ____
ROOT
ATOM      1  O   LIG    1       -9.258   2.530   0.263  0.00  0.00    -0.492 OA
ENDROOT
BRANCH   1   4
ATOM      2  C   LIG    1       -5.659   1.992   0.107  0.00  0.00    +0.004 A 
ATOM      3  C   LIG    1       -6.950   2.329  -0.304  0.00  0.00    +0.057 A 
ATOM      4  C   LIG    1       -7.984   2.215   0.616  0.00  0.00    +0.139 A 
ATOM      5  C   LIG    1       -7.701   1.774   1.902  0.00  0.00    +0.156 A 
ATOM      6  N   LIG    1       -6.469   1.465   2.256  0.00  0.00    -0.259 NA
ATOM      7  C   LIG    1       -5.459   1.553   1.415  0.00  0.00    +0.119 A 
BRANCH   2  16
ATOM      8  C   LIG    1       -0.013   1.086   0.008  0.00  0.00    +0.068 C 
ATOM      9  C   LIG    1       -0.742   1.585  -1.213  0.00  0.00    +0.067 A 
ATOM     10  N   LIG    1       -0.206   1.860  -2.368  0.00  0.00    -0.178 NA
ATOM     11  N   LIG    1       -1.189   2.295  -3.262  0.00  0.00    -0.277 N 
ATOM     12  H   LIG    1       -1.035   2.555  -4.184  0.00  0.00    +0.189 HD
ATOM     13  C   LIG    1       -2.404   2.300  -2.627  0.00  0.00    +0.066 A 
ATOM     14  C   LIG    1       -3.695   2.638  -3.026  0.00  0.00    +0.028 A 
ATOM     15  C   LIG    1       -4.732   2.538  -2.146  0.00  0.00    +0.010 A 
ATOM     16  C   LIG    1       -4.517   2.095  -0.835  0.00  0.00    -0.016 A 
ATOM     17  C   LIG    1       -3.241   1.753  -0.415  0.00  0.00    +0.020 A 
ATOM     18  C   LIG    1       -2.173   1.853  -1.311  0.00  0.00    +0.023 A 
ENDBRANCH   2  16
ENDBRANCH   1   4
BRANCH   1  19
ATOM     19  C   LIG    1      -10.265   2.386   1.266  0.00  0.00    +0.213 C 
BRANCH  19  20
ATOM     20  C   LIG    1      -11.624   2.785   0.687  0.00  0.00    -0.033 C 
BRANCH  20  21
ATOM     21  N   LIG    1      -11.998   1.844  -0.377  0.00  0.00    +0.382 N 
ATOM     22  H   LIG    1      -12.056   0.912   0.004  0.00  0.00    -0.089 HD
ATOM     23  H   LIG    1      -11.302   1.867  -1.106  0.00  0.00    -0.089 HD
ATOM     24  H   LIG    1      -12.894   2.107  -0.759  0.00  0.00    -0.089 HD
ENDBRANCH  20  21
BRANCH  20  25
ATOM     25  C   LIG    1      -12.680   2.751   1.794  0.00  0.00    +0.024 C 
BRANCH  25  26
ATOM     26  C   LIG    1      -13.991   3.261   1.253  0.00  0.00    -0.024 A 
ATOM     27  C   LIG    1      -14.453   4.519   1.334  0.00  0.00    +0.087 A 
ATOM     28  N   LIG    1      -15.678   4.606   0.731  0.00  0.00    -0.360 N 
ATOM     29  C   LIG    1      -16.043   3.375   0.234  0.00  0.00    +0.047 A 
ATOM     30  C   LIG    1      -17.161   2.913  -0.453  0.00  0.00    +0.026 A 
ATOM     31  C   LIG    1      -17.229   1.593  -0.840  0.00  0.00    +0.002 A 
ATOM     32  C   LIG    1      -16.199   0.713  -0.538  0.00  0.00    +0.001 A 
ATOM     33  C   LIG    1      -15.094   1.144   0.140  0.00  0.00    +0.010 A 
ATOM     34  H   LIG    1      -16.209   5.415   0.663  0.00  0.00    +0.165 HD
ATOM     35  C   LIG    1      -15.000   2.480   0.533  0.00  0.00    +0.003 A 
ENDBRANCH  25  26
ENDBRANCH  20  25
ENDBRANCH  19  20
ENDBRANCH   1  19
TORSDOF 7
