REMARK  Name = ZINC37866044
REMARK                            x       y       z     vdW  Elec       q    Type
REMARK                         _______ _______ _______ _____ _____    ______ ____
ROOT
ATOM      1  C   LIG    1       -1.311  -0.703   0.196  0.00  0.00    +0.005 A 
ATOM      2  C   LIG    1       -1.673  -1.663   1.138  0.00  0.00    +0.005 A 
ATOM      3  C   LIG    1       -2.787  -2.453   0.875  0.00  0.00    +0.028 A 
ATOM      4  S   LIG    1       -3.330  -1.840  -0.710  0.00  0.00    -0.087 S 
ATOM      5  C   LIG    1       -2.086  -0.584  -0.952  0.00  0.00    +0.028 A 
ENDROOT
BRANCH   1  11
ATOM      6  C   LIG    1       -0.296   1.511   0.784  0.00  0.00    +0.028 A 
ATOM      7  C   LIG    1        0.826   2.289   0.978  0.00  0.00    +0.111 A 
ATOM      8  N   LIG    1        2.035   1.786   0.818  0.00  0.00    -0.263 NA
ATOM      9  C   LIG    1        2.230   0.528   0.469  0.00  0.00    +0.111 A 
ATOM     10  C   LIG    1        1.165  -0.320   0.256  0.00  0.00    +0.028 A 
ATOM     11  C   LIG    1       -0.136   0.171   0.414  0.00  0.00    -0.013 A 
ENDBRANCH   1  11
BRANCH   2  12
ATOM     12  C   LIG    1       -0.894  -1.838   2.384  0.00  0.00    -0.013 A 
ATOM     13  C   LIG    1       -0.090  -2.968   2.577  0.00  0.00    +0.028 A 
ATOM     14  C   LIG    1        0.619  -3.090   3.753  0.00  0.00    +0.111 A 
ATOM     15  N   LIG    1        0.548  -2.161   4.687  0.00  0.00    -0.263 NA
ATOM     16  C   LIG    1       -0.198  -1.081   4.546  0.00  0.00    +0.111 A 
ATOM     17  C   LIG    1       -0.936  -0.876   3.400  0.00  0.00    +0.028 A 
ENDBRANCH   2  12
BRANCH   3  18
ATOM     18  C   LIG    1       -3.373  -3.527   1.700  0.00  0.00    -0.008 A 
ATOM     19  C   LIG    1       -2.903  -3.778   2.996  0.00  0.00    +0.029 A 
ATOM     20  C   LIG    1       -3.479  -4.792   3.731  0.00  0.00    +0.111 A 
ATOM     21  N   LIG    1       -4.459  -5.521   3.229  0.00  0.00    -0.263 NA
ATOM     22  C   LIG    1       -4.931  -5.319   2.013  0.00  0.00    +0.111 A 
ATOM     23  C   LIG    1       -4.418  -4.322   1.211  0.00  0.00    +0.029 A 
ENDBRANCH   3  18
BRANCH   5  24
ATOM     24  C   LIG    1       -1.921   0.345  -2.086  0.00  0.00    -0.008 A 
ATOM     25  C   LIG    1       -0.796   1.175  -2.179  0.00  0.00    +0.029 A 
ATOM     26  C   LIG    1       -0.682   2.029  -3.256  0.00  0.00    +0.111 A 
ATOM     27  N   LIG    1       -1.614   2.069  -4.190  0.00  0.00    -0.263 NA
ATOM     28  C   LIG    1       -2.689   1.305  -4.141  0.00  0.00    +0.111 A 
ATOM     29  C   LIG    1       -2.882   0.418  -3.104  0.00  0.00    +0.029 A 
ENDBRANCH   5  24
TORSDOF 4
