REMARK  Name = ZINC14779318
REMARK                            x       y       z     vdW  Elec       q    Type
REMARK                         _______ _______ _______ _____ _____    ______ ____
ROOT
ATOM      1  C   LIG    1        2.425   1.458  -0.014  0.00  0.00    +0.170 A 
ATOM      2  C   LIG    1        1.181   2.092   0.002  0.00  0.00    +0.160 A 
ATOM      3  C   LIG    1       -0.017   1.386   0.010  0.00  0.00    +0.063 A 
ATOM      4  C   LIG    1        0.002  -0.004   0.002  0.00  0.00    +0.053 A 
ATOM      5  C   LIG    1        1.257  -0.625  -0.013  0.00  0.00    +0.022 A 
ATOM      6  C   LIG    1        1.113  -2.019  -0.020  0.00  0.00    +0.051 A 
ATOM      7  N   LIG    1       -0.256  -2.277  -0.008  0.00  0.00    -0.322 N 
ATOM      8  H   LIG    1       -0.653  -3.162  -0.009  0.00  0.00    +0.169 HD
ATOM      9  C   LIG    1        2.246  -2.775  -0.035  0.00  0.00    +0.034 A 
ATOM     10  C   LIG    1        3.526  -2.171  -0.044  0.00  0.00    -0.015 A 
ATOM     11  C   LIG    1        4.679  -2.976  -0.061  0.00  0.00    +0.012 A 
ATOM     12  C   LIG    1        5.914  -2.405  -0.070  0.00  0.00    +0.046 A 
ATOM     13  C   LIG    1        6.064  -1.017  -0.063  0.00  0.00    +0.117 A 
ATOM     14  C   LIG    1        4.954  -0.196  -0.047  0.00  0.00    +0.054 A 
ATOM     15  C   LIG    1        3.680  -0.760  -0.038  0.00  0.00    -0.003 A 
ATOM     16  C   LIG    1       -0.955  -1.113   0.005  0.00  0.00    +0.257 A 
ATOM     17  O   LIG    1       -2.168  -1.009   0.018  0.00  0.00    -0.267 OA
ATOM     18  C   LIG    1        2.468   0.060  -0.021  0.00  0.00    +0.038 A 
ENDROOT
BRANCH   1  20
ATOM     19  C   LIG    1        4.107   2.539  -1.296  0.00  0.00    +0.277 C 
ATOM     20  O   LIG    1        3.571   2.185  -0.020  0.00  0.00    -0.491 OA
ENDBRANCH   1  20
BRANCH   2  21
ATOM     21  O   LIG    1        1.139   3.452   0.009  0.00  0.00    -0.503 OA
ATOM     22  H   LIG    1        1.135   3.840   0.895  0.00  0.00    +0.292 HD
ENDBRANCH   2  21
BRANCH  13  23
ATOM     23  O   LIG    1        7.309  -0.472  -0.072  0.00  0.00    -0.507 OA
ATOM     24  H   LIG    1        7.660  -0.309  -0.958  0.00  0.00    +0.292 HD
ENDBRANCH  13  23
TORSDOF 3
