REMARK  Name = ZINC66112294
REMARK                            x       y       z     vdW  Elec       q    Type
REMARK                         _______ _______ _______ _____ _____    ______ ____
ROOT
ATOM      1  C   LIG    1        1.430  -2.359  -2.576  0.00  0.00    +0.188 C 
ATOM      2  C   LIG    1        2.829  -1.739  -2.661  0.00  0.00    +0.032 C 
ATOM      3  C   LIG    1        3.612  -2.412  -3.790  0.00  0.00    +0.003 C 
ATOM      4  C   LIG    1        3.764  -3.905  -3.489  0.00  0.00    +0.017 C 
ATOM      5  C   LIG    1        2.376  -4.549  -3.413  0.00  0.00    +0.110 C 
ATOM      6  N   LIG    1        1.563  -3.815  -2.433  0.00  0.00    -0.167 NA
ENDROOT
BRANCH   6   7
ATOM      7  S   LIG    1        0.816  -4.612  -1.189  0.00  0.00    +0.037 S 
ATOM      8  O   LIG    1        0.686  -5.952  -1.643  0.00  0.00    -0.158 OA
ATOM      9  O   LIG    1       -0.335  -3.832  -0.897  0.00  0.00    -0.158 OA
BRANCH   7  10
ATOM     10  C   LIG    1        1.992  -4.532   0.190  0.00  0.00    +0.220 C 
BRANCH  10  11
ATOM     11  C   LIG    1        1.409  -5.234   1.389  0.00  0.00    -0.025 A 
ATOM     12  C   LIG    1        0.642  -4.529   2.298  0.00  0.00    +0.005 A 
ATOM     13  C   LIG    1        0.108  -5.173   3.398  0.00  0.00    +0.000 A 
ATOM     14  C   LIG    1        0.340  -6.523   3.589  0.00  0.00    +0.000 A 
ATOM     15  C   LIG    1        1.106  -7.228   2.680  0.00  0.00    +0.000 A 
ATOM     16  C   LIG    1        1.637  -6.585   1.577  0.00  0.00    +0.005 A 
ENDBRANCH  10  11
ENDBRANCH   7  10
ENDBRANCH   6   7
BRANCH   1  17
ATOM     17  C   LIG    1        0.701  -1.798  -1.382  0.00  0.00    +0.326 C 
ATOM     18  O   LIG    1        1.088  -2.050  -0.265  0.00  0.00    -0.249 OA
BRANCH  17  19
ATOM     19  O   LIG    1       -0.378  -1.020  -1.559  0.00  0.00    -0.464 OA
BRANCH  19  21
ATOM     20  C   LIG    1       -2.220   0.338  -0.781  0.00  0.00    +0.048 C 
ATOM     21  C   LIG    1       -1.019  -0.523  -0.383  0.00  0.00    +0.229 C 
ENDBRANCH  19  21
ENDBRANCH  17  19
ENDBRANCH   1  17
TORSDOF 6
