REMARK  Name = ZINC00073700
REMARK                            x       y       z     vdW  Elec       q    Type
REMARK                         _______ _______ _______ _____ _____    ______ ____
ROOT
ATOM      1  C   LIG    1       -1.204   1.735   0.017  0.00  0.00    +0.015 A 
ATOM      2  C   LIG    1       -0.013   1.076   0.008  0.00  0.00    +0.047 A 
ATOM      3  C   LIG    1        1.190   1.784   0.000  0.00  0.00    +0.138 A 
ATOM      4  C   LIG    1        1.173   3.187   0.007  0.00  0.00    +0.063 A 
ATOM      5  C   LIG    1       -0.046   3.874   0.023  0.00  0.00    +0.150 A 
ATOM      6  O   LIG    1       -0.087   5.222   0.031  0.00  0.00    -0.421 OA
ATOM      7  C   LIG    1       -1.250   5.890   0.047  0.00  0.00    +0.337 A 
ATOM      8  O   LIG    1       -1.236   7.108   0.053  0.00  0.00    -0.245 OA
ATOM      9  C   LIG    1       -2.489   5.216   0.055  0.00  0.00    +0.092 A 
ATOM     10  C   LIG    1       -2.517   3.858   0.048  0.00  0.00    +0.018 A 
ATOM     11  C   LIG    1        2.581   3.600  -0.004  0.00  0.00    +0.053 A 
ATOM     12  C   LIG    1        3.300   2.469  -0.016  0.00  0.00    +0.196 A 
ATOM     13  O   LIG    1        2.482   1.401  -0.014  0.00  0.00    -0.463 OA
ATOM     14  C   LIG    1       -1.242   3.138   0.032  0.00  0.00    +0.018 A 
ENDROOT
TORSDOF 0
