REMARK  Name = ZINC13813297
REMARK                            x       y       z     vdW  Elec       q    Type
REMARK                         _______ _______ _______ _____ _____    ______ ____
ROOT
ATOM      1  C   LIG    1       -4.579  -2.076  -0.875  0.00  0.00    -0.040 A 
ATOM      2  C   LIG    1       -4.287  -1.073  -1.781  0.00  0.00    +0.004 A 
ATOM      3  C   LIG    1       -4.708  -1.179  -3.092  0.00  0.00    +0.009 A 
ATOM      4  C   LIG    1       -5.427  -2.299  -3.501  0.00  0.00    -0.018 A 
ATOM      5  C   LIG    1       -5.719  -3.307  -2.585  0.00  0.00    +0.009 A 
ATOM      6  C   LIG    1       -5.288  -3.194  -1.278  0.00  0.00    +0.004 A 
ENDROOT
BRANCH   4   7
ATOM      7  C   LIG    1       -5.882  -2.418  -4.909  0.00  0.00    -0.018 A 
ATOM      8  C   LIG    1       -5.587  -1.413  -5.827  0.00  0.00    +0.008 A 
ATOM      9  C   LIG    1       -6.012  -1.529  -7.135  0.00  0.00    +0.001 A 
ATOM     10  C   LIG    1       -6.731  -2.641  -7.535  0.00  0.00    +0.000 A 
ATOM     11  C   LIG    1       -7.027  -3.642  -6.627  0.00  0.00    +0.001 A 
ATOM     12  C   LIG    1       -6.602  -3.539  -5.319  0.00  0.00    +0.008 A 
ENDBRANCH   4   7
BRANCH   1  13
ATOM     13  C   LIG    1       -4.118  -1.955   0.554  0.00  0.00    +0.113 C 
BRANCH  13  18
ATOM     14  C   LIG    1        0.107   1.266  -0.192  0.00  0.00    +0.133 C 
ATOM     15  N   LIG    1       -0.119  -0.167   0.017  0.00  0.00    -0.288 N 
ATOM     16  C   LIG    1       -1.367  -0.628   0.232  0.00  0.00    +0.340 C 
ATOM     17  N   LIG    1       -1.563  -1.925   0.538  0.00  0.00    -0.147 N 
ATOM     18  C   LIG    1       -2.747  -2.565   0.693  0.00  0.00    +0.165 A 
ATOM     19  N   LIG    1       -2.479  -3.810   0.984  0.00  0.00    -0.113 NA
ATOM     20  N   LIG    1       -1.210  -4.003   1.026  0.00  0.00    -0.023 NA
ATOM     21  N   LIG    1       -0.582  -2.908   0.760  0.00  0.00    -0.035 NA
ATOM     22  O   LIG    1       -2.316   0.127   0.150  0.00  0.00    -0.247 OA
ATOM     23  C   LIG    1        1.011  -1.098  -0.009  0.00  0.00    +0.133 C 
ENDBRANCH  13  18
ENDBRANCH   1  13
TORSDOF 3
