REMARK  Name = ZINC14952759
REMARK                            x       y       z     vdW  Elec       q    Type
REMARK                         _______ _______ _______ _____ _____    ______ ____
ROOT
ATOM      1  C   LIG    1        0.597  -2.171  -1.030  0.00  0.00    +0.166 C 
ATOM      2  C   LIG    1        1.452  -2.675   0.131  0.00  0.00    +0.067 C 
ATOM      3  C   LIG    1        1.757  -4.142  -0.025  0.00  0.00    -0.040 A 
ATOM      4  C   LIG    1        2.139  -4.844   1.113  0.00  0.00    +0.006 A 
ATOM      5  C   LIG    1        2.442  -6.186   1.044  0.00  0.00    +0.025 A 
ATOM      6  C   LIG    1        2.366  -6.847  -0.176  0.00  0.00    +0.050 A 
ATOM      7  C   LIG    1        1.981  -6.149  -1.310  0.00  0.00    +0.030 A 
ATOM      8  C   LIG    1        1.672  -4.798  -1.233  0.00  0.00    -0.025 A 
ATOM      9  C   LIG    1        1.235  -4.105  -2.498  0.00  0.00    +0.144 C 
ATOM     10  N   LIG    1        1.202  -2.655  -2.283  0.00  0.00    -0.285 N 
ATOM     11  C   LIG    1        1.707  -1.799  -3.193  0.00  0.00    +0.217 C 
ATOM     12  O   LIG    1        1.758  -0.612  -2.948  0.00  0.00    -0.276 OA
ENDROOT
BRANCH   1  16
ATOM     13  C   LIG    1       -0.476   1.457  -1.612  0.00  0.00    +0.128 C 
ATOM     14  N   LIG    1       -0.449  -0.007  -1.616  0.00  0.00    -0.317 N 
ATOM     15  H   LIG    1       -1.164  -0.504  -2.044  0.00  0.00    +0.148 HD
ATOM     16  C   LIG    1        0.570  -0.664  -1.026  0.00  0.00    +0.234 C 
ATOM     17  O   LIG    1        1.463  -0.043  -0.492  0.00  0.00    -0.274 OA
ENDBRANCH   1  16
BRANCH   6  18
ATOM     18  N   LIG    1        2.676  -8.206  -0.259  0.00  0.00    -0.197 N 
ATOM     19  H   LIG    1        3.237  -8.533  -0.981  0.00  0.00    +0.176 HD
BRANCH  18  20
ATOM     20  S   LIG    1        2.086  -9.261   0.873  0.00  0.00    +0.164 S 
ATOM     21  O   LIG    1        2.493  -8.755   2.174  0.00  0.00    -0.127 OA
ATOM     22  O   LIG    1        2.675 -10.560   0.587  0.00  0.00    -0.127 OA
BRANCH  20  23
ATOM     23  O   LIG    1        0.639  -9.275   0.723  0.00  0.00    -0.238 OA
ATOM     24  H   LIG    1        0.408  -9.618  -0.154  0.00  0.00    +0.246 HD
ENDBRANCH  20  23
ENDBRANCH  18  20
ENDBRANCH   6  18
BRANCH  11  25
ATOM     25  C   LIG    1        2.208  -2.317  -4.517  0.00  0.00    +0.100 C 
BRANCH  25  26
ATOM     26  C   LIG    1        2.724  -1.148  -5.359  0.00  0.00    +0.044 C 
BRANCH  26  27
ATOM     27  C   LIG    1        3.225  -1.666  -6.683  0.00  0.00    -0.045 A 
ATOM     28  C   LIG    1        4.546  -2.053  -6.818  0.00  0.00    +0.004 A 
ATOM     29  C   LIG    1        5.010  -2.528  -8.031  0.00  0.00    +0.002 A 
ATOM     30  C   LIG    1        4.154  -2.618  -9.112  0.00  0.00    +0.024 A 
ATOM     31  C   LIG    1        2.827  -2.231  -8.979  0.00  0.00    +0.050 A 
ATOM     32  C   LIG    1        2.363  -1.759  -7.758  0.00  0.00    +0.028 A 
BRANCH  31  33
ATOM     33  N   LIG    1        1.959  -2.321 -10.070  0.00  0.00    -0.197 N 
ATOM     34  H   LIG    1        1.361  -1.586 -10.276  0.00  0.00    +0.176 HD
BRANCH  33  35
ATOM     35  S   LIG    1        1.952  -3.683 -11.012  0.00  0.00    +0.164 S 
ATOM     36  O   LIG    1        3.318  -3.889 -11.467  0.00  0.00    -0.127 OA
ATOM     37  O   LIG    1        1.044  -3.426 -12.119  0.00  0.00    -0.127 OA
BRANCH  35  38
ATOM     38  O   LIG    1        1.489  -4.776 -10.172  0.00  0.00    -0.238 OA
ATOM     39  H   LIG    1        0.577  -4.602  -9.889  0.00  0.00    +0.246 HD
ENDBRANCH  35  38
ENDBRANCH  33  35
ENDBRANCH  31  33
ENDBRANCH  26  27
ENDBRANCH  25  26
ENDBRANCH  11  25
TORSDOF 10
