REMARK  Name = ZINC19142618
REMARK                            x       y       z     vdW  Elec       q    Type
REMARK                         _______ _______ _______ _____ _____    ______ ____
ROOT
ATOM      1  C   LIG    1        3.098   3.727  -0.008  0.00  0.00    +0.000 A 
ATOM      2  C   LIG    1        3.455   2.391  -0.019  0.00  0.00    +0.002 A 
ATOM      3  C   LIG    1        2.486   1.410  -0.015  0.00  0.00    +0.023 A 
ATOM      4  C   LIG    1        1.137   1.759   0.001  0.00  0.00    +0.037 A 
ATOM      5  C   LIG    1        0.791   3.104   0.011  0.00  0.00    -0.013 A 
ATOM      6  C   LIG    1       -0.720   3.155   0.026  0.00  0.00    +0.135 C 
ATOM      7  C   LIG    1       -1.137   1.700   0.016  0.00  0.00    +0.226 C 
ATOM      8  O   LIG    1       -2.273   1.276   0.019  0.00  0.00    -0.275 OA
ATOM      9  N   LIG    1       -0.011   0.966   0.007  0.00  0.00    -0.285 N 
ATOM     10  H   LIG    1        0.002  -0.004   0.002  0.00  0.00    +0.155 HD
ATOM     11  C   LIG    1        1.760   4.082   0.007  0.00  0.00    +0.006 A 
ENDROOT
BRANCH   6  12
ATOM     12  C   LIG    1       -1.244   3.869  -1.221  0.00  0.00    +0.216 C 
BRANCH  12  13
ATOM     13  C   LIG    1       -2.751   3.906  -1.183  0.00  0.00    +0.323 C 
ATOM     14  O   LIG    1       -3.343   3.412  -0.253  0.00  0.00    -0.250 OA
BRANCH  13  15
ATOM     15  O   LIG    1       -3.433   4.488  -2.181  0.00  0.00    -0.480 OA
ATOM     16  H   LIG    1       -2.974   4.871  -2.902  0.00  0.00    +0.295 HD
ENDBRANCH  13  15
ENDBRANCH  12  13
BRANCH  12  17
ATOM     17  C   LIG    1       -0.721   5.244  -1.256  0.00  0.00    +0.078 C 
ATOM     18  N   LIG    1       -0.316   6.306  -1.283  0.00  0.00    -0.196 NA
ENDBRANCH  12  17
ENDBRANCH   6  12
TORSDOF 4
