REMARK  Name = ZINC18324776
REMARK                            x       y       z     vdW  Elec       q    Type
REMARK                         _______ _______ _______ _____ _____    ______ ____
ROOT
ATOM      1  C   LIG    1       -1.354  -3.220   4.773  0.00  0.00    +0.062 A 
ATOM      2  C   LIG    1       -1.325  -4.242   5.723  0.00  0.00    +0.043 A 
ATOM      3  C   LIG    1       -1.318  -3.932   7.067  0.00  0.00    +0.106 A 
ATOM      4  C   LIG    1       -1.338  -2.610   7.478  0.00  0.00    +0.032 A 
ATOM      5  C   LIG    1       -1.366  -1.589   6.548  0.00  0.00    +0.048 A 
ATOM      6  C   LIG    1       -1.368  -1.884   5.194  0.00  0.00    +0.131 A 
ENDROOT
BRANCH   1  16
ATOM      7  C   LIG    1       -1.413  -2.041   0.005  0.00  0.00    +0.132 A 
ATOM      8  N   LIG    1       -1.407  -2.793  -1.071  0.00  0.00    -0.235 NA
ATOM      9  C   LIG    1       -1.388  -4.080  -0.721  0.00  0.00    +0.071 A 
ATOM     10  C   LIG    1       -1.376  -5.259  -1.660  0.00  0.00    +0.068 C 
ATOM     11  C   LIG    1       -1.381  -4.132   0.650  0.00  0.00    +0.152 A 
ATOM     12  C   LIG    1       -1.362  -5.208   1.641  0.00  0.00    +0.278 A 
ATOM     13  O   LIG    1       -1.348  -6.375   1.295  0.00  0.00    -0.265 OA
ATOM     14  N   LIG    1       -1.347  -4.871   2.950  0.00  0.00    -0.304 N 
ATOM     15  H   LIG    1       -1.331  -5.567   3.626  0.00  0.00    +0.170 HD
ATOM     16  C   LIG    1       -1.362  -3.545   3.332  0.00  0.00    +0.165 A 
ATOM     17  N   LIG    1       -1.383  -2.570   2.470  0.00  0.00    -0.146 NA
ATOM     18  N   LIG    1       -1.392  -2.821   1.095  0.00  0.00    -0.210 N 
BRANCH   7  19
ATOM     19  C   LIG    1       -1.433  -0.534   0.013  0.00  0.00    +0.076 C 
BRANCH  19  21
ATOM     20  C   LIG    1       -0.019   1.526   0.010  0.00  0.00    +0.004 C 
ATOM     21  C   LIG    1        0.002  -0.004   0.002  0.00  0.00    +0.004 C 
ENDBRANCH  19  21
ENDBRANCH   7  19
ENDBRANCH   1  16
BRANCH   3  22
ATOM     22  S   LIG    1       -1.283  -5.223   8.265  0.00  0.00    +0.061 S 
ATOM     23  O   LIG    1       -1.819  -6.378   7.633  0.00  0.00    -0.153 OA
ATOM     24  O   LIG    1       -1.832  -4.684   9.460  0.00  0.00    -0.153 OA
BRANCH  22  25
ATOM     25  N   LIG    1        0.309  -5.553   8.582  0.00  0.00    -0.180 NA
ATOM     26  C   LIG    1        1.044  -6.558   7.798  0.00  0.00    +0.091 C 
ATOM     27  C   LIG    1        2.356  -5.932   7.315  0.00  0.00    -0.061 C 
ATOM     28  N   LIG    1        3.097  -5.401   8.466  0.00  0.00    +0.381 N 
ATOM     29  H   LIG    1        3.236  -6.136   9.143  0.00  0.00    -0.082 HD
ATOM     30  C   LIG    1        2.341  -4.305   9.085  0.00  0.00    -0.061 C 
ATOM     31  C   LIG    1        1.029  -4.846   9.652  0.00  0.00    +0.091 C 
BRANCH  28  32
ATOM     32  C   LIG    1        4.403  -4.899   8.017  0.00  0.00    -0.082 C 
ATOM     33  C   LIG    1        5.225  -4.460   9.230  0.00  0.00    -0.017 C 
ENDBRANCH  28  32
ENDBRANCH  22  25
ENDBRANCH   3  22
BRANCH   6  34
ATOM     34  O   LIG    1       -1.390  -0.881   4.278  0.00  0.00    -0.492 OA
BRANCH  34  35
ATOM     35  C   LIG    1       -1.404   0.456   4.781  0.00  0.00    +0.226 C 
ATOM     36  C   LIG    1       -1.428   1.441   3.610  0.00  0.00    +0.048 C 
ENDBRANCH  34  35
ENDBRANCH   6  34
TORSDOF 8
