REMARK  Name = ZINC43012196
REMARK                            x       y       z     vdW  Elec       q    Type
REMARK                         _______ _______ _______ _____ _____    ______ ____
ROOT
ATOM      1  N   LIG    1        0.058  -4.170  -0.021  0.00  0.00    -0.269 N 
ATOM      2  H   LIG    1       -0.018  -4.651  -0.860  0.00  0.00    +0.156 HD
ATOM      3  C   LIG    1        0.174  -4.849   1.138  0.00  0.00    +0.307 C 
ATOM      4  N   LIG    1        0.294  -6.191   1.123  0.00  0.00    -0.279 N 
ATOM      5  C   LIG    1        0.325  -7.097  -0.051  0.00  0.00    +0.080 C 
ATOM      6  C   LIG    1       -0.550  -8.299   0.372  0.00  0.00    +0.024 C 
ATOM      7  C   LIG    1       -0.483  -8.310   1.914  0.00  0.00    +0.024 C 
ATOM      8  C   LIG    1        1.773  -7.584  -0.213  0.00  0.00    +0.049 C 
ATOM      9  C   LIG    1        2.139  -8.428   1.019  0.00  0.00    +0.139 C 
ATOM     10  C   LIG    1        1.885  -7.613   2.290  0.00  0.00    +0.049 C 
ATOM     11  C   LIG    1        0.432  -7.112   2.277  0.00  0.00    +0.080 C 
ATOM     12  O   LIG    1        0.172  -4.250   2.196  0.00  0.00    -0.252 OA
ENDROOT
BRANCH   1  17
ATOM     13  C   LIG    1        0.011   1.503   0.007  0.00  0.00    +0.044 C 
ATOM     14  C   LIG    1        0.024  -0.004  -0.000  0.00  0.00    -0.050 A 
ATOM     15  C   LIG    1        0.779  -0.692   0.931  0.00  0.00    +0.005 A 
ATOM     16  C   LIG    1        0.792  -2.073   0.927  0.00  0.00    +0.023 A 
ATOM     17  C   LIG    1        0.046  -2.771  -0.014  0.00  0.00    +0.035 A 
ATOM     18  C   LIG    1       -0.711  -2.076  -0.948  0.00  0.00    +0.023 A 
ATOM     19  C   LIG    1       -0.725  -0.695  -0.935  0.00  0.00    +0.005 A 
ENDBRANCH   1  17
BRANCH   9  20
ATOM     20  S   LIG    1        3.895  -8.877   0.930  0.00  0.00    -0.000 S 
ATOM     21  O   LIG    1        4.192  -9.883   1.888  0.00  0.00    -0.169 OA
ATOM     22  O   LIG    1        4.694  -7.706   0.838  0.00  0.00    -0.169 OA
BRANCH  20  23
ATOM     23  C   LIG    1        4.081  -9.673  -0.631  0.00  0.00    +0.088 A 
ATOM     24  C   LIG    1        3.904 -11.040  -0.735  0.00  0.00    +0.027 A 
ATOM     25  C   LIG    1        4.050 -11.665  -1.959  0.00  0.00    +0.002 A 
ATOM     26  C   LIG    1        4.372 -10.922  -3.080  0.00  0.00    +0.000 A 
ATOM     27  C   LIG    1        4.548  -9.555  -2.976  0.00  0.00    +0.002 A 
ATOM     28  C   LIG    1        4.397  -8.930  -1.752  0.00  0.00    +0.027 A 
ENDBRANCH  20  23
ENDBRANCH   9  20
TORSDOF 3
