REMARK  Name = ZINC36410989
REMARK                            x       y       z     vdW  Elec       q    Type
REMARK                         _______ _______ _______ _____ _____    ______ ____
ROOT
ATOM      1  C   LIG    1        3.044  -8.491   1.023  0.00  0.00    +0.190 C 
ENDROOT
BRANCH   1   6
ATOM      2  N   LIG    1        0.829  -4.507  -0.931  0.00  0.00    -0.296 NA
ATOM      3  C   LIG    1        1.504  -5.210  -2.030  0.00  0.00    +0.103 C 
ATOM      4  C   LIG    1        1.274  -6.718  -1.886  0.00  0.00    +0.123 C 
ATOM      5  N   LIG    1        1.692  -7.127  -0.536  0.00  0.00    -0.297 N 
ATOM      6  C   LIG    1        2.537  -8.161  -0.358  0.00  0.00    +0.241 C 
ATOM      7  O   LIG    1        2.891  -8.826  -1.308  0.00  0.00    -0.273 OA
ATOM      8  C   LIG    1        1.162  -6.378   0.613  0.00  0.00    +0.123 C 
ATOM      9  C   LIG    1        1.397  -4.883   0.370  0.00  0.00    +0.103 C 
BRANCH   2  14
ATOM     10  C   LIG    1       -0.645   0.886  -1.799  0.00  0.00    +0.104 C 
ATOM     11  N   LIG    1       -0.507  -0.561  -1.588  0.00  0.00    -0.305 NA
ATOM     12  C   LIG    1        0.281  -1.177  -2.664  0.00  0.00    +0.085 C 
ATOM     13  C   LIG    1        0.281  -2.698  -2.491  0.00  0.00    +0.034 C 
ATOM     14  C   LIG    1        0.880  -3.052  -1.127  0.00  0.00    +0.059 C 
ATOM     15  C   LIG    1        0.070  -2.359  -0.028  0.00  0.00    +0.034 C 
ATOM     16  C   LIG    1        0.077  -0.848  -0.272  0.00  0.00    +0.085 C 
ENDBRANCH   2  14
ENDBRANCH   1   6
BRANCH   1  17
ATOM     17  C   LIG    1        2.053  -9.386   1.721  0.00  0.00    -0.018 A 
ATOM     18  C   LIG    1        1.930 -10.710   1.343  0.00  0.00    +0.006 A 
ATOM     19  C   LIG    1        1.021 -11.530   1.983  0.00  0.00    +0.000 A 
ATOM     20  C   LIG    1        0.234 -11.028   3.002  0.00  0.00    +0.000 A 
ATOM     21  C   LIG    1        0.357  -9.704   3.382  0.00  0.00    +0.000 A 
ATOM     22  C   LIG    1        1.270  -8.884   2.744  0.00  0.00    +0.006 A 
ENDBRANCH   1  17
BRANCH   1  23
ATOM     23  N   LIG    1        4.333  -9.178   0.919  0.00  0.00    -0.296 N 
ATOM     24  H   LIG    1        4.558  -9.668   0.112  0.00  0.00    +0.150 HD
ATOM     25  C   LIG    1        5.207  -9.130   1.943  0.00  0.00    +0.245 C 
ATOM     26  O   LIG    1        4.926  -8.516   2.954  0.00  0.00    -0.270 OA
BRANCH  25  27
ATOM     27  C   LIG    1        6.507  -9.822   1.839  0.00  0.00    +0.039 A 
ATOM     28  C   LIG    1        6.830 -10.524   0.669  0.00  0.00    +0.014 A 
ATOM     29  C   LIG    1        8.026 -11.168   0.560  0.00  0.00    +0.011 A 
ATOM     30  C   LIG    1        8.939 -11.129   1.619  0.00  0.00    -0.000 A 
ATOM     31  C   LIG    1       10.272 -11.693   1.829  0.00  0.00    +0.027 A 
ATOM     32  C   LIG    1       10.669 -11.320   3.058  0.00  0.00    +0.083 A 
ATOM     33  N   LIG    1        9.699 -10.564   3.652  0.00  0.00    -0.361 N 
ATOM     34  H   LIG    1        9.758 -10.180   4.541  0.00  0.00    +0.165 HD
ATOM     35  C   LIG    1        8.625 -10.426   2.800  0.00  0.00    +0.047 A 
ATOM     36  C   LIG    1        7.407  -9.770   2.900  0.00  0.00    +0.039 A 
ENDBRANCH  25  27
ENDBRANCH   1  23
TORSDOF 5
