REMARK  Name = ZINC28641215
REMARK                            x       y       z     vdW  Elec       q    Type
REMARK                         _______ _______ _______ _____ _____    ______ ____
ROOT
ATOM      1  C   LIG    1       -1.183  -0.709  -0.004  0.00  0.00    +0.136 A 
ATOM      2  C   LIG    1       -1.181  -2.117  -0.104  0.00  0.00    +0.094 A 
ATOM      3  C   LIG    1       -2.412  -2.783  -0.077  0.00  0.00    +0.131 A 
ATOM      4  N   LIG    1       -3.521  -2.076   0.040  0.00  0.00    -0.222 NA
ATOM      5  C   LIG    1       -3.485  -0.752   0.131  0.00  0.00    +0.217 A 
ATOM      6  N   LIG    1       -2.345  -0.077   0.116  0.00  0.00    -0.199 NA
ENDROOT
BRANCH   2   7
ATOM      7  C   LIG    1        0.080  -2.865  -0.233  0.00  0.00    +0.246 C 
ATOM      8  N   LIG    1        0.056  -4.196  -0.442  0.00  0.00    -0.325 N 
ATOM      9  H   LIG    1       -0.906  -4.724  -0.516  0.00  0.00    +0.145 HD
ATOM     10  H   LIG    1        0.999  -4.755  -0.538  0.00  0.00    +0.145 HD
ATOM     11  O   LIG    1        1.144  -2.281  -0.152  0.00  0.00    -0.270 OA
ENDBRANCH   2   7
BRANCH   1  12
ATOM     12  N   LIG    1        0.001  -0.002  -0.025  0.00  0.00    -0.324 N 
ATOM     13  H   LIG    1        0.961  -0.538  -0.032  0.00  0.00    +0.148 HD
BRANCH  12  14
ATOM     14  C   LIG    1       -0.021   1.463  -0.040  0.00  0.00    +0.138 C 
BRANCH  14  18
ATOM     15  C   LIG    1        3.985   2.945  -0.102  0.00  0.00    +0.000 A 
ATOM     16  C   LIG    1        3.322   2.693  -1.289  0.00  0.00    +0.000 A 
ATOM     17  C   LIG    1        2.026   2.213  -1.269  0.00  0.00    +0.005 A 
ATOM     18  C   LIG    1        1.392   1.986  -0.062  0.00  0.00    -0.030 A 
ATOM     19  C   LIG    1        2.053   2.243   1.125  0.00  0.00    +0.005 A 
ATOM     20  C   LIG    1        3.351   2.717   1.105  0.00  0.00    +0.000 A 
ENDBRANCH  14  18
ENDBRANCH  12  14
ENDBRANCH   1  12
BRANCH   5  21
ATOM     21  N   LIG    1       -4.671  -0.058   0.252  0.00  0.00    -0.313 N 
ATOM     22  H   LIG    1       -4.661   1.039   0.329  0.00  0.00    +0.149 HD
BRANCH  21  23
ATOM     23  C   LIG    1       -5.944  -0.783   0.277  0.00  0.00    +0.109 C 
BRANCH  23  24
ATOM     24  C   LIG    1       -7.096   0.215   0.417  0.00  0.00    +0.054 C 
BRANCH  24  25
ATOM     25  C   LIG    1       -8.406  -0.530   0.443  0.00  0.00    -0.044 A 
ATOM     26  C   LIG    1       -9.080  -0.782  -0.738  0.00  0.00    +0.007 A 
ATOM     27  C   LIG    1      -10.278  -1.470  -0.718  0.00  0.00    +0.047 A 
ATOM     28  C   LIG    1      -10.810  -1.898   0.489  0.00  0.00    +0.135 A 
ATOM     29  C   LIG    1      -10.135  -1.639   1.674  0.00  0.00    +0.083 A 
ATOM     30 CL   LIG    1      -10.798  -2.173   3.187  0.00  0.00    -0.080 Cl
ATOM     31  C   LIG    1       -8.934  -0.956   1.647  0.00  0.00    +0.027 A 
BRANCH  28  32
ATOM     32  O   LIG    1      -11.992  -2.570   0.512  0.00  0.00    -0.505 OA
ATOM     33  H   LIG    1      -12.414  -2.909   1.469  0.00  0.00    +0.292 HD
ENDBRANCH  28  32
ENDBRANCH  24  25
ENDBRANCH  23  24
ENDBRANCH  21  23
ENDBRANCH   5  21
TORSDOF 9
