REMARK  Name = ZINC28099433
REMARK                            x       y       z     vdW  Elec       q    Type
REMARK                         _______ _______ _______ _____ _____    ______ ____
ROOT
ATOM      1  C   LIG    1       -3.800   6.032   0.054  0.00  0.00    +0.001 A 
ATOM      2  C   LIG    1       -4.989   5.306   0.056  0.00  0.00    +0.001 A 
ATOM      3  C   LIG    1       -4.979   3.945   0.048  0.00  0.00    +0.008 A 
ATOM      4  C   LIG    1       -3.754   3.257   0.038  0.00  0.00    -0.014 A 
ATOM      5  C   LIG    1       -3.713   1.852   0.030  0.00  0.00    +0.054 A 
ATOM      6  C   LIG    1       -2.512   1.206   0.021  0.00  0.00    +0.130 A 
ATOM      7  C   LIG    1       -1.302   1.932   0.019  0.00  0.00    +0.081 A 
ATOM      8  C   LIG    1       -1.316   3.317   0.032  0.00  0.00    +0.025 A 
ATOM      9  C   LIG    1       -2.543   3.996   0.036  0.00  0.00    -0.017 A 
ATOM     10  C   LIG    1       -2.594   5.402   0.044  0.00  0.00    +0.008 A 
ENDROOT
BRANCH   7  11
ATOM     11  C   LIG    1       -0.014   1.212   0.009  0.00  0.00    +0.270 C 
ATOM     12  N   LIG    1        1.143   1.901   0.001  0.00  0.00    -0.193 N 
ATOM     13  H   LIG    1        1.129   3.001   0.008  0.00  0.00    +0.183 HD
ATOM     14  O   LIG    1        0.002  -0.004   0.002  0.00  0.00    -0.268 OA
BRANCH  12  15
ATOM     15  O   LIG    1        2.379   1.210  -0.014  0.00  0.00    -0.295 OA
ATOM     16  H   LIG    1        3.324   1.773  -0.020  0.00  0.00    +0.241 HD
ENDBRANCH  12  15
ENDBRANCH   7  11
BRANCH   6  17
ATOM     17  O   LIG    1       -2.480  -0.151   0.013  0.00  0.00    -0.506 OA
ATOM     18  H   LIG    1       -1.515  -0.679   0.006  0.00  0.00    +0.292 HD
ENDBRANCH   6  17
TORSDOF 3
