REMARK  Name = ZINC00030817
REMARK                            x       y       z     vdW  Elec       q    Type
REMARK                         _______ _______ _______ _____ _____    ______ ____
ROOT
ATOM      1  C   LIG    1        5.929   2.503   2.959  0.00  0.00    +0.034 A 
ATOM      2  C   LIG    1        5.087   2.084   3.980  0.00  0.00    +0.025 A 
ATOM      3  C   LIG    1        5.517   2.133   5.292  0.00  0.00    +0.030 A 
ATOM      4  C   LIG    1        6.785   2.598   5.588  0.00  0.00    +0.105 A 
ATOM      5  C   LIG    1        7.626   3.017   4.574  0.00  0.00    +0.030 A 
ATOM      6  C   LIG    1        7.204   2.965   3.260  0.00  0.00    +0.025 A 
ENDROOT
BRANCH   1   8
ATOM      7  C   LIG    1        6.370   2.155   0.647  0.00  0.00    +0.222 C 
ATOM      8  N   LIG    1        5.497   2.455   1.629  0.00  0.00    -0.285 N 
ATOM      9  H   LIG    1        4.569   2.637   1.414  0.00  0.00    +0.155 HD
ATOM     10  O   LIG    1        7.546   2.010   0.904  0.00  0.00    -0.275 OA
BRANCH   7  11
ATOM     11  C   LIG    1        5.884   2.001  -0.771  0.00  0.00    +0.138 C 
BRANCH  11  14
ATOM     12  C   LIG    1        8.635   0.389  -2.856  0.00  0.00    +0.008 A 
ATOM     13  C   LIG    1        7.545   0.454  -2.008  0.00  0.00    +0.011 A 
ATOM     14  C   LIG    1        7.049   1.669  -1.668  0.00  0.00    -0.001 A 
ATOM     15  S   LIG    1        8.134   2.773  -2.558  0.00  0.00    -0.101 S 
ATOM     16  C   LIG    1        9.175   1.541  -3.323  0.00  0.00    +0.045 A 
ENDBRANCH  11  14
ENDBRANCH   7  11
ENDBRANCH   1   8
BRANCH   4  17
ATOM     17  S   LIG    1        7.329   2.659   7.263  0.00  0.00    +0.056 S 
ATOM     18  O   LIG    1        6.160   2.725   8.068  0.00  0.00    -0.153 OA
ATOM     19  O   LIG    1        8.352   3.644   7.322  0.00  0.00    -0.153 OA
BRANCH  17  20
ATOM     20  N   LIG    1        8.051   1.206   7.596  0.00  0.00    -0.204 NA
ATOM     21  H   LIG    1        8.421   1.039   8.477  0.00  0.00    +0.144 HD
ATOM     22  H   LIG    1        8.104   0.522   6.910  0.00  0.00    +0.144 HD
ENDBRANCH  17  20
ENDBRANCH   4  17
TORSDOF 5
