REMARK  Name = ZINC34162068
REMARK                            x       y       z     vdW  Elec       q    Type
REMARK                         _______ _______ _______ _____ _____    ______ ____
ROOT
ATOM      1  C   LIG    1       -0.012  -2.830  -0.005  0.00  0.00    +0.252 C 
ATOM      2  N   LIG    1       -0.072  -4.176  -0.019  0.00  0.00    -0.278 N 
ATOM      3  H   LIG    1       -0.930  -4.624   0.054  0.00  0.00    +0.155 HD
ATOM      4  O   LIG    1        1.067  -2.270  -0.016  0.00  0.00    -0.270 OA
ENDROOT
BRANCH   1  11
ATOM      5  C   LIG    1       -1.196  -0.636   0.036  0.00  0.00    +0.132 A 
ATOM      6  C   LIG    1       -2.371   0.101   0.057  0.00  0.00    +0.048 A 
ATOM      7  C   LIG    1       -3.592  -0.543   0.069  0.00  0.00    +0.023 A 
ATOM      8  C   LIG    1       -3.655  -1.928   0.060  0.00  0.00    +0.042 A 
ATOM      9 CL   LIG    1       -5.198  -2.723   0.075  0.00  0.00    -0.084 Cl
ATOM     10  C   LIG    1       -2.497  -2.676   0.039  0.00  0.00    +0.036 A 
ATOM     11  C   LIG    1       -1.255  -2.036   0.022  0.00  0.00    +0.080 A 
BRANCH   5  13
ATOM     12  C   LIG    1       -0.015   1.425   0.041  0.00  0.00    +0.277 C 
ATOM     13  O   LIG    1        0.004  -0.004   0.025  0.00  0.00    -0.494 OA
ENDBRANCH   5  13
ENDBRANCH   1  11
BRANCH   2  14
ATOM     14  C   LIG    1        1.103  -4.929  -0.140  0.00  0.00    +0.077 A 
ATOM     15  C   LIG    1        2.279  -4.480   0.443  0.00  0.00    +0.047 A 
ATOM     16  C   LIG    1        3.438  -5.225   0.322  0.00  0.00    +0.043 A 
ATOM     17 CL   LIG    1        4.909  -4.662   1.051  0.00  0.00    -0.083 Cl
ATOM     18  C   LIG    1        3.427  -6.419  -0.378  0.00  0.00    +0.023 A 
ATOM     19  C   LIG    1        2.258  -6.872  -0.961  0.00  0.00    +0.049 A 
ATOM     20  C   LIG    1        1.091  -6.133  -0.840  0.00  0.00    +0.138 A 
BRANCH  20  21
ATOM     21  O   LIG    1       -0.060  -6.581  -1.407  0.00  0.00    -0.505 OA
ATOM     22  H   LIG    1       -0.194  -6.280  -2.317  0.00  0.00    +0.292 HD
ENDBRANCH  20  21
ENDBRANCH   2  14
TORSDOF 4
