REMARK  Name = ZINC48106602
REMARK                            x       y       z     vdW  Elec       q    Type
REMARK                         _______ _______ _______ _____ _____    ______ ____
ROOT
ATOM      1  N   LIG    1       -2.325  -2.827  -0.002  0.00  0.00    -0.326 N 
ATOM      2  H   LIG    1       -2.288  -3.796  -0.007  0.00  0.00    +0.148 HD
ENDROOT
BRANCH   1   6
ATOM      3  C   LIG    1       -0.018   1.503   0.010  0.00  0.00    +0.066 C 
ATOM      4  C   LIG    1        0.002  -0.004   0.002  0.00  0.00    +0.045 A 
ATOM      5  C   LIG    1       -1.197  -0.712   0.004  0.00  0.00    +0.066 A 
ATOM      6  C   LIG    1       -1.160  -2.093  -0.004  0.00  0.00    +0.126 A 
ATOM      7  N   LIG    1        0.055  -2.716  -0.013  0.00  0.00    -0.183 N 
ATOM      8  C   LIG    1        1.205  -1.979  -0.015  0.00  0.00    +0.255 A 
ATOM      9  N   LIG    1        2.220  -2.837  -0.024  0.00  0.00    -0.197 NA
ATOM     10  C   LIG    1        1.756  -4.080  -0.028  0.00  0.00    +0.247 A 
ATOM     11  N   LIG    1        0.446  -4.061  -0.022  0.00  0.00    -0.151 NA
ATOM     12  N   LIG    1        1.153  -0.642  -0.012  0.00  0.00    -0.216 NA
ENDBRANCH   1   6
BRANCH   1  13
ATOM     13  C   LIG    1       -3.621  -2.143   0.009  0.00  0.00    +0.076 C 
ATOM     14  C   LIG    1       -4.688  -3.068   0.608  0.00  0.00    +0.027 C 
ATOM     15  C   LIG    1       -5.962  -2.255   0.827  0.00  0.00    +0.037 C 
ATOM     16  C   LIG    1       -6.341  -1.516  -0.430  0.00  0.00    -0.044 A 
ATOM     17  C   LIG    1       -7.644  -1.045  -0.535  0.00  0.00    +0.004 A 
ATOM     18  C   LIG    1       -8.051  -0.356  -1.659  0.00  0.00    +0.000 A 
ATOM     19  C   LIG    1       -7.157  -0.132  -2.689  0.00  0.00    +0.000 A 
ATOM     20  C   LIG    1       -5.864  -0.602  -2.588  0.00  0.00    +0.004 A 
ATOM     21  C   LIG    1       -5.452  -1.299  -1.459  0.00  0.00    -0.042 A 
ATOM     22  C   LIG    1       -4.031  -1.796  -1.421  0.00  0.00    +0.057 C 
ENDBRANCH   1  13
TORSDOF 2
