REMARK  Name = ZINC14966687
REMARK                            x       y       z     vdW  Elec       q    Type
REMARK                         _______ _______ _______ _____ _____    ______ ____
ROOT
ATOM      1  C   LIG    1       -0.070   5.347   0.030  0.00  0.00    +0.158 C 
ENDROOT
BRANCH   1   2
ATOM      2  C   LIG    1       -0.050   3.840   0.022  0.00  0.00    -0.017 A 
ATOM      3  C   LIG    1       -1.238   3.133   0.029  0.00  0.00    +0.006 A 
ATOM      4  C   LIG    1       -1.219   1.751   0.017  0.00  0.00    +0.001 A 
ATOM      5  C   LIG    1       -0.013   1.076   0.008  0.00  0.00    +0.012 A 
ATOM      6  C   LIG    1        1.175   1.783   0.000  0.00  0.00    +0.055 A 
ATOM      7  C   LIG    1        1.156   3.166   0.008  0.00  0.00    +0.018 A 
BRANCH   6   8
ATOM      8  C   LIG    1        2.490   1.047  -0.016  0.00  0.00    +0.417 C 
ATOM      9  F   LIG    1        3.230   1.390   1.121  0.00  0.00    -0.166 F 
ATOM     10  F   LIG    1        3.208   1.401  -1.163  0.00  0.00    -0.166 F 
ATOM     11  F   LIG    1        2.253  -0.331  -0.020  0.00  0.00    -0.166 F 
ENDBRANCH   6   8
ENDBRANCH   1   2
BRANCH   1  12
ATOM     12  O   LIG    1       -1.187   5.812  -0.730  0.00  0.00    -0.386 OA
ATOM     13  H   LIG    1       -1.275   5.551  -1.795  0.00  0.00    +0.210 HD
ENDBRANCH   1  12
BRANCH   1  14
ATOM     14  C   LIG    1       -0.190   5.848   1.471  0.00  0.00    +0.117 C 
BRANCH  14  15
ATOM     15  N   LIG    1       -0.210   7.317   1.478  0.00  0.00    -0.309 NA
ATOM     16  H   LIG    1       -1.069   7.661   0.884  0.00  0.00    +0.122 HD
BRANCH  15  17
ATOM     17  C   LIG    1       -0.325   7.835   2.849  0.00  0.00    +0.116 C 
BRANCH  17  21
ATOM     18  C   LIG    1       -0.374  12.105   2.757  0.00  0.00    +0.000 A 
ATOM     19  C   LIG    1       -1.559  11.398   2.679  0.00  0.00    +0.000 A 
ATOM     20  C   LIG    1       -1.543  10.017   2.708  0.00  0.00    +0.005 A 
ATOM     21  C   LIG    1       -0.342   9.341   2.816  0.00  0.00    -0.034 A 
ATOM     22  C   LIG    1        0.843  10.048   2.901  0.00  0.00    +0.005 A 
ATOM     23  C   LIG    1        0.828  11.430   2.866  0.00  0.00    +0.000 A 
ENDBRANCH  17  21
ENDBRANCH  15  17
ENDBRANCH  14  15
ENDBRANCH   1  14
TORSDOF 7
