REMARK  Name = ZINC14951272
REMARK                            x       y       z     vdW  Elec       q    Type
REMARK                         _______ _______ _______ _____ _____    ______ ____
ROOT
ATOM      1  C   LIG    1        2.421   1.510   0.009  0.00  0.00    +0.079 A 
ATOM      2  C   LIG    1        3.244   1.971  -0.974  0.00  0.00    +0.055 A 
ATOM      3  C   LIG    1        4.586   1.553  -1.032  0.00  0.00    +0.082 A 
ATOM      4  N   LIG    1        5.391   2.002  -1.980  0.00  0.00    -0.171 NA
ATOM      5  C   LIG    1        6.669   1.591  -2.026  0.00  0.00    +0.325 C 
ATOM      6  C   LIG    1        7.171   0.625  -1.001  0.00  0.00    +0.325 C 
ATOM      7  N   LIG    1        6.333   0.178  -0.040  0.00  0.00    -0.171 NA
ATOM      8  O   LIG    1        8.324   0.245  -1.032  0.00  0.00    -0.263 OA
ATOM      9  O   LIG    1        7.412   2.001  -2.896  0.00  0.00    -0.263 OA
ATOM     10  C   LIG    1        5.087   0.593  -0.013  0.00  0.00    +0.082 A 
ATOM     11  C   LIG    1        4.163   0.119   1.023  0.00  0.00    +0.061 A 
ATOM     12  C   LIG    1        2.889   0.566   1.022  0.00  0.00    +0.147 A 
ENDROOT
BRANCH   1  17
ATOM     13  C   LIG    1       -0.969   2.367  -0.501  0.00  0.00    +0.102 A 
ATOM     14  N   LIG    1       -0.750   2.820   0.743  0.00  0.00    -0.352 N 
ATOM     15  H   LIG    1       -1.448   3.284   1.337  0.00  0.00    +0.166 HD
ATOM     16  C   LIG    1        0.486   2.579   1.081  0.00  0.00    +0.178 A 
ATOM     17  N   LIG    1        1.101   1.944   0.046  0.00  0.00    -0.305 N 
ATOM     18  C   LIG    1        0.171   1.814  -0.954  0.00  0.00    +0.110 A 
ENDBRANCH   1  17
BRANCH  12  19
ATOM     19  N   LIG    1        1.950   0.092   2.064  0.00  0.00    +0.008 N 
ATOM     20  O   LIG    1        2.357  -0.596   2.983  0.00  0.00    -0.130 OA
BRANCH  19  21
ATOM     21  O   LIG    1        0.770   0.390   2.002  0.00  0.00    -0.396 OA
ATOM     22  H   LIG    1        0.457   0.919   1.295  0.00  0.00    +0.329 HD
ENDBRANCH  19  21
ENDBRANCH  12  19
TORSDOF 3
