REMARK  Name = ZINC38428237
REMARK                            x       y       z     vdW  Elec       q    Type
REMARK                         _______ _______ _______ _____ _____    ______ ____
ROOT
ATOM      1  C   LIG    1        0.370  -3.674  -2.241  0.00  0.00    +0.086 C 
ENDROOT
BRANCH   1   2
ATOM      2  N   LIG    1        0.953  -2.876  -1.154  0.00  0.00    -0.312 NA
ATOM      3  H   LIG    1        1.183  -1.946  -1.471  0.00  0.00    +0.122 HD
BRANCH   2   4
ATOM      4  C   LIG    1        0.052  -2.828   0.005  0.00  0.00    +0.120 C 
BRANCH   4  10
ATOM      5  C   LIG    1        0.626  -0.618   1.042  0.00  0.00    +0.124 A 
ATOM      6  C   LIG    1        1.202   0.139   2.051  0.00  0.00    +0.046 A 
ATOM      7  C   LIG    1        1.835  -0.488   3.107  0.00  0.00    +0.004 A 
ATOM      8  C   LIG    1        1.895  -1.869   3.158  0.00  0.00    +0.001 A 
ATOM      9  C   LIG    1        1.321  -2.625   2.153  0.00  0.00    +0.008 A 
ATOM     10  C   LIG    1        0.682  -2.003   1.097  0.00  0.00    +0.008 A 
BRANCH   5  12
ATOM     11  C   LIG    1       -0.017   1.425   0.010  0.00  0.00    +0.277 C 
ATOM     12  O   LIG    1        0.002  -0.004   0.002  0.00  0.00    -0.495 OA
ENDBRANCH   5  12
ENDBRANCH   4  10
ENDBRANCH   2   4
ENDBRANCH   1   2
BRANCH   1  13
ATOM     13  C   LIG    1        1.335  -3.699  -3.429  0.00  0.00    +0.054 C 
BRANCH  13  14
ATOM     14  C   LIG    1        0.737  -4.518  -4.544  0.00  0.00    -0.001 A 
ATOM     15  C   LIG    1        1.060  -5.856  -4.669  0.00  0.00    +0.054 A 
ATOM     16  C   LIG    1        0.510  -6.609  -5.695  0.00  0.00    +0.134 A 
ATOM     17  C   LIG    1       -0.365  -6.019  -6.596  0.00  0.00    +0.058 A 
ATOM     18  I   LIG    1       -1.195  -7.157  -8.147  0.00  0.00    -0.040 I 
ATOM     19  C   LIG    1       -0.688  -4.682  -6.471  0.00  0.00    +0.064 A 
ATOM     20  C   LIG    1       -0.142  -3.930  -5.441  0.00  0.00    +0.124 A 
BRANCH  16  21
ATOM     21  O   LIG    1        0.829  -7.925  -5.818  0.00  0.00    -0.494 OA
ATOM     22  C   LIG    1        1.736  -8.466  -4.855  0.00  0.00    +0.277 C 
ENDBRANCH  16  21
BRANCH  20  23
ATOM     23  O   LIG    1       -0.464  -2.615  -5.314  0.00  0.00    -0.495 OA
ATOM     24  C   LIG    1       -1.375  -2.075  -6.274  0.00  0.00    +0.277 C 
ENDBRANCH  20  23
ENDBRANCH  13  14
ENDBRANCH   1  13
TORSDOF 8
