REMARK  Name = ZINC40394793
REMARK                            x       y       z     vdW  Elec       q    Type
REMARK                         _______ _______ _______ _____ _____    ______ ____
ROOT
ATOM      1  N   LIG    1        4.152  -0.952   1.338  0.00  0.00    -0.254 N 
ATOM      2  C   LIG    1        4.926  -0.095   2.055  0.00  0.00    +0.134 A 
ATOM      3  C   LIG    1        5.120  -0.694   3.307  0.00  0.00    +0.032 A 
ATOM      4  C   LIG    1        5.795  -0.372   4.492  0.00  0.00    +0.012 A 
ATOM      5  C   LIG    1        5.756  -1.238   5.540  0.00  0.00    +0.001 A 
ATOM      6  C   LIG    1        5.058  -2.444   5.466  0.00  0.00    +0.002 A 
ATOM      7  C   LIG    1        4.384  -2.814   4.348  0.00  0.00    +0.030 A 
ATOM      8  C   LIG    1        4.383  -1.964   3.223  0.00  0.00    +0.094 A 
ATOM      9  N   LIG    1        3.849  -2.001   2.016  0.00  0.00    -0.170 NA
ENDROOT
BRANCH   2  10
ATOM     10  C   LIG    1        5.454   1.197   1.608  0.00  0.00    +0.277 A 
ATOM     11  N   LIG    1        6.210   2.014   2.316  0.00  0.00    -0.193 NA
ATOM     12  C   LIG    1        6.506   3.097   1.597  0.00  0.00    +0.155 A 
ATOM     13  N   LIG    1        5.951   2.997   0.422  0.00  0.00    -0.063 NA
ATOM     14  O   LIG    1        5.259   1.757   0.399  0.00  0.00    -0.331 OA
BRANCH  12  15
ATOM     15  C   LIG    1        7.349   4.254   2.068  0.00  0.00    -0.005 C 
BRANCH  15  16
ATOM     16  N   LIG    1        8.758   3.999   1.740  0.00  0.00    +0.383 N 
ATOM     17  H   LIG    1        9.322   4.774   2.055  0.00  0.00    -0.089 HD
ATOM     18  H   LIG    1        8.857   3.895   0.741  0.00  0.00    -0.089 HD
ATOM     19  H   LIG    1        9.062   3.153   2.198  0.00  0.00    -0.089 HD
ENDBRANCH  15  16
ENDBRANCH  12  15
ENDBRANCH   2  10
BRANCH   1  20
ATOM     20  C   LIG    1        3.711  -0.707  -0.038  0.00  0.00    +0.179 C 
BRANCH  20  24
ATOM     21  C   LIG    1       -0.017   1.378   0.010  0.00  0.00    +0.000 A 
ATOM     22  C   LIG    1        1.171   2.086   0.002  0.00  0.00    +0.000 A 
ATOM     23  C   LIG    1        2.377   1.411  -0.013  0.00  0.00    +0.005 A 
ATOM     24  C   LIG    1        2.396   0.029  -0.020  0.00  0.00    -0.026 A 
ATOM     25  C   LIG    1        1.208  -0.679  -0.012  0.00  0.00    +0.005 A 
ATOM     26  C   LIG    1        0.002  -0.004   0.002  0.00  0.00    +0.000 A 
ENDBRANCH  20  24
ENDBRANCH   1  20
TORSDOF 5
