REMARK  Name = ZINC52607342
REMARK                            x       y       z     vdW  Elec       q    Type
REMARK                         _______ _______ _______ _____ _____    ______ ____
ROOT
ATOM      1  C   LIG    1        1.818   0.332  -1.482  0.00  0.00    +0.233 C 
ATOM      2  N   LIG    1        1.692   1.673  -1.537  0.00  0.00    -0.296 N 
ATOM      3  C   LIG    1        2.855   2.541  -1.786  0.00  0.00    +0.113 C 
ATOM      4  C   LIG    1        2.632   3.253  -3.120  0.00  0.00    +0.054 C 
ATOM      5  C   LIG    1        1.245   3.836  -3.191  0.00  0.00    -0.038 A 
ATOM      6  C   LIG    1        1.022   4.853  -4.113  0.00  0.00    +0.053 A 
ATOM      7  C   LIG    1       -0.229   5.427  -4.239  0.00  0.00    +0.162 A 
ATOM      8  C   LIG    1       -1.275   4.981  -3.437  0.00  0.00    +0.162 A 
ATOM      9  C   LIG    1       -1.049   3.973  -2.519  0.00  0.00    +0.054 A 
ATOM     10  C   LIG    1        0.211   3.403  -2.392  0.00  0.00    -0.023 A 
ATOM     11  C   LIG    1        0.391   2.325  -1.357  0.00  0.00    +0.143 C 
ATOM     12  O   LIG    1        2.917  -0.177  -1.549  0.00  0.00    -0.274 OA
ENDROOT
BRANCH   7  13
ATOM     13  O   LIG    1       -0.436   6.422  -5.143  0.00  0.00    -0.491 OA
ATOM     14  C   LIG    1        0.686   6.827  -5.930  0.00  0.00    +0.277 C 
ENDBRANCH   7  13
BRANCH   8  15
ATOM     15  O   LIG    1       -2.512   5.535  -3.555  0.00  0.00    -0.491 OA
ATOM     16  C   LIG    1       -3.535   5.026  -2.698  0.00  0.00    +0.277 C 
ENDBRANCH   8  15
BRANCH   1  17
ATOM     17  C   LIG    1        0.593  -0.534  -1.339  0.00  0.00    +0.146 C 
BRANCH  17  19
ATOM     18  C   LIG    1        0.144   0.550   0.867  0.00  0.00    +0.012 C 
ATOM     19  C   LIG    1        0.319  -0.788   0.145  0.00  0.00    -0.014 C 
ATOM     20  C   LIG    1       -0.957  -1.618   0.293  0.00  0.00    +0.012 C 
ATOM     21  C   LIG    1        1.497  -1.548   0.758  0.00  0.00    +0.012 C 
ENDBRANCH  17  19
BRANCH  17  22
ATOM     22  N   LIG    1        0.817  -1.815  -2.022  0.00  0.00    -0.301 NA
ATOM     23  H   LIG    1        1.650  -1.782  -2.590  0.00  0.00    +0.123 HD
BRANCH  22  24
ATOM     24  C   LIG    1       -0.353  -2.195  -2.825  0.00  0.00    +0.117 C 
BRANCH  24  25
ATOM     25  C   LIG    1       -0.136  -3.566  -3.412  0.00  0.00    -0.031 A 
ATOM     26  C   LIG    1        0.472  -3.720  -4.648  0.00  0.00    +0.024 A 
ATOM     27  C   LIG    1        0.655  -4.992  -5.155  0.00  0.00    +0.111 A 
ATOM     28  N   LIG    1        0.257  -6.052  -4.478  0.00  0.00    -0.263 NA
ATOM     29  C   LIG    1       -0.325  -5.943  -3.299  0.00  0.00    +0.111 A 
ATOM     30  C   LIG    1       -0.535  -4.703  -2.726  0.00  0.00    +0.024 A 
ENDBRANCH  24  25
ENDBRANCH  22  24
ENDBRANCH  17  22
ENDBRANCH   1  17
TORSDOF 7
