REMARK  Name = ZINC38139718
REMARK                            x       y       z     vdW  Elec       q    Type
REMARK                         _______ _______ _______ _____ _____    ______ ____
ROOT
ATOM      1  C   LIG    1        0.605  -0.501  -1.311  0.00  0.00    +0.002 C 
ATOM      2  C   LIG    1        0.426  -2.037  -1.441  0.00  0.00    +0.005 C 
ATOM      3  C   LIG    1       -0.253  -2.283  -2.822  0.00  0.00    +0.007 C 
ATOM      4  C   LIG    1        0.112  -0.995  -3.575  0.00  0.00    +0.035 C 
ATOM      5  C   LIG    1       -0.540  -0.730  -4.891  0.00  0.00    +0.129 C 
ATOM      6  C   LIG    1       -2.035  -0.949  -4.909  0.00  0.00    +0.010 C 
ATOM      7  C   LIG    1       -2.596  -0.728  -6.106  0.00  0.00    +0.010 C 
ATOM      8  C   LIG    1       -1.585  -0.321  -7.161  0.00  0.00    +0.131 C 
ATOM      9  O   LIG    1       -0.582  -1.348  -7.222  0.00  0.00    -0.222 OA
ATOM     10  C   LIG    1       -0.915   0.976  -6.691  0.00  0.00    +0.010 C 
ATOM     11  C   LIG    1       -1.964   2.075  -6.533  0.00  0.00    +0.015 C 
ATOM     12  C   LIG    1        0.123   1.405  -7.731  0.00  0.00    +0.013 C 
ATOM     13  C   LIG    1       -0.521   1.576  -9.103  0.00  0.00    +0.032 C 
ATOM     14  C   LIG    1       -1.192   0.277  -9.548  0.00  0.00    +0.118 C 
ATOM     15  C   LIG    1       -2.242  -0.147  -8.517  0.00  0.00    +0.074 C 
ATOM     16  O   LIG    1        0.006  -1.623  -5.895  0.00  0.00    -0.223 OA
ATOM     17  C   LIG    1       -0.208   0.695  -5.363  0.00  0.00    +0.037 C 
ATOM     18  C   LIG    1       -0.520   1.734  -4.300  0.00  0.00    +0.008 C 
ATOM     19  C   LIG    1        0.253   1.427  -3.002  0.00  0.00    +0.008 C 
ATOM     20  C   LIG    1       -0.185   0.072  -2.501  0.00  0.00    -0.023 C 
ATOM     21  C   LIG    1       -1.658   0.114  -2.093  0.00  0.00    +0.012 C 
ENDROOT
BRANCH   1  23
ATOM     22  C   LIG    1        0.182   1.512   0.104  0.00  0.00    +0.012 C 
ATOM     23  C   LIG    1        0.002  -0.004   0.002  0.00  0.00    +0.012 C 
BRANCH  23  24
ATOM     24  C   LIG    1        0.699  -0.672   1.159  0.00  0.00    -0.027 C 
ATOM     25  C   LIG    1        0.015  -1.407   2.000  0.00  0.00    -0.027 C 
BRANCH  25  26
ATOM     26  C   LIG    1        0.712  -2.075   3.157  0.00  0.00    +0.011 C 
ATOM     27  C   LIG    1        0.533  -3.591   3.055  0.00  0.00    +0.012 C 
BRANCH  26  28
ATOM     28  C   LIG    1        0.109  -1.577   4.472  0.00  0.00    -0.011 C 
ATOM     29  C   LIG    1        0.288  -0.061   4.574  0.00  0.00    +0.008 C 
ATOM     30  C   LIG    1        0.817  -2.255   5.647  0.00  0.00    +0.008 C 
ENDBRANCH  26  28
ENDBRANCH  25  26
ENDBRANCH  23  24
ENDBRANCH   1  23
BRANCH  14  31
ATOM     31  O   LIG    1       -1.825   0.479 -10.814  0.00  0.00    -0.392 OA
ATOM     32  H   LIG    1       -1.219   0.744 -11.520  0.00  0.00    +0.210 HD
ENDBRANCH  14  31
TORSDOF 5
