REMARK  Name = ZINC58638344
REMARK                            x       y       z     vdW  Elec       q    Type
REMARK                         _______ _______ _______ _____ _____    ______ ____
ROOT
ATOM      1  C   LIG    1       -5.350  -3.703  -1.439  0.00  0.00    +0.130 A 
ATOM      2  C   LIG    1       -6.688  -4.150  -1.336  0.00  0.00    +0.044 A 
ATOM      3  C   LIG    1       -7.693  -3.357  -0.769  0.00  0.00    +0.062 A 
ATOM      4  C   LIG    1       -8.970  -3.834  -0.694  0.00  0.00    +0.162 A 
ATOM      5  C   LIG    1       -9.287  -5.112  -1.177  0.00  0.00    +0.164 A 
ATOM      6  C   LIG    1       -8.317  -5.912  -1.739  0.00  0.00    +0.078 A 
ATOM      7  C   LIG    1       -7.001  -5.441  -1.828  0.00  0.00    +0.080 A 
ATOM      8  N   LIG    1       -6.019  -6.181  -2.367  0.00  0.00    -0.231 NA
ATOM      9  C   LIG    1       -4.796  -5.714  -2.436  0.00  0.00    +0.135 A 
ATOM     10  N   LIG    1       -4.458  -4.513  -1.995  0.00  0.00    -0.217 NA
ENDROOT
BRANCH   9  11
ATOM     11  C   LIG    1       -3.728  -6.582  -3.050  0.00  0.00    +0.057 C 
ATOM     12  C   LIG    1       -4.104  -6.906  -4.497  0.00  0.00    +0.011 C 
ATOM     13  C   LIG    1       -3.019  -7.787  -5.121  0.00  0.00    +0.001 C 
ATOM     14  C   LIG    1       -2.896  -9.087  -4.322  0.00  0.00    +0.000 C 
ATOM     15  C   LIG    1       -2.520  -8.762  -2.875  0.00  0.00    +0.001 C 
ATOM     16  C   LIG    1       -3.605  -7.881  -2.252  0.00  0.00    +0.011 C 
ENDBRANCH   9  11
BRANCH   1  17
ATOM     17  N   LIG    1       -4.983  -2.455  -0.980  0.00  0.00    -0.326 N 
ATOM     18  H   LIG    1       -5.645  -1.873  -0.576  0.00  0.00    +0.148 HD
BRANCH  17  23
ATOM     19  N   LIG    1       -1.376  -0.512   0.012  0.00  0.00    +0.381 N 
ATOM     20  H   LIG    1       -1.847  -0.189   0.844  0.00  0.00    -0.081 HD
ATOM     21  C   LIG    1       -2.087  -0.018  -1.173  0.00  0.00    -0.077 C 
ATOM     22  C   LIG    1       -3.546  -0.478  -1.125  0.00  0.00    +0.003 C 
ATOM     23  C   LIG    1       -3.593  -2.009  -1.101  0.00  0.00    +0.068 C 
ATOM     24  C   LIG    1       -2.785  -2.515   0.097  0.00  0.00    +0.003 C 
ATOM     25  C   LIG    1       -1.355  -1.980   0.004  0.00  0.00    -0.077 C 
BRANCH  19  27
ATOM     26  C   LIG    1       -0.019   1.526   0.010  0.00  0.00    -0.014 C 
ATOM     27  C   LIG    1        0.002  -0.004   0.002  0.00  0.00    -0.075 C 
ATOM     28  C   LIG    1        0.742  -0.511   1.242  0.00  0.00    -0.014 C 
ENDBRANCH  19  27
ENDBRANCH  17  23
ENDBRANCH   1  17
BRANCH   4  29
ATOM     29  O   LIG    1       -9.945  -3.063  -0.143  0.00  0.00    -0.491 OA
ATOM     30  C   LIG    1       -9.560  -1.772   0.332  0.00  0.00    +0.277 C 
ENDBRANCH   4  29
BRANCH   5  31
ATOM     31  O   LIG    1      -10.565  -5.565  -1.090  0.00  0.00    -0.488 OA
BRANCH  31  32
ATOM     32  C   LIG    1      -10.824  -6.875  -1.600  0.00  0.00    +0.227 C 
BRANCH  32  33
ATOM     33  C   LIG    1      -12.306  -7.209  -1.416  0.00  0.00    +0.022 C 
BRANCH  33  34
ATOM     34  C   LIG    1      -12.584  -8.611  -1.962  0.00  0.00    -0.076 C 
BRANCH  34  35
ATOM     35  N   LIG    1      -14.007  -8.932  -1.785  0.00  0.00    +0.380 N 
ATOM     36  H   LIG    1      -14.277  -8.797  -0.822  0.00  0.00    -0.082 HD
ATOM     37  C   LIG    1      -14.838  -8.084  -2.676  0.00  0.00    -0.079 C 
ATOM     38  C   LIG    1      -16.157  -8.887  -2.802  0.00  0.00    -0.020 C 
ATOM     39  C   LIG    1      -15.666 -10.352  -2.846  0.00  0.00    -0.020 C 
ATOM     40  C   LIG    1      -14.269 -10.328  -2.197  0.00  0.00    -0.079 C 
ENDBRANCH  34  35
ENDBRANCH  33  34
ENDBRANCH  32  33
ENDBRANCH  31  32
ENDBRANCH   5  31
TORSDOF 10
