REMARK  Name = ZINC20898520
REMARK                            x       y       z     vdW  Elec       q    Type
REMARK                         _______ _______ _______ _____ _____    ______ ____
ROOT
ATOM      1  C   LIG    1        3.718  -1.182   0.372  0.00  0.00    +0.154 C 
ATOM      2  N   LIG    1        2.516  -0.351   0.474  0.00  0.00    -0.294 N 
ATOM      3  C   LIG    1        2.548   1.019   0.174  0.00  0.00    +0.082 A 
ATOM      4  C   LIG    1        1.297   1.808   0.301  0.00  0.00    +0.089 A 
ATOM      5  C   LIG    1        0.066   1.136   0.731  0.00  0.00    +0.266 A 
ATOM      6  N   LIG    1        0.186  -0.193   0.983  0.00  0.00    -0.263 N 
ATOM      7  C   LIG    1       -1.008  -0.925   1.414  0.00  0.00    +0.157 C 
ATOM      8  O   LIG    1       -0.991   1.727   0.849  0.00  0.00    -0.267 OA
ATOM      9  C   LIG    1        1.611   3.098  -0.046  0.00  0.00    +0.069 A 
ATOM     10  N   LIG    1        2.935   3.129  -0.355  0.00  0.00    -0.306 N 
ATOM     11  C   LIG    1        3.715   4.222  -0.760  0.00  0.00    +0.068 A 
ATOM     12  C   LIG    1        3.141   5.424  -1.126  0.00  0.00    +0.028 A 
ATOM     13  C   LIG    1        3.946   6.471  -1.540  0.00  0.00    +0.002 A 
ATOM     14  C   LIG    1        5.319   6.315  -1.589  0.00  0.00    +0.002 A 
ATOM     15  C   LIG    1        5.900   5.117  -1.217  0.00  0.00    +0.025 A 
ATOM     16  C   LIG    1        5.104   4.064  -0.793  0.00  0.00    +0.052 A 
ATOM     17  N   LIG    1        5.680   2.852  -0.396  0.00  0.00    -0.330 N 
ATOM     18  H   LIG    1        6.689   2.842   0.043  0.00  0.00    +0.147 HD
ATOM     19  C   LIG    1        4.939   1.593  -0.564  0.00  0.00    +0.150 C 
ATOM     20  C   LIG    1        3.486   1.860  -0.235  0.00  0.00    +0.073 A 
ATOM     21  C   LIG    1        1.331  -0.873   0.860  0.00  0.00    +0.332 A 
ATOM     22  O   LIG    1        1.303  -2.061   1.118  0.00  0.00    -0.246 OA
ENDROOT
BRANCH   9  23
ATOM     23  C   LIG    1        0.682   4.244  -0.079  0.00  0.00    -0.000 A 
ATOM     24  C   LIG    1       -0.462   4.197  -0.880  0.00  0.00    +0.010 A 
ATOM     25  C   LIG    1       -1.329   5.269  -0.903  0.00  0.00    +0.001 A 
ATOM     26  C   LIG    1       -1.063   6.394  -0.142  0.00  0.00    +0.000 A 
ATOM     27  C   LIG    1        0.071   6.450   0.650  0.00  0.00    +0.001 A 
ATOM     28  C   LIG    1        0.944   5.383   0.686  0.00  0.00    +0.010 A 
ENDBRANCH   9  23
BRANCH  19  29
ATOM     29  C   LIG    1        5.059   1.115  -1.988  0.00  0.00    -0.021 A 
ATOM     30  C   LIG    1        4.780   1.978  -3.032  0.00  0.00    +0.009 A 
ATOM     31  C   LIG    1        4.895   1.545  -4.338  0.00  0.00    +0.046 A 
ATOM     32  C   LIG    1        5.280   0.239  -4.603  0.00  0.00    +0.117 A 
ATOM     33  C   LIG    1        5.555  -0.627  -3.555  0.00  0.00    +0.046 A 
ATOM     34  C   LIG    1        5.444  -0.187  -2.250  0.00  0.00    +0.009 A 
BRANCH  32  35
ATOM     35  O   LIG    1        5.389  -0.192  -5.888  0.00  0.00    -0.507 OA
ATOM     36  H   LIG    1        5.695  -1.227  -6.096  0.00  0.00    +0.292 HD
ENDBRANCH  32  35
ENDBRANCH  19  29
TORSDOF 3
