REMARK  Name = ZINC00006213
REMARK                            x       y       z     vdW  Elec       q    Type
REMARK                         _______ _______ _______ _____ _____    ______ ____
ROOT
ATOM      1  C   LIG    1        1.132  -0.700  -0.013  0.00  0.00    +0.094 A 
ATOM      2  C   LIG    1        2.358  -0.031  -0.021  0.00  0.00    +0.046 A 
ATOM      3  C   LIG    1        2.338   1.367  -0.013  0.00  0.00    +0.077 A 
ATOM      4  C   LIG    1        1.090   2.002   0.002  0.00  0.00    +0.164 A 
ATOM      5 CL   LIG    1        0.995   3.735   0.012  0.00  0.00    -0.059 Cl
ATOM      6  N   LIG    1       -0.015   1.279   0.009  0.00  0.00    -0.136 NA
ATOM      7  N   LIG    1        0.002  -0.004   0.002  0.00  0.00    -0.148 NA
ENDROOT
BRANCH   1  13
ATOM      8  C   LIG    1        2.272  -2.932  -0.042  0.00  0.00    +0.030 A 
ATOM      9  C   LIG    1        2.190  -4.310  -0.043  0.00  0.00    +0.111 A 
ATOM     10  N   LIG    1        1.020  -4.918  -0.036  0.00  0.00    -0.263 NA
ATOM     11  C   LIG    1       -0.117  -4.249  -0.021  0.00  0.00    +0.111 A 
ATOM     12  C   LIG    1       -0.125  -2.869  -0.013  0.00  0.00    +0.030 A 
ATOM     13  C   LIG    1        1.092  -2.183  -0.021  0.00  0.00    +0.005 A 
ENDBRANCH   1  13
BRANCH   3  14
ATOM     14  C   LIG    1        3.594   2.150  -0.020  0.00  0.00    +0.245 C 
ATOM     15  N   LIG    1        4.784   1.516  -0.035  0.00  0.00    -0.325 N 
ATOM     16  H   LIG    1        5.607   2.029  -0.039  0.00  0.00    +0.145 HD
ATOM     17  H   LIG    1        4.816   0.547  -0.040  0.00  0.00    +0.145 HD
ATOM     18  O   LIG    1        3.553   3.365  -0.013  0.00  0.00    -0.270 OA
ENDBRANCH   3  14
TORSDOF 2
