REMARK  Name = ZINC53041013
REMARK                            x       y       z     vdW  Elec       q    Type
REMARK                         _______ _______ _______ _____ _____    ______ ____
ROOT
ATOM      1  C   LIG    1       -2.769  -2.518   0.015  0.00  0.00    +0.069 C 
ATOM      2  C   LIG    1       -3.837  -1.428   0.150  0.00  0.00    +0.095 C 
ATOM      3  N   LIG    1       -4.723  -1.466  -1.021  0.00  0.00    -0.302 NA
ATOM      4  C   LIG    1       -3.977  -1.189  -2.256  0.00  0.00    +0.084 C 
ATOM      5  C   LIG    1       -2.913  -2.271  -2.460  0.00  0.00    +0.019 C 
ATOM      6  C   LIG    1       -5.427  -2.752  -1.109  0.00  0.00    +0.084 C 
ATOM      7  C   LIG    1       -4.404  -3.883  -1.279  0.00  0.00    +0.019 C 
ATOM      8  C   LIG    1       -2.995  -3.275  -1.300  0.00  0.00    +0.002 C 
ENDROOT
BRANCH   1  10
ATOM      9  N   LIG    1       -1.284  -0.598   0.011  0.00  0.00    -0.078 NA
ATOM     10  C   LIG    1       -1.401  -1.886   0.005  0.00  0.00    +0.160 C 
BRANCH   9  12
ATOM     11  C   LIG    1       -0.017   1.425   0.010  0.00  0.00    +0.313 C 
ATOM     12  O   LIG    1        0.002  -0.004   0.002  0.00  0.00    -0.396 OA
ENDBRANCH   9  12
BRANCH  10  13
ATOM     13  C   LIG    1       -0.232  -2.712  -0.010  0.00  0.00    +0.118 C 
ATOM     14  N   LIG    1        0.696  -3.367  -0.023  0.00  0.00    -0.190 NA
ENDBRANCH  10  13
ENDBRANCH   1  10
TORSDOF 3
