REMARK  Name = ZINC20112625
REMARK                            x       y       z     vdW  Elec       q    Type
REMARK                         _______ _______ _______ _____ _____    ______ ____
ROOT
ATOM      1  C   LIG    1        2.377   1.104   1.474  0.00  0.00    +0.097 C 
ENDROOT
BRANCH   1   2
ATOM      2  P   LIG    1        1.451   1.638  -0.003  0.00  0.00    +0.227 P 
ATOM      3  O   LIG    1        1.314   3.111   0.006  0.00  0.00    -0.289 OA
BRANCH   2   4
ATOM      4  O   LIG    1       -0.011   0.963   0.007  0.00  0.00    -0.342 OA
ATOM      5  H   LIG    1       -0.489   1.238   0.805  0.00  0.00    +0.218 HD
ENDBRANCH   2   4
BRANCH   2   6
ATOM      6  C   LIG    1        2.348   1.120  -1.503  0.00  0.00    +0.252 C 
BRANCH   6   7
ATOM      7  O   LIG    1        1.622   1.538  -2.661  0.00  0.00    -0.385 OA
ATOM      8  H   LIG    1        2.012   1.314  -3.665  0.00  0.00    +0.210 HD
ENDBRANCH   6   7
ENDBRANCH   2   6
ENDBRANCH   1   2
BRANCH   1   9
ATOM      9  C   LIG    1        1.690   1.645   2.729  0.00  0.00    -0.010 C 
BRANCH   9  10
ATOM     10  C   LIG    1        2.467   1.197   3.969  0.00  0.00    -0.086 C 
BRANCH  10  11
ATOM     11  N   LIG    1        1.808   1.717   5.175  0.00  0.00    +0.378 N 
ATOM     12  H   LIG    1        1.784   2.816   5.134  0.00  0.00    -0.090 HD
ATOM     13  H   LIG    1        0.780   1.329   5.226  0.00  0.00    -0.090 HD
ATOM     14  H   LIG    1        2.367   1.395   6.066  0.00  0.00    -0.090 HD
ENDBRANCH  10  11
ENDBRANCH   9  10
ENDBRANCH   1   9
TORSDOF 7
