REMARK  Name = ZINC19796181
REMARK                            x       y       z     vdW  Elec       q    Type
REMARK                         _______ _______ _______ _____ _____    ______ ____
ROOT
ATOM      1  C   LIG    1        1.838  -3.519  -3.184  0.00  0.00    +0.020 C 
ENDROOT
BRANCH   1   2
ATOM      2  C   LIG    1        1.746  -1.998  -3.049  0.00  0.00    +0.114 C 
BRANCH   2   4
ATOM      3  C   LIG    1        0.848  -0.411  -1.489  0.00  0.00    +0.125 C 
ATOM      4  N   LIG    1        1.042  -1.660  -1.809  0.00  0.00    -0.368 N 
ATOM      5  H   LIG    1        0.720  -2.366  -1.226  0.00  0.00    +0.161 HD
BRANCH   3   6
ATOM      6  N   LIG    1        1.305   0.590  -2.316  0.00  0.00    -0.340 N 
ATOM      7  H   LIG    1        1.771   0.366  -3.136  0.00  0.00    +0.144 HD
ATOM      8  H   LIG    1        1.161   1.519  -2.078  0.00  0.00    +0.144 HD
ENDBRANCH   3   6
BRANCH   3  10
ATOM      9  C   LIG    1       -0.022   1.810   0.012  0.00  0.00    +0.092 C 
ATOM     10  S   LIG    1        0.002  -0.004   0.002  0.00  0.00    -0.096 S 
ENDBRANCH   3  10
ENDBRANCH   2   4
ENDBRANCH   1   2
BRANCH   1  11
ATOM     11  C   LIG    1        2.573  -3.873  -4.479  0.00  0.00    -0.004 C 
BRANCH  11  12
ATOM     12  CA  LIG    1        2.666  -5.394  -4.614  0.00  0.00    +0.036 C 
BRANCH  12  13
ATOM     13  N   LIG    1        3.502  -5.932  -3.533  0.00  0.00    +0.387 N 
ATOM     14  H1  LIG    1        4.427  -5.532  -3.593  0.00  0.00    -0.089 HD
ATOM     15  H2  LIG    1        3.563  -6.935  -3.622  0.00  0.00    -0.089 HD
ATOM     16  H3  LIG    1        3.092  -5.698  -2.642  0.00  0.00    -0.089 HD
ENDBRANCH  12  13
BRANCH  12  17
ATOM     17  C   LIG    1        3.279  -5.743  -5.945  0.00  0.00    +0.290 C 
ATOM     18  O   LIG    1        4.488  -5.865  -6.046  0.00  0.00    -0.253 OA
BRANCH  17  19
ATOM     19  OXT LIG    1        2.566  -5.904  -6.921  0.00  0.00    -0.482 OA
ATOM     20  HXT LIG    1        1.637  -5.810  -6.844  0.00  0.00    +0.295 HD
ENDBRANCH  17  19
ENDBRANCH  12  17
ENDBRANCH  11  12
ENDBRANCH   1  11
TORSDOF 9
