REMARK  Name = ZINC20347571
REMARK                            x       y       z     vdW  Elec       q    Type
REMARK                         _______ _______ _______ _____ _____    ______ ____
ROOT
ATOM      1  C   LIG    1        0.991   3.607  -1.061  0.00  0.00    +0.062 C 
ATOM      2  C   LIG    1        0.783   2.396  -0.152  0.00  0.00    +0.109 C 
ATOM      3  C   LIG    1       -0.622   1.868  -0.243  0.00  0.00    +0.218 C 
ATOM      4  N   LIG    1       -1.674   2.715  -0.339  0.00  0.00    -0.280 N 
ATOM      5  H   LIG    1       -2.701   2.328  -0.260  0.00  0.00    +0.155 HD
ATOM      6  C   LIG    1       -1.404   4.050  -0.533  0.00  0.00    +0.078 A 
ATOM      7  S   LIG    1       -2.474   5.457  -0.418  0.00  0.00    -0.071 S 
ATOM      8  C   LIG    1       -1.280   6.700  -0.807  0.00  0.00    +0.044 A 
ATOM      9  C   LIG    1       -1.373   8.063  -0.912  0.00  0.00    -0.014 A 
ATOM     10  C   LIG    1       -2.663   8.809  -0.686  0.00  0.00    +0.046 C 
ATOM     11  C   LIG    1       -0.167   8.716  -1.247  0.00  0.00    +0.095 A 
ATOM     12  C   LIG    1        0.999   7.955  -1.444  0.00  0.00    +0.135 A 
ATOM     13  N   LIG    1        1.048   6.642  -1.334  0.00  0.00    -0.230 NA
ATOM     14  C   LIG    1       -0.082   5.960  -1.015  0.00  0.00    +0.086 A 
ATOM     15  O   LIG    1       -0.814   0.671  -0.236  0.00  0.00    -0.275 OA
ATOM     16  C   LIG    1       -0.180   4.568  -0.868  0.00  0.00    +0.015 A 
ENDROOT
BRANCH   1  23
ATOM     17  C   LIG    1        3.170   3.682  -2.956  0.00  0.00    +0.044 C 
ATOM     18  C   LIG    1        3.323   4.332  -1.605  0.00  0.00    -0.047 A 
ATOM     19  C   LIG    1        4.507   4.964  -1.273  0.00  0.00    +0.003 A 
ATOM     20  C   LIG    1        4.648   5.561  -0.034  0.00  0.00    +0.000 A 
ATOM     21  C   LIG    1        3.605   5.524   0.873  0.00  0.00    +0.000 A 
ATOM     22  C   LIG    1        2.420   4.897   0.539  0.00  0.00    +0.004 A 
ATOM     23  C   LIG    1        2.281   4.296  -0.699  0.00  0.00    -0.036 A 
ENDBRANCH   1  23
BRANCH  12  24
ATOM     24  N   LIG    1        2.167   8.626  -1.772  0.00  0.00    -0.342 N 
ATOM     25  H   LIG    1        2.163   9.722  -1.871  0.00  0.00    +0.144 HD
ATOM     26  H   LIG    1        3.098   8.063  -1.932  0.00  0.00    +0.144 HD
ENDBRANCH  12  24
BRANCH  11  27
ATOM     27  C   LIG    1       -0.132  10.141  -1.387  0.00  0.00    +0.103 C 
ATOM     28  N   LIG    1       -0.105  11.271  -1.499  0.00  0.00    -0.191 NA
ENDBRANCH  11  27
TORSDOF 3
