REMARK  Name = ZINC17539659
REMARK                            x       y       z     vdW  Elec       q    Type
REMARK                         _______ _______ _______ _____ _____    ______ ____
ROOT
ATOM      1  C   LIG    1        1.220  -2.353  -2.574  0.00  0.00    +0.069 C 
ATOM      2  C   LIG    1        1.624  -3.678  -2.603  0.00  0.00    +0.049 C 
ATOM      3  C   LIG    1        1.147  -4.611  -1.520  0.00  0.00    +0.066 C 
ATOM      4  N   LIG    1        2.413  -4.148  -3.549  0.00  0.00    -0.256 NA
ATOM      5  C   LIG    1        2.904  -3.448  -4.553  0.00  0.00    +0.049 C 
ATOM      6  C   LIG    1        3.796  -4.134  -5.555  0.00  0.00    +0.066 C 
ATOM      7  C   LIG    1        2.625  -2.100  -4.715  0.00  0.00    +0.064 C 
ATOM      8  C   LIG    1        3.150  -1.375  -5.779  0.00  0.00    +0.285 C 
ATOM      9  C   LIG    1        1.718  -1.448  -3.686  0.00  0.00    +0.089 C 
ENDROOT
BRANCH   1  10
ATOM     10  C   LIG    1        0.386  -1.873  -1.570  0.00  0.00    +0.338 C 
ATOM     11  O   LIG    1       -0.147  -2.716  -0.687  0.00  0.00    -0.245 OA
BRANCH  10  12
ATOM     12  O   LIG    1        0.117  -0.554  -1.490  0.00  0.00    -0.462 OA
BRANCH  12  14
ATOM     13  C   LIG    1       -0.934   1.385  -0.503  0.00  0.00    +0.048 C 
ATOM     14  C   LIG    1       -0.747  -0.132  -0.433  0.00  0.00    +0.229 C 
ENDBRANCH  12  14
ENDBRANCH  10  12
ENDBRANCH   1  10
BRANCH   8  15
ATOM     15  O   LIG    1        2.864  -0.080  -5.908  0.00  0.00    -0.480 OA
ATOM     16  H   LIG    1        2.309   0.342  -5.283  0.00  0.00    +0.295 HD
ENDBRANCH   8  15
BRANCH   9  17
ATOM     17  C   LIG    1        0.520  -0.878  -4.402  0.00  0.00    -0.013 C 
ATOM     18  C   LIG    1        0.335   0.434  -4.444  0.00  0.00    +0.004 C 
BRANCH  18  19
ATOM     19  C   LIG    1       -0.840   0.993  -5.146  0.00  0.00    -0.025 A 
ATOM     20  C   LIG    1       -1.758   0.141  -5.761  0.00  0.00    +0.008 A 
ATOM     21  C   LIG    1       -2.853   0.669  -6.415  0.00  0.00    +0.001 A 
ATOM     22  C   LIG    1       -3.040   2.039  -6.462  0.00  0.00    +0.000 A 
ATOM     23  C   LIG    1       -2.132   2.888  -5.855  0.00  0.00    +0.001 A 
ATOM     24  C   LIG    1       -1.037   2.373  -5.192  0.00  0.00    +0.008 A 
ENDBRANCH  18  19
ENDBRANCH   9  17
BRANCH   8  25
ATOM     25  O   LIG    1        3.948  -1.983  -6.679  0.00  0.00    -0.464 OA
BRANCH  25  26
ATOM     26  C   LIG    1        4.452  -1.178  -7.747  0.00  0.00    +0.229 C 
ATOM     27  C   LIG    1        5.331  -2.034  -8.660  0.00  0.00    +0.048 C 
ENDBRANCH  25  26
ENDBRANCH   8  25
TORSDOF 8
