REMARK  Name = ZINC29320036
REMARK                            x       y       z     vdW  Elec       q    Type
REMARK                         _______ _______ _______ _____ _____    ______ ____
ROOT
ATOM      1  N   LIG    1       -2.450  -0.035   4.477  0.00  0.00    -0.259 N 
ATOM      2  C   LIG    1       -2.883   1.015   5.300  0.00  0.00    +0.040 A 
ATOM      3  C   LIG    1       -2.145   1.385   6.415  0.00  0.00    +0.024 A 
ATOM      4  C   LIG    1       -2.578   2.430   7.207  0.00  0.00    +0.002 A 
ATOM      5  C   LIG    1       -3.742   3.106   6.888  0.00  0.00    +0.000 A 
ATOM      6  C   LIG    1       -4.481   2.734   5.780  0.00  0.00    +0.005 A 
ATOM      7  C   LIG    1       -4.057   1.685   4.988  0.00  0.00    -0.026 A 
ATOM      8  C   LIG    1       -4.873   1.252   3.800  0.00  0.00    +0.039 C 
ATOM      9  C   LIG    1       -4.223   1.741   2.504  0.00  0.00    +0.033 C 
ATOM     10  C   LIG    1       -2.712   1.518   2.574  0.00  0.00    +0.142 C 
ATOM     11  C   LIG    1       -2.405   0.163   3.147  0.00  0.00    +0.237 C 
ATOM     12  O   LIG    1       -2.115  -0.755   2.409  0.00  0.00    -0.274 OA
ENDROOT
BRANCH  10  13
ATOM     13  N   LIG    1       -2.145   1.612   1.222  0.00  0.00    -0.293 NA
ATOM     14  H   LIG    1       -2.213   0.632   0.727  0.00  0.00    +0.123 HD
BRANCH  13  15
ATOM     15  C   LIG    1       -0.735   2.019   1.269  0.00  0.00    +0.164 C 
BRANCH  15  16
ATOM     16  C   LIG    1       -0.648   3.522   1.340  0.00  0.00    +0.324 C 
ATOM     17  O   LIG    1       -1.658   4.186   1.350  0.00  0.00    -0.249 OA
BRANCH  16  18
ATOM     18  O   LIG    1        0.551   4.123   1.392  0.00  0.00    -0.464 OA
BRANCH  18  19
ATOM     19  C   LIG    1        0.558   5.574   1.459  0.00  0.00    +0.229 C 
ATOM     20  C   LIG    1        2.003   6.075   1.511  0.00  0.00    +0.048 C 
ENDBRANCH  18  19
ENDBRANCH  16  18
ENDBRANCH  15  16
BRANCH  15  21
ATOM     21  C   LIG    1       -0.019   1.526   0.010  0.00  0.00    +0.035 C 
BRANCH  21  22
ATOM     22  C   LIG    1        0.002  -0.004   0.002  0.00  0.00    +0.037 C 
BRANCH  22  23
ATOM     23  C   LIG    1        0.707  -0.490  -1.238  0.00  0.00    -0.047 A 
ATOM     24  C   LIG    1       -0.012  -0.729  -2.394  0.00  0.00    +0.003 A 
ATOM     25  C   LIG    1        0.636  -1.170  -3.533  0.00  0.00    +0.000 A 
ATOM     26  C   LIG    1        2.001  -1.382  -3.512  0.00  0.00    +0.000 A 
ATOM     27  C   LIG    1        2.720  -1.148  -2.355  0.00  0.00    +0.000 A 
ATOM     28  C   LIG    1        2.073  -0.702  -1.218  0.00  0.00    +0.003 A 
ENDBRANCH  22  23
ENDBRANCH  21  22
ENDBRANCH  15  21
ENDBRANCH  13  15
ENDBRANCH  10  13
BRANCH   1  29
ATOM     29  C   LIG    1       -2.055  -1.321   5.055  0.00  0.00    +0.234 C 
BRANCH  29  30
ATOM     30  C   LIG    1       -0.581  -1.300   5.368  0.00  0.00    +0.325 C 
ATOM     31  O   LIG    1        0.072  -0.311   5.132  0.00  0.00    -0.249 OA
BRANCH  30  32
ATOM     32  O   LIG    1        0.007  -2.379   5.908  0.00  0.00    -0.464 OA
BRANCH  32  34
ATOM     33  C   LIG    1        1.918  -3.602   6.792  0.00  0.00    +0.048 C 
ATOM     34  C   LIG    1        1.430  -2.287   6.183  0.00  0.00    +0.229 C 
ENDBRANCH  32  34
ENDBRANCH  30  32
ENDBRANCH  29  30
ENDBRANCH   1  29
TORSDOF 12
