REMARK  Name = ZINC16052714
REMARK                            x       y       z     vdW  Elec       q    Type
REMARK                         _______ _______ _______ _____ _____    ______ ____
ROOT
ATOM      1  C   LIG    1        3.857  -3.794  -4.758  0.00  0.00    +0.007 A 
ATOM      2  C   LIG    1        4.885  -4.022  -3.920  0.00  0.00    +0.041 A 
ATOM      3  C   LIG    1        6.216  -3.589  -4.297  0.00  0.00    +0.084 A 
ATOM      4  C   LIG    1        6.296  -2.948  -5.552  0.00  0.00    +0.078 A 
ATOM      5  C   LIG    1        7.506  -2.481  -6.042  0.00  0.00    +0.140 A 
ATOM      6  N   LIG    1        8.598  -2.650  -5.300  0.00  0.00    -0.211 NA
ATOM      7  C   LIG    1        8.513  -3.254  -4.118  0.00  0.00    +0.163 A 
ATOM      8  N   LIG    1        7.382  -3.711  -3.621  0.00  0.00    -0.227 NA
ATOM      9  S   LIG    1        4.625  -2.972  -6.141  0.00  0.00    -0.087 S 
ENDROOT
BRANCH   7  10
ATOM     10  C   LIG    1        9.751  -3.423  -3.323  0.00  0.00    +0.030 A 
ATOM     11  C   LIG    1       10.962  -2.952  -3.807  0.00  0.00    +0.012 A 
ATOM     12  C   LIG    1       12.123  -3.109  -3.066  0.00  0.00    +0.003 A 
ATOM     13  C   LIG    1       12.095  -3.733  -1.838  0.00  0.00    +0.028 A 
ATOM     14  C   LIG    1       10.893  -4.216  -1.326  0.00  0.00    +0.066 A 
ATOM     15  N   LIG    1       10.550  -4.865  -0.167  0.00  0.00    -0.277 N 
ATOM     16  H   LIG    1       11.157  -5.113   0.548  0.00  0.00    +0.189 HD
ATOM     17  N   LIG    1        9.168  -5.092  -0.189  0.00  0.00    -0.181 NA
ATOM     18  C   LIG    1        8.666  -4.631  -1.299  0.00  0.00    +0.143 A 
ATOM     19  C   LIG    1        9.706  -4.058  -2.064  0.00  0.00    +0.030 A 
ENDBRANCH   7  10
BRANCH   5  20
ATOM     20  N   LIG    1        7.577  -1.854  -7.276  0.00  0.00    -0.310 N 
ATOM     21  C   LIG    1        6.356  -1.525  -8.029  0.00  0.00    +0.134 C 
ATOM     22  C   LIG    1        6.427  -0.051  -8.446  0.00  0.00    +0.178 C 
ATOM     23  O   LIG    1        7.669   0.190  -9.111  0.00  0.00    -0.377 OA
ATOM     24  C   LIG    1        8.823  -0.024  -8.294  0.00  0.00    +0.178 C 
ATOM     25  C   LIG    1        8.874  -1.491  -7.868  0.00  0.00    +0.134 C 
ENDBRANCH   5  20
BRANCH   1  26
ATOM     26  C   LIG    1        2.405  -4.153  -4.573  0.00  0.00    +0.127 C 
BRANCH  26  30
ATOM     27  N   LIG    1        0.121  -1.673  -2.074  0.00  0.00    -0.179 NA
ATOM     28  C   LIG    1       -0.446  -1.999  -3.391  0.00  0.00    +0.124 C 
ATOM     29  C   LIG    1        0.253  -3.254  -3.926  0.00  0.00    +0.102 C 
ATOM     30  N   LIG    1        1.707  -3.044  -3.910  0.00  0.00    -0.295 NA
ATOM     31  C   LIG    1        2.203  -2.853  -2.541  0.00  0.00    +0.102 C 
ATOM     32  C   LIG    1        1.583  -1.576  -1.952  0.00  0.00    +0.124 C 
BRANCH  27  34
ATOM     33  C   LIG    1       -1.218   0.362  -0.793  0.00  0.00    +0.215 C 
ATOM     34  S   LIG    1       -0.861  -1.417  -0.766  0.00  0.00    +0.029 S 
ATOM     35  O   LIG    1       -2.041  -2.157  -1.047  0.00  0.00    -0.158 OA
ATOM     36  O   LIG    1       -0.055  -1.737   0.360  0.00  0.00    -0.158 OA
ENDBRANCH  27  34
ENDBRANCH  26  30
ENDBRANCH   1  26
TORSDOF 5
