REMARK  Name = ZINC19850502
REMARK                            x       y       z     vdW  Elec       q    Type
REMARK                         _______ _______ _______ _____ _____    ______ ____
ROOT
ATOM      1  C   LIG    1       -3.068   1.654  -0.192  0.00  0.00    +0.039 C 
ENDROOT
BRANCH   1   7
ATOM      2  C   LIG    1       -0.013   1.086   0.008  0.00  0.00    +0.089 C 
ATOM      3  C   LIG    1       -0.742   1.585  -1.213  0.00  0.00    +0.141 A 
ATOM      4  O   LIG    1       -0.186   1.867  -2.401  0.00  0.00    -0.356 OA
ATOM      5  N   LIG    1       -1.214   2.303  -3.273  0.00  0.00    -0.040 NA
ATOM      6  C   LIG    1       -2.339   2.283  -2.607  0.00  0.00    +0.256 A 
ATOM      7  C   LIG    1       -2.061   1.831  -1.299  0.00  0.00    +0.056 A 
BRANCH   6   8
ATOM      8  O   LIG    1       -3.558   2.634  -3.089  0.00  0.00    -0.490 OA
ATOM      9  H   LIG    1       -4.312   2.587  -2.535  0.00  0.00    +0.294 HD
ENDBRANCH   6   8
ENDBRANCH   1   7
BRANCH   1  10
ATOM     10  CA  LIG    1       -3.183   2.954   0.606  0.00  0.00    +0.040 C 
BRANCH  10  11
ATOM     11  N   LIG    1       -1.908   3.229   1.281  0.00  0.00    +0.387 N 
ATOM     12  H1  LIG    1       -1.688   2.469   1.907  0.00  0.00    -0.089 HD
ATOM     13  H2  LIG    1       -1.984   4.087   1.807  0.00  0.00    -0.089 HD
ATOM     14  H3  LIG    1       -1.176   3.320   0.593  0.00  0.00    -0.089 HD
ENDBRANCH  10  11
BRANCH  10  15
ATOM     15  C   LIG    1       -4.277   2.818   1.634  0.00  0.00    +0.290 C 
ATOM     16  O   LIG    1       -3.995   2.756   2.819  0.00  0.00    -0.253 OA
BRANCH  15  17
ATOM     17  OXT LIG    1       -5.443   2.770   1.281  0.00  0.00    -0.482 OA
ATOM     18  HXT LIG    1       -5.659   2.817   0.371  0.00  0.00    +0.295 HD
ENDBRANCH  15  17
ENDBRANCH  10  15
ENDBRANCH   1  10
TORSDOF 6
