REMARK  Name = ZINC22937858
REMARK                            x       y       z     vdW  Elec       q    Type
REMARK                         _______ _______ _______ _____ _____    ______ ____
ROOT
ATOM      1  C   LIG    1       -0.451   2.913  -1.829  0.00  0.00    +0.048 C 
ATOM      2  C   LIG    1       -1.233   1.619  -1.517  0.00  0.00    +0.002 C 
ATOM      3  C   LIG    1       -0.506   1.086  -0.265  0.00  0.00    -0.036 C 
ATOM      4  C   LIG    1        0.901   1.637  -0.359  0.00  0.00    -0.057 A 
ATOM      5  C   LIG    1        2.062   1.250   0.290  0.00  0.00    +0.014 A 
ATOM      6  C   LIG    1        3.249   1.910   0.042  0.00  0.00    +0.055 A 
ATOM      7  C   LIG    1        3.281   2.959  -0.857  0.00  0.00    +0.012 A 
ATOM      8  C   LIG    1        2.124   3.346  -1.506  0.00  0.00    +0.005 A 
ATOM      9  C   LIG    1        0.932   2.686  -1.259  0.00  0.00    -0.038 A 
ENDROOT
BRANCH   1  16
ATOM     10  C   LIG    1        0.187   2.161  -4.130  0.00  0.00    +0.007 A 
ATOM     11  C   LIG    1        0.254   2.356  -5.496  0.00  0.00    +0.038 A 
ATOM     12  C   LIG    1       -0.230   3.529  -6.051  0.00  0.00    +0.123 A 
ATOM     13  F   LIG    1       -0.159   3.724  -7.386  0.00  0.00    -0.205 F 
ATOM     14  C   LIG    1       -0.786   4.501  -5.237  0.00  0.00    +0.038 A 
ATOM     15  C   LIG    1       -0.857   4.301  -3.872  0.00  0.00    +0.007 A 
ATOM     16  C   LIG    1       -0.373   3.130  -3.319  0.00  0.00    -0.040 A 
ENDBRANCH   1  16
BRANCH   3  17
ATOM     17  N   LIG    1       -1.163   1.574   0.955  0.00  0.00    +0.386 N 
ATOM     18  H   LIG    1       -1.321   2.657   0.843  0.00  0.00    -0.081 HD
ATOM     19  C   LIG    1       -0.311   1.360   2.134  0.00  0.00    -0.062 C 
ATOM     20  C   LIG    1       -0.996   1.952   3.368  0.00  0.00    +0.066 C 
ATOM     21  N   LIG    1       -2.309   1.317   3.549  0.00  0.00    -0.304 NA
ATOM     22  C   LIG    1       -3.160   1.531   2.370  0.00  0.00    +0.066 C 
ATOM     23  C   LIG    1       -2.476   0.939   1.136  0.00  0.00    -0.062 C 
BRANCH  21  24
ATOM     24  C   LIG    1       -2.966   1.805   4.769  0.00  0.00    +0.112 C 
BRANCH  24  25
ATOM     25  C   LIG    1       -2.888   3.332   4.814  0.00  0.00    +0.171 C 
BRANCH  25  26
ATOM     26  O   LIG    1       -3.674   3.881   3.755  0.00  0.00    -0.394 OA
ATOM     27  H   LIG    1       -3.740   4.972   3.627  0.00  0.00    +0.209 HD
ENDBRANCH  25  26
ENDBRANCH  24  25
ENDBRANCH  21  24
ENDBRANCH   3  17
BRANCH   6  28
ATOM     28  C   LIG    1        4.510   1.486   0.750  0.00  0.00    +0.417 C 
ATOM     29  F   LIG    1        4.793   0.152   0.439  0.00  0.00    -0.166 F 
ATOM     30  F   LIG    1        4.335   1.616   2.132  0.00  0.00    -0.166 F 
ATOM     31  F   LIG    1        5.573   2.297   0.337  0.00  0.00    -0.166 F 
ENDBRANCH   6  28
TORSDOF 6
