REMARK  Name = ZINC29488267
REMARK                            x       y       z     vdW  Elec       q    Type
REMARK                         _______ _______ _______ _____ _____    ______ ____
ROOT
ATOM      1  C   LIG    1        0.762  -2.018   1.233  0.00  0.00    +0.089 A 
ATOM      2  N   LIG    1       -0.138  -2.794   1.773  0.00  0.00    -0.176 NA
ATOM      3  N   LIG    1        0.214  -4.133   1.563  0.00  0.00    -0.270 N 
ATOM      4  H   LIG    1       -0.287  -4.909   1.861  0.00  0.00    +0.189 HD
ATOM      5  C   LIG    1        1.391  -4.155   0.868  0.00  0.00    +0.149 A 
ATOM      6  C   LIG    1        2.228  -5.184   0.377  0.00  0.00    +0.277 A 
ATOM      7  O   LIG    1        1.943  -6.356   0.549  0.00  0.00    -0.265 OA
ATOM      8  N   LIG    1        3.352  -4.835  -0.287  0.00  0.00    -0.305 N 
ATOM      9  H   LIG    1        3.941  -5.524  -0.633  0.00  0.00    +0.170 HD
ATOM     10  C   LIG    1        3.663  -3.516  -0.474  0.00  0.00    +0.145 A 
ATOM     11  N   LIG    1        2.896  -2.551  -0.025  0.00  0.00    -0.225 NA
ATOM     12  C   LIG    1        1.759  -2.822   0.647  0.00  0.00    +0.119 A 
ENDROOT
BRANCH  10  13
ATOM     13  C   LIG    1        4.899  -3.167  -1.204  0.00  0.00    +0.059 A 
ATOM     14  C   LIG    1        5.730  -4.175  -1.698  0.00  0.00    +0.015 A 
ATOM     15  C   LIG    1        6.882  -3.843  -2.378  0.00  0.00    +0.001 A 
ATOM     16  C   LIG    1        7.219  -2.514  -2.574  0.00  0.00    +0.004 A 
ATOM     17  C   LIG    1        6.406  -1.508  -2.090  0.00  0.00    +0.046 A 
ATOM     18  C   LIG    1        5.240  -1.824  -1.409  0.00  0.00    +0.131 A 
BRANCH  18  19
ATOM     19  O   LIG    1        4.437  -0.837  -0.938  0.00  0.00    -0.492 OA
BRANCH  19  20
ATOM     20  C   LIG    1        4.850   0.509  -1.185  0.00  0.00    +0.226 C 
ATOM     21  C   LIG    1        3.827   1.475  -0.584  0.00  0.00    +0.048 C 
ENDBRANCH  19  20
ENDBRANCH  18  19
ENDBRANCH  10  13
BRANCH   1  22
ATOM     22  C   LIG    1        0.742  -0.511   1.242  0.00  0.00    +0.059 C 
BRANCH  22  24
ATOM     23  C   LIG    1       -0.019   1.526   0.010  0.00  0.00    +0.004 C 
ATOM     24  C   LIG    1        0.002  -0.004   0.002  0.00  0.00    +0.003 C 
ENDBRANCH  22  24
ENDBRANCH   1  22
TORSDOF 5
