REMARK  Name = ZINC71318533
REMARK                            x       y       z     vdW  Elec       q    Type
REMARK                         _______ _______ _______ _____ _____    ______ ____
ROOT
ATOM      1  C   LIG    1       -0.017   1.362   0.009  0.00  0.00    +0.001 A 
ATOM      2  C   LIG    1        1.169   2.084   0.002  0.00  0.00    +0.004 A 
ATOM      3  C   LIG    1        2.387   1.436  -0.015  0.00  0.00    +0.047 A 
ATOM      4  C   LIG    1        2.430   0.049  -0.024  0.00  0.00    +0.139 A 
ATOM      5  C   LIG    1        1.227  -0.681  -0.013  0.00  0.00    +0.018 A 
ATOM      6  C   LIG    1        1.277  -2.145  -0.014  0.00  0.00    +0.027 A 
ATOM      7  C   LIG    1        2.493  -2.738   0.245  0.00  0.00    +0.074 A 
ATOM      8  C   LIG    1        3.639  -1.845   0.500  0.00  0.00    +0.346 A 
ATOM      9  O   LIG    1        4.578  -2.211   1.181  0.00  0.00    -0.244 OA
ATOM     10  O   LIG    1        3.615  -0.607  -0.045  0.00  0.00    -0.422 OA
ATOM     11  C   LIG    1        0.002  -0.004   0.002  0.00  0.00    +0.011 A 
ENDROOT
BRANCH   7  12
ATOM     12  C   LIG    1        2.643  -4.205   0.267  0.00  0.00    +0.026 A 
ATOM     13  C   LIG    1        3.376  -5.011  -0.565  0.00  0.00    +0.016 A 
ATOM     14  C   LIG    1        3.364  -6.372  -0.349  0.00  0.00    +0.008 A 
ATOM     15  C   LIG    1        2.629  -6.872   0.678  0.00  0.00    +0.046 A 
ATOM     16  S   LIG    1        1.922  -5.394   1.388  0.00  0.00    -0.096 S 
ENDBRANCH   7  12
TORSDOF 1
