REMARK  Name = ZINC71318104
REMARK                            x       y       z     vdW  Elec       q    Type
REMARK                         _______ _______ _______ _____ _____    ______ ____
ROOT
ATOM      1  N   LIG    1       -0.005  -2.763  -4.836  0.00  0.00    -0.280 N 
ATOM      2  H   LIG    1        0.479  -3.599  -4.918  0.00  0.00    +0.155 HD
ATOM      3  C   LIG    1       -0.686  -2.272  -5.891  0.00  0.00    +0.270 C 
ATOM      4  O   LIG    1       -1.224  -1.184  -5.814  0.00  0.00    -0.268 OA
ENDROOT
BRANCH   1   8
ATOM      5  C   LIG    1        0.020  -0.685  -1.220  0.00  0.00    +0.030 A 
ATOM      6  C   LIG    1        0.023  -2.074  -1.223  0.00  0.00    +0.025 A 
ATOM      7  C   LIG    1        0.015  -2.761  -2.420  0.00  0.00    +0.025 A 
ATOM      8  C   LIG    1        0.003  -2.065  -3.622  0.00  0.00    +0.034 A 
ATOM      9  C   LIG    1       -0.000  -0.676  -3.619  0.00  0.00    +0.025 A 
ATOM     10  C   LIG    1        0.001   0.012  -2.422  0.00  0.00    +0.025 A 
BRANCH   5  12
ATOM     11  C   LIG    1        0.018   1.477  -0.004  0.00  0.00    +0.129 C 
ATOM     12  N   LIG    1        0.028   0.012  -0.007  0.00  0.00    -0.331 N 
BRANCH  12  13
ATOM     13  C   LIG    1        0.047  -0.723   1.260  0.00  0.00    +0.133 C 
BRANCH  13  14
ATOM     14  C   LIG    1       -1.388  -0.989   1.717  0.00  0.00    +0.178 C 
BRANCH  14  15
ATOM     15  O   LIG    1       -2.032  -1.860   0.784  0.00  0.00    -0.381 OA
ATOM     16  C   LIG    1       -3.385  -2.173   1.120  0.00  0.00    +0.194 C 
ENDBRANCH  14  15
ENDBRANCH  13  14
ENDBRANCH  12  13
ENDBRANCH   5  12
ENDBRANCH   1   8
BRANCH   3  17
ATOM     17  C   LIG    1       -0.780  -3.055  -7.137  0.00  0.00    +0.176 A 
ATOM     18  C   LIG    1       -1.427  -2.684  -8.277  0.00  0.00    +0.240 A 
ATOM     19  O   LIG    1       -1.267  -3.680  -9.164  0.00  0.00    -0.430 OA
ATOM     20  C   LIG    1       -0.535  -4.646  -8.581  0.00  0.00    +0.229 A 
ATOM     21  N   LIG    1       -0.232  -4.277  -7.363  0.00  0.00    -0.204 NA
BRANCH  20  22
ATOM     22  C   LIG    1       -0.132  -5.919  -9.217  0.00  0.00    +0.037 A 
ATOM     23  C   LIG    1       -0.508  -6.195 -10.533  0.00  0.00    +0.013 A 
ATOM     24  C   LIG    1       -0.129  -7.384 -11.120  0.00  0.00    +0.001 A 
ATOM     25  C   LIG    1        0.622  -8.303 -10.409  0.00  0.00    +0.000 A 
ATOM     26  C   LIG    1        0.997  -8.035  -9.104  0.00  0.00    +0.001 A 
ATOM     27  C   LIG    1        0.630  -6.847  -8.507  0.00  0.00    +0.013 A 
ENDBRANCH  20  22
BRANCH  18  28
ATOM     28  C   LIG    1       -2.181  -1.399  -8.501  0.00  0.00    +0.453 C 
ATOM     29  F   LIG    1       -2.714  -0.953  -7.287  0.00  0.00    -0.163 F 
ATOM     30  F   LIG    1       -3.218  -1.619  -9.413  0.00  0.00    -0.163 F 
ATOM     31  F   LIG    1       -1.310  -0.430  -9.011  0.00  0.00    -0.163 F 
ENDBRANCH  18  28
ENDBRANCH   3  17
TORSDOF 8
