REMARK  Name = ZINC34349848
REMARK                            x       y       z     vdW  Elec       q    Type
REMARK                         _______ _______ _______ _____ _____    ______ ____
ROOT
ATOM      1  C   LIG    1        1.444  -2.513  -2.505  0.00  0.00    +0.033 A 
ATOM      2  C   LIG    1        0.885  -2.683  -3.719  0.00  0.00    +0.105 A 
ATOM      3  N   LIG    1        1.874  -3.134  -4.550  0.00  0.00    -0.352 N 
ATOM      4  C   LIG    1        3.004  -3.225  -3.816  0.00  0.00    +0.171 A 
ATOM      5  H   LIG    1        1.781  -3.349  -5.492  0.00  0.00    +0.166 HD
ATOM      6  N   LIG    1        2.740  -2.847  -2.595  0.00  0.00    -0.350 N 
ATOM      7  H   LIG    1        3.380  -2.815  -1.867  0.00  0.00    +0.166 HD
ENDROOT
BRANCH   1   8
ATOM      8  C   LIG    1        0.739  -2.027  -1.265  0.00  0.00    +0.055 C 
BRANCH   8   9
ATOM      9  C   LIG    1        0.718  -0.497  -1.257  0.00  0.00    +0.006 C 
BRANCH   9  11
ATOM     10  C   LIG    1       -0.019   1.526   0.010  0.00  0.00    +0.004 C 
ATOM     11  C   LIG    1        0.002  -0.004   0.002  0.00  0.00    -0.003 C 
ENDBRANCH   9  11
ENDBRANCH   8   9
ENDBRANCH   1   8
TORSDOF 3
