REMARK  Name = ZINC26388776
REMARK                            x       y       z     vdW  Elec       q    Type
REMARK                         _______ _______ _______ _____ _____    ______ ____
ROOT
ATOM      1  C   LIG    1       -0.280   1.293  -4.906  0.00  0.00    +0.246 C 
ATOM      2  N   LIG    1       -0.716   1.631  -3.677  0.00  0.00    -0.311 N 
ATOM      3  H   LIG    1       -1.609   2.263  -3.565  0.00  0.00    +0.149 HD
ATOM      4  O   LIG    1        0.708   0.594  -5.030  0.00  0.00    -0.270 OA
ENDROOT
BRANCH   1  10
ATOM      5  C   LIG    1       -4.160   3.675  -6.936  0.00  0.00    +0.044 C 
ATOM      6  C   LIG    1       -2.866   2.917  -7.086  0.00  0.00    -0.050 A 
ATOM      7  C   LIG    1       -2.354   2.670  -8.350  0.00  0.00    +0.005 A 
ATOM      8  C   LIG    1       -1.171   1.977  -8.501  0.00  0.00    +0.024 A 
ATOM      9  C   LIG    1       -0.483   1.522  -7.383  0.00  0.00    +0.037 A 
ATOM     10  C   LIG    1       -0.999   1.770  -6.101  0.00  0.00    +0.058 A 
ATOM     11  C   LIG    1       -2.202   2.469  -5.965  0.00  0.00    +0.018 A 
BRANCH   9  12
ATOM     12  N   LIG    1        0.708   0.824  -7.532  0.00  0.00    -0.357 N 
ATOM     13  H   LIG    1        1.110   0.631  -8.538  0.00  0.00    +0.142 HD
ATOM     14  H   LIG    1        1.250   0.465  -6.645  0.00  0.00    +0.142 HD
ENDBRANCH   9  12
ENDBRANCH   1  10
BRANCH   2  15
ATOM     15  C   LIG    1       -0.001   1.156  -2.490  0.00  0.00    +0.104 C 
BRANCH  15  16
ATOM     16  C   LIG    1       -0.699   1.679  -1.232  0.00  0.00    +0.020 C 
BRANCH  16  17
ATOM     17  C   LIG    1        0.048   1.183   0.008  0.00  0.00    +0.023 C 
BRANCH  17  18
ATOM     18  C   LIG    1       -0.649   1.705   1.266  0.00  0.00    +0.123 C 
BRANCH  18  19
ATOM     19  N   LIG    1        0.066   1.231   2.454  0.00  0.00    -0.338 N 
ATOM     20  C   LIG    1       -0.176   0.070   3.137  0.00  0.00    +0.104 A 
ATOM     21  C   LIG    1        0.707   0.025   4.153  0.00  0.00    +0.101 A 
ATOM     22  N   LIG    1        1.461   1.133   4.097  0.00  0.00    -0.352 N 
ATOM     23  H   LIG    1        2.249   1.300   4.845  0.00  0.00    +0.166 HD
ATOM     24  C   LIG    1        1.082   1.860   3.082  0.00  0.00    +0.173 A 
ENDBRANCH  18  19
ENDBRANCH  17  18
ENDBRANCH  16  17
ENDBRANCH  15  16
ENDBRANCH   2  15
TORSDOF 7
