REMARK  Name = ZINC18150621
REMARK                            x       y       z     vdW  Elec       q    Type
REMARK                         _______ _______ _______ _____ _____    ______ ____
ROOT
ATOM      1  C   LIG    1       -2.477  -1.920  -0.813  0.00  0.00    +0.040 C 
ATOM      2  C   LIG    1       -3.596  -2.702  -0.867  0.00  0.00    +0.084 C 
ATOM      3  N   LIG    1       -4.403  -2.975   0.201  0.00  0.00    -0.300 NA
ATOM      4  H   LIG    1       -5.236  -3.570   0.114  0.00  0.00    +0.123 HD
ATOM      5  C   LIG    1       -4.038  -2.413   1.389  0.00  0.00    +0.146 C 
ATOM      6  C   LIG    1       -2.905  -1.597   1.534  0.00  0.00    +0.158 C 
ATOM      7  N   LIG    1       -2.337  -0.934   2.571  0.00  0.00    -0.268 NA
ATOM      8  C   LIG    1       -1.269  -0.315   2.160  0.00  0.00    +0.179 C 
ATOM      9  N   LIG    1       -1.086  -0.534   0.828  0.00  0.00    -0.307 N 
ATOM     10  C   LIG    1       -2.108  -1.348   0.403  0.00  0.00    +0.103 C 
ENDROOT
BRANCH   9  11
ATOM     11  C   LIG    1        0.002  -0.004   0.002  0.00  0.00    +0.129 C 
ATOM     12  C   LIG    1        1.341  -0.373   0.596  0.00  0.00    +0.002 C 
ATOM     13  C   LIG    1        2.154   0.648   0.594  0.00  0.00    -0.016 C 
ATOM     14  C   LIG    1        1.492   1.869  -0.002  0.00  0.00    +0.173 C 
ATOM     15  C   LIG    1       -0.019   1.542   0.011  0.00  0.00    +0.171 C 
BRANCH  14  16
ATOM     16  O   LIG    1        1.946   2.076  -1.341  0.00  0.00    -0.385 OA
ATOM     17  H   LIG    1        2.888   2.285  -1.410  0.00  0.00    +0.210 HD
ENDBRANCH  14  16
BRANCH  15  18
ATOM     18  O   LIG    1       -0.641   2.040   1.196  0.00  0.00    -0.387 OA
ATOM     19  H   LIG    1       -0.677   3.005   1.246  0.00  0.00    +0.210 HD
ENDBRANCH  15  18
BRANCH  13  20
ATOM     20  C   LIG    1        3.567   0.614   1.117  0.00  0.00    +0.189 C 
BRANCH  20  21
ATOM     21  O   LIG    1        3.863  -0.696   1.606  0.00  0.00    -0.391 OA
ATOM     22  H   LIG    1        4.758  -0.791   1.959  0.00  0.00    +0.210 HD
ENDBRANCH  20  21
ENDBRANCH  13  20
ENDBRANCH   9  11
BRANCH   5  23
ATOM     23  N   LIG    1       -4.846  -2.680   2.486  0.00  0.00    -0.314 NA
ATOM     24  H   LIG    1       -5.629  -3.243   2.386  0.00  0.00    +0.120 HD
ATOM     25  H   LIG    1       -4.628  -2.303   3.353  0.00  0.00    +0.120 HD
ENDBRANCH   5  23
TORSDOF 6
