REMARK  Name = ZINC00057278
REMARK                            x       y       z     vdW  Elec       q    Type
REMARK                         _______ _______ _______ _____ _____    ______ ____
ROOT
ATOM      1  N   LIG    1       -1.376  -0.512   0.012  0.00  0.00    +0.381 N 
ATOM      2  H   LIG    1       -1.873  -0.121   0.799  0.00  0.00    -0.086 HD
ATOM      3  H   LIG    1       -1.363  -1.518   0.090  0.00  0.00    -0.086 HD
ENDROOT
BRANCH   1   5
ATOM      4  C   LIG    1       -0.019   1.526   0.010  0.00  0.00    -0.014 C 
ATOM      5  C   LIG    1        0.002  -0.004   0.002  0.00  0.00    -0.075 C 
BRANCH   5   6
ATOM      6  C   LIG    1        0.742  -0.511   1.242  0.00  0.00    -0.011 C 
BRANCH   6   7
ATOM      7  C   LIG    1        0.872  -2.034   1.171  0.00  0.00    +0.033 C 
BRANCH   7   8
ATOM      8  C   LIG    1        1.601  -2.533   2.392  0.00  0.00    -0.047 A 
ATOM      9  C   LIG    1        2.979  -2.640   2.377  0.00  0.00    +0.007 A 
ATOM     10  C   LIG    1        3.650  -3.098   3.494  0.00  0.00    +0.045 A 
ATOM     11  C   LIG    1        2.939  -3.450   4.633  0.00  0.00    +0.117 A 
ATOM     12  C   LIG    1        1.556  -3.341   4.645  0.00  0.00    +0.045 A 
ATOM     13  C   LIG    1        0.890  -2.877   3.527  0.00  0.00    +0.007 A 
BRANCH  11  14
ATOM     14  O   LIG    1        3.596  -3.901   5.734  0.00  0.00    -0.507 OA
ATOM     15  H   LIG    1        3.855  -3.203   6.351  0.00  0.00    +0.292 HD
ENDBRANCH  11  14
ENDBRANCH   7   8
ENDBRANCH   6   7
ENDBRANCH   5   6
ENDBRANCH   1   5
BRANCH   1  16
ATOM     16  C   LIG    1       -2.050  -0.126  -1.234  0.00  0.00    -0.078 C 
BRANCH  16  17
ATOM     17  C   LIG    1       -3.485  -0.656  -1.224  0.00  0.00    +0.016 C 
BRANCH  17  18
ATOM     18  C   LIG    1       -4.177  -0.259  -2.502  0.00  0.00    -0.045 A 
ATOM     19  C   LIG    1       -4.859   0.941  -2.574  0.00  0.00    +0.007 A 
ATOM     20  C   LIG    1       -5.495   1.309  -3.745  0.00  0.00    +0.049 A 
ATOM     21  C   LIG    1       -5.449   0.475  -4.851  0.00  0.00    +0.158 A 
ATOM     22  C   LIG    1       -4.761  -0.733  -4.779  0.00  0.00    +0.158 A 
ATOM     23  C   LIG    1       -4.122  -1.094  -3.603  0.00  0.00    +0.052 A 
BRANCH  21  24
ATOM     24  O   LIG    1       -6.074   0.835  -6.003  0.00  0.00    -0.503 OA
ATOM     25  H   LIG    1       -5.518   1.343  -6.610  0.00  0.00    +0.292 HD
ENDBRANCH  21  24
BRANCH  22  26
ATOM     26  O   LIG    1       -4.713  -1.555  -5.861  0.00  0.00    -0.503 OA
ATOM     27  H   LIG    1       -3.962  -1.390  -6.447  0.00  0.00    +0.292 HD
ENDBRANCH  22  26
ENDBRANCH  17  18
ENDBRANCH  16  17
ENDBRANCH   1  16
TORSDOF 10
