REMARK  Name = ZINC28456590
REMARK                            x       y       z     vdW  Elec       q    Type
REMARK                         _______ _______ _______ _____ _____    ______ ____
ROOT
ATOM      1  C   LIG    1        1.178   3.560   0.009  0.00  0.00    +0.172 C 
ATOM      2  O   LIG    1        0.124   4.158   0.022  0.00  0.00    -0.292 OA
ENDROOT
BRANCH   1   7
ATOM      3  C   LIG    1        1.207  -0.683  -0.013  0.00  0.00    +0.021 A 
ATOM      4  C   LIG    1        0.002  -0.004   0.002  0.00  0.00    +0.022 A 
ATOM      5  C   LIG    1       -0.017   1.376   0.010  0.00  0.00    +0.052 A 
ATOM      6 CL   LIG    1       -1.530   2.226   0.021  0.00  0.00    -0.083 Cl
ATOM      7  C   LIG    1        1.189   2.089   0.002  0.00  0.00    +0.037 A 
ATOM      8  C   LIG    1        2.403   1.395  -0.013  0.00  0.00    +0.032 A 
ATOM      9  C   LIG    1        2.404   0.015  -0.021  0.00  0.00    +0.042 A 
ATOM     10 CL   LIG    1        3.910  -0.849  -0.039  0.00  0.00    -0.084 Cl
ENDBRANCH   1   7
BRANCH   1  11
ATOM     11  C   LIG    1        2.478   4.322   0.001  0.00  0.00    +0.166 C 
BRANCH  11  12
ATOM     12  C   LIG    1        2.192   5.802   0.011  0.00  0.00    +0.246 C 
ATOM     13  O   LIG    1        1.050   6.196   0.024  0.00  0.00    -0.285 OA
BRANCH  12  14
ATOM     14  C   LIG    1        3.318   6.779   0.006  0.00  0.00    +0.373 C 
ATOM     15  O   LIG    1        4.464   6.383  -0.007  0.00  0.00    -0.242 OA
BRANCH  14  16
ATOM     16  O   LIG    1        3.062   8.100   0.015  0.00  0.00    -0.475 OA
ATOM     17  H   LIG    1        2.177   8.406   0.025  0.00  0.00    +0.295 HD
ENDBRANCH  14  16
ENDBRANCH  12  14
ENDBRANCH  11  12
ENDBRANCH   1  11
TORSDOF 5
