REMARK  Name = ZINC16958043
REMARK                            x       y       z     vdW  Elec       q    Type
REMARK                         _______ _______ _______ _____ _____    ______ ____
ROOT
ATOM      1  C   LIG    1       -0.003   1.500  -0.154  0.00  0.00    +0.193 C 
ATOM      2  C   LIG    1        0.025   0.006  -0.351  0.00  0.00    +0.106 C 
ENDROOT
BRANCH   2   3
ATOM      3  C   LIG    1       -1.254  -0.438  -1.013  0.00  0.00    +0.143 A 
ATOM      4  C   LIG    1       -1.420  -1.838  -1.418  0.00  0.00    +0.276 A 
ATOM      5  N   LIG    1       -2.575  -2.221  -2.004  0.00  0.00    -0.319 N 
ATOM      6  C   LIG    1       -3.562  -1.280  -2.216  0.00  0.00    +0.068 A 
ATOM      7  C   LIG    1       -4.761  -1.642  -2.823  0.00  0.00    +0.028 A 
ATOM      8  C   LIG    1       -5.739  -0.694  -3.029  0.00  0.00    +0.002 A 
ATOM      9  C   LIG    1       -5.538   0.623  -2.635  0.00  0.00    +0.002 A 
ATOM     10  C   LIG    1       -4.371   1.001  -2.039  0.00  0.00    +0.030 A 
ATOM     11  C   LIG    1       -3.358   0.054  -1.817  0.00  0.00    +0.088 A 
ATOM     12  H   LIG    1       -2.718  -3.270  -2.304  0.00  0.00    +0.169 HD
ATOM     13  O   LIG    1       -0.529  -2.645  -1.223  0.00  0.00    -0.266 OA
ATOM     14  N   LIG    1       -2.206   0.425  -1.228  0.00  0.00    -0.240 NA
ENDBRANCH   2   3
BRANCH   1  17
ATOM     15  N   LIG    1        1.243   3.613   0.010  0.00  0.00    -0.279 N 
ATOM     16  H   LIG    1        0.281   4.141   0.077  0.00  0.00    +0.155 HD
ATOM     17  C   LIG    1        1.268   2.277  -0.167  0.00  0.00    +0.284 C 
ATOM     18  O   LIG    1        2.327   1.707  -0.337  0.00  0.00    -0.266 OA
BRANCH  15  23
ATOM     19  C   LIG    1        3.717   6.330  -0.286  0.00  0.00    +0.019 A 
ATOM     20  C   LIG    1        4.830   5.730   0.313  0.00  0.00    +0.011 A 
ATOM     21  C   LIG    1        4.740   4.443   0.801  0.00  0.00    +0.002 A 
ATOM     22  C   LIG    1        3.551   3.743   0.706  0.00  0.00    +0.023 A 
ATOM     23  C   LIG    1        2.440   4.327   0.107  0.00  0.00    +0.034 A 
ATOM     24  C   LIG    1        2.518   5.620  -0.387  0.00  0.00    +0.034 A 
BRANCH  19  26
ATOM     25  C   LIG    1        5.104   8.465  -0.698  0.00  0.00    +0.091 C 
ATOM     26  C   LIG    1        3.809   7.703  -0.808  0.00  0.00    +0.160 C 
ATOM     27  O   LIG    1        2.843   8.220  -1.326  0.00  0.00    -0.292 OA
ENDBRANCH  19  26
ENDBRANCH  15  23
ENDBRANCH   1  17
BRANCH   2  28
ATOM     28  C   LIG    1        0.162  -0.675   0.987  0.00  0.00    +0.275 C 
ATOM     29  O   LIG    1       -0.823  -1.060   1.571  0.00  0.00    -0.279 OA
BRANCH  28  30
ATOM     30  C   LIG    1        1.511  -0.873   1.588  0.00  0.00    +0.380 C 
ATOM     31  O   LIG    1        2.499  -0.486   1.002  0.00  0.00    -0.241 OA
BRANCH  30  32
ATOM     32  O   LIG    1        1.632  -1.481   2.783  0.00  0.00    -0.462 OA
ATOM     33  C   LIG    1        2.976  -1.639   3.308  0.00  0.00    +0.280 C 
ENDBRANCH  30  32
ENDBRANCH  28  30
ENDBRANCH   2  28
BRANCH   1  34
ATOM     34  O   LIG    1       -1.056   2.067   0.010  0.00  0.00    -0.502 OA
ATOM     35  H   LIG    1       -1.073   2.996   0.133  0.00  0.00    +0.292 HD
ENDBRANCH   1  34
TORSDOF 8
