REMARK  Name = ZINC14711629
REMARK                            x       y       z     vdW  Elec       q    Type
REMARK                         _______ _______ _______ _____ _____    ______ ____
ROOT
ATOM      1  C   LIG    1        3.160  -0.518   1.884  0.00  0.00    +0.037 A 
ATOM      2  C   LIG    1        3.245  -1.854   1.513  0.00  0.00    +0.127 A 
ATOM      3  C   LIG    1        2.296  -2.417   0.670  0.00  0.00    +0.092 A 
ATOM      4  C   LIG    1        1.253  -1.647   0.188  0.00  0.00    +0.138 A 
ATOM      5  C   LIG    1        1.164  -0.295   0.555  0.00  0.00    +0.101 A 
ATOM      6  C   LIG    1        0.075   0.548   0.051  0.00  0.00    +0.174 C 
ATOM      7  O   LIG    1       -0.648   0.183  -0.853  0.00  0.00    -0.292 OA
ATOM      8  C   LIG    1       -0.102   1.900   0.718  0.00  0.00    +0.129 C 
ATOM      9  C   LIG    1        1.302   2.472   0.964  0.00  0.00    +0.215 C 
ATOM     10  O   LIG    1        2.042   1.569   1.787  0.00  0.00    -0.482 OA
ATOM     11  C   LIG    1        2.125   0.270   1.415  0.00  0.00    +0.142 A 
ENDROOT
BRANCH   9  12
ATOM     12  C   LIG    1        1.188   3.805   1.657  0.00  0.00    +0.035 A 
ATOM     13  C   LIG    1        1.257   3.875   3.035  0.00  0.00    +0.014 A 
ATOM     14  C   LIG    1        1.158   5.097   3.673  0.00  0.00    +0.046 A 
ATOM     15  C   LIG    1        0.979   6.256   2.931  0.00  0.00    +0.120 A 
ATOM     16  C   LIG    1        0.903   6.188   1.548  0.00  0.00    +0.091 A 
ATOM     17  C   LIG    1        1.008   4.961   0.910  0.00  0.00    +0.127 A 
BRANCH  15  18
ATOM     18  O   LIG    1        0.876   7.457   3.559  0.00  0.00    -0.507 OA
ATOM     19  H   LIG    1       -0.030   7.702   3.793  0.00  0.00    +0.292 HD
ENDBRANCH  15  18
BRANCH  17  20
ATOM     20  O   LIG    1        0.935   4.891  -0.445  0.00  0.00    -0.506 OA
ATOM     21  H   LIG    1        0.038   4.768  -0.785  0.00  0.00    +0.292 HD
ENDBRANCH  17  20
ENDBRANCH   9  12
BRANCH   2  22
ATOM     22  O   LIG    1        4.266  -2.616   1.979  0.00  0.00    -0.506 OA
ATOM     23  H   LIG    1        4.074  -3.063   2.815  0.00  0.00    +0.292 HD
ENDBRANCH   2  22
BRANCH   4  24
ATOM     24  O   LIG    1        0.323  -2.194  -0.634  0.00  0.00    -0.494 OA
ATOM     25  C   LIG    1        0.480  -3.575  -0.964  0.00  0.00    +0.277 C 
ENDBRANCH   4  24
BRANCH   1  26
ATOM     26  C   LIG    1        4.199   0.075   2.800  0.00  0.00    +0.050 C 
BRANCH  26  27
ATOM     27  C   LIG    1        5.280   0.765   1.966  0.00  0.00    +0.022 C 
BRANCH  27  28
ATOM     28  C   LIG    1        6.031  -0.266   1.165  0.00  0.00    -0.076 C 
ATOM     29  C   LIG    1        6.877  -1.297   1.867  0.00  0.00    +0.039 C 
ATOM     30  C   LIG    1        5.949  -0.267  -0.143  0.00  0.00    +0.007 C 
ENDBRANCH  27  28
BRANCH  27  31
ATOM     31  C   LIG    1        6.252   1.496   2.895  0.00  0.00    +0.035 C 
BRANCH  31  35
ATOM     32  C   LIG    1        6.680   4.233   3.418  0.00  0.00    +0.038 C 
ATOM     33  C   LIG    1        7.403   3.560   2.280  0.00  0.00    -0.080 C 
ATOM     34  C   LIG    1        8.310   4.362   1.383  0.00  0.00    +0.038 C 
ATOM     35  C   LIG    1        7.244   2.276   2.071  0.00  0.00    -0.028 C 
ENDBRANCH  31  35
ENDBRANCH  27  31
ENDBRANCH  26  27
ENDBRANCH   1  26
TORSDOF 10
