REMARK  Name = ZINC00025672
REMARK                            x       y       z     vdW  Elec       q    Type
REMARK                         _______ _______ _______ _____ _____    ______ ____
ROOT
ATOM      1  C5M   T A  1       -0.018   1.503   0.010  0.00  0.00    +0.051 C 
ATOM      2  C5    T A  1        0.002  -0.004   0.002  0.00  0.00    +0.030 A 
ATOM      3  C6    T A  1       -1.153  -0.704   0.004  0.00  0.00    +0.101 A 
ATOM      4  N1    T A  1       -1.116  -2.072  -0.004  0.00  0.00    -0.274 N 
ATOM      5  C2    T A  1        0.060  -2.726  -0.013  0.00  0.00    +0.331 A 
ATOM      6  N3    T A  1        1.226  -2.053  -0.015  0.00  0.00    -0.275 N 
ATOM      7  H3    T A  1        2.064  -2.540  -0.022  0.00  0.00    +0.173 HD
ATOM      8  O2    T A  1        0.069  -3.942  -0.019  0.00  0.00    -0.246 OA
ATOM      9  C4    T A  1        1.232  -0.705  -0.013  0.00  0.00    +0.257 A 
ATOM     10  O4    T A  1        2.287  -0.095  -0.021  0.00  0.00    -0.267 OA
ENDROOT
BRANCH   4  11
ATOM     11  C1*   T A  1       -2.369  -2.831  -0.002  0.00  0.00    +0.226 C 
ATOM     12  C2*   T A  1       -2.499  -3.656  -1.301  0.00  0.00    +0.088 C 
ATOM     13  C3*   T A  1       -3.160  -4.976  -0.844  0.00  0.00    +0.150 C 
ATOM     14  C4*   T A  1       -3.351  -4.791   0.678  0.00  0.00    +0.175 C 
ATOM     15  O4*   T A  1       -2.362  -3.810   1.060  0.00  0.00    -0.348 OA
BRANCH  13  16
ATOM     16  O3*   T A  1       -4.422  -5.155  -1.491  0.00  0.00    -0.389 OA
ATOM     17  H3*   T A  1       -4.364  -5.216  -2.454  0.00  0.00    +0.210 HD
ENDBRANCH  13  16
BRANCH  14  18
ATOM     18  C5*   T A  1       -3.106  -6.112   1.410  0.00  0.00    +0.190 C 
BRANCH  18  19
ATOM     19  O5*   T A  1       -3.400  -5.950   2.799  0.00  0.00    -0.392 OA
ATOM     20  H5*   T A  1       -3.266  -6.750   3.325  0.00  0.00    +0.210 HD
ENDBRANCH  18  19
ENDBRANCH  14  18
ENDBRANCH   4  11
TORSDOF 4
