REMARK  Name = ZINC20223985
REMARK                            x       y       z     vdW  Elec       q    Type
REMARK                         _______ _______ _______ _____ _____    ______ ____
ROOT
ATOM      1  N   LIG    1        5.622  -3.157   1.515  0.00  0.00    -0.174 NA
ATOM      2  C   LIG    1        6.518  -2.210   2.194  0.00  0.00    +0.128 C 
ATOM      3  C   LIG    1        5.831  -1.719   3.474  0.00  0.00    +0.123 C 
ATOM      4  N   LIG    1        5.338  -2.886   4.220  0.00  0.00    -0.311 N 
ATOM      5  C   LIG    1        4.442  -3.833   3.540  0.00  0.00    +0.123 C 
ATOM      6  C   LIG    1        5.124  -4.321   2.261  0.00  0.00    +0.128 C 
ENDROOT
BRANCH   4   7
ATOM      7  C   LIG    1        5.711  -3.090   5.543  0.00  0.00    +0.140 A 
ATOM      8  C   LIG    1        4.939  -2.552   6.569  0.00  0.00    +0.081 A 
ATOM      9 CL   LIG    1        3.515  -1.628   6.207  0.00  0.00    -0.080 Cl
ATOM     10  C   LIG    1        5.323  -2.764   7.882  0.00  0.00    +0.037 A 
ATOM     11  C   LIG    1        6.470  -3.509   8.125  0.00  0.00    +0.074 A 
ATOM     12  C   LIG    1        7.188  -4.012   7.059  0.00  0.00    +0.125 A 
ATOM     13  N   LIG    1        6.795  -3.799   5.817  0.00  0.00    -0.238 NA
BRANCH  11  14
ATOM     14  C   LIG    1        6.926  -3.764   9.538  0.00  0.00    +0.419 C 
ATOM     15  F   LIG    1        6.538  -2.695  10.354  0.00  0.00    -0.166 F 
ATOM     16  F   LIG    1        8.319  -3.888   9.563  0.00  0.00    -0.166 F 
ATOM     17  F   LIG    1        6.344  -4.946  10.010  0.00  0.00    -0.166 F 
ENDBRANCH  11  14
ENDBRANCH   4   7
BRANCH   1  18
ATOM     18  S   LIG    1        5.177  -2.914  -0.062  0.00  0.00    +0.061 S 
ATOM     19  O   LIG    1        6.191  -2.110  -0.651  0.00  0.00    -0.153 OA
ATOM     20  O   LIG    1        4.815  -4.185  -0.582  0.00  0.00    -0.153 OA
BRANCH  18  26
ATOM     21  C   LIG    1        0.300   1.694  -0.028  0.00  0.00    +0.001 A 
ATOM     22  C   LIG    1        1.542   2.325  -0.067  0.00  0.00    +0.001 A 
ATOM     23  C   LIG    1        2.695   1.602  -0.082  0.00  0.00    +0.008 A 
ATOM     24  C   LIG    1        2.636   0.198  -0.057  0.00  0.00    -0.016 A 
ATOM     25  C   LIG    1        3.805  -0.582  -0.070  0.00  0.00    +0.037 A 
ATOM     26  C   LIG    1        3.709  -1.939  -0.044  0.00  0.00    +0.106 A 
ATOM     27  C   LIG    1        2.467  -2.570  -0.004  0.00  0.00    +0.029 A 
ATOM     28  C   LIG    1        1.314  -1.847   0.010  0.00  0.00    +0.010 A 
ATOM     29  C   LIG    1        1.373  -0.444  -0.016  0.00  0.00    -0.018 A 
ATOM     30  C   LIG    1        0.204   0.337  -0.003  0.00  0.00    +0.008 A 
ENDBRANCH  18  26
ENDBRANCH   1  18
TORSDOF 4
