REMARK  Name = ZINC13783311
REMARK                            x       y       z     vdW  Elec       q    Type
REMARK                         _______ _______ _______ _____ _____    ______ ____
ROOT
ATOM      1  C   LIG    1       -0.739  -5.006   1.273  0.00  0.00    +0.341 C 
ATOM      2  O   LIG    1       -1.665  -4.655   1.978  0.00  0.00    -0.245 OA
ENDROOT
BRANCH   1   3
ATOM      3  C   LIG    1       -0.515  -6.432   1.011  0.00  0.00    +0.084 A 
ATOM      4  C   LIG    1        0.479  -6.978   0.251  0.00  0.00    +0.098 A 
ATOM      5  N   LIG    1        0.362  -8.326   0.243  0.00  0.00    -0.360 N 
ATOM      6  C   LIG    1       -0.720  -8.721   1.003  0.00  0.00    +0.047 A 
ATOM      7  C   LIG    1       -1.264  -9.963   1.312  0.00  0.00    +0.026 A 
ATOM      8  C   LIG    1       -2.371 -10.045   2.128  0.00  0.00    +0.002 A 
ATOM      9  C   LIG    1       -2.960  -8.898   2.638  0.00  0.00    +0.001 A 
ATOM     10  C   LIG    1       -2.438  -7.657   2.340  0.00  0.00    +0.011 A 
ATOM     11  H   LIG    1        0.956  -8.930  -0.230  0.00  0.00    +0.165 HD
ATOM     12  C   LIG    1       -1.315  -7.560   1.523  0.00  0.00    +0.014 A 
ENDBRANCH   1   3
BRANCH   1  13
ATOM     13  O   LIG    1        0.083  -4.084   0.732  0.00  0.00    -0.458 OA
BRANCH  13  21
ATOM     14  C   LIG    1       -0.127   1.459  -0.043  0.00  0.00    -0.092 C 
ATOM     15  N   LIG    1        0.002  -0.004   0.002  0.00  0.00    +0.380 N 
ATOM     16  C   LIG    1        0.624  -0.506  -1.231  0.00  0.00    -0.092 C 
ATOM     17  C   LIG    1       -1.324  -0.640   0.220  0.00  0.00    -0.062 C 
ATOM     18  C   LIG    1       -1.601  -0.434   1.727  0.00  0.00    -0.016 C 
ATOM     19  C   LIG    1       -0.206  -0.291   2.370  0.00  0.00    -0.016 C 
ATOM     20  C   LIG    1       -1.155  -2.146  -0.039  0.00  0.00    +0.030 C 
ATOM     21  C   LIG    1       -0.194  -2.714   1.029  0.00  0.00    +0.174 C 
ATOM     22  C   LIG    1        1.114  -1.917   1.020  0.00  0.00    +0.030 C 
ATOM     23  C   LIG    1        0.787  -0.424   1.193  0.00  0.00    -0.062 C 
ENDBRANCH  13  21
ENDBRANCH   1  13
TORSDOF 3
