REMARK  Name = ZINC28375754
REMARK                            x       y       z     vdW  Elec       q    Type
REMARK                         _______ _______ _______ _____ _____    ______ ____
ROOT
ATOM      1  N   LIG    1        4.748   1.618  -0.739  0.00  0.00    -0.284 N 
ATOM      2  H   LIG    1        4.781   0.528  -0.882  0.00  0.00    +0.155 HD
ATOM      3  C   LIG    1        3.813   2.164   0.064  0.00  0.00    +0.240 C 
ATOM      4  O   LIG    1        3.835   3.354   0.297  0.00  0.00    -0.273 OA
ENDROOT
BRANCH   1   8
ATOM      5  C   LIG    1        9.282   2.289  -2.517  0.00  0.00    +0.046 C 
ATOM      6  C   LIG    1        7.882   2.787  -2.266  0.00  0.00    -0.027 A 
ATOM      7  C   LIG    1        6.966   1.979  -1.623  0.00  0.00    +0.028 A 
ATOM      8  C   LIG    1        5.677   2.438  -1.391  0.00  0.00    +0.034 A 
ATOM      9  C   LIG    1        5.307   3.709  -1.812  0.00  0.00    +0.025 A 
ATOM     10  C   LIG    1        6.223   4.519  -2.451  0.00  0.00    +0.025 A 
ATOM     11  C   LIG    1        7.514   4.060  -2.682  0.00  0.00    +0.039 A 
BRANCH  11  12
ATOM     12  N   LIG    1        8.443   4.880  -3.334  0.00  0.00    -0.267 N 
ATOM     13  C   LIG    1        8.540   4.810  -4.790  0.00  0.00    +0.142 C 
ATOM     14  C   LIG    1        9.242   6.063  -5.325  0.00  0.00    +0.180 C 
ATOM     15  O   LIG    1       10.447   6.263  -4.576  0.00  0.00    -0.369 OA
ATOM     16  C   LIG    1       10.205   6.637  -3.218  0.00  0.00    +0.256 C 
ATOM     17  C   LIG    1        9.211   5.694  -2.599  0.00  0.00    +0.246 C 
ATOM     18  O   LIG    1        9.101   5.669  -1.392  0.00  0.00    -0.273 OA
ENDBRANCH  11  12
ENDBRANCH   1   8
BRANCH   3  19
ATOM     19  C   LIG    1        2.741   1.296   0.671  0.00  0.00    +0.185 C 
BRANCH  19  20
ATOM     20  N   LIG    1        1.855   2.121   1.496  0.00  0.00    -0.298 N 
ATOM     21  H   LIG    1        2.224   3.062   1.929  0.00  0.00    +0.150 HD
ATOM     22  C   LIG    1        0.587   1.726   1.726  0.00  0.00    +0.251 C 
ATOM     23  O   LIG    1        0.178   0.684   1.247  0.00  0.00    -0.270 OA
BRANCH  22  24
ATOM     24  C   LIG    1       -0.301   2.553   2.546  0.00  0.00    +0.075 A 
ATOM     25  C   LIG    1       -1.625   2.334   2.894  0.00  0.00    +0.022 A 
ATOM     26  C   LIG    1       -2.229   3.280   3.683  0.00  0.00    +0.028 A 
ATOM     27  C   LIG    1       -1.514   4.369   4.079  0.00  0.00    +0.079 A 
ATOM     28 CL   LIG    1       -2.033   5.698   5.067  0.00  0.00    -0.076 Cl
ATOM     29  S   LIG    1        0.042   4.102   3.363  0.00  0.00    -0.072 S 
ENDBRANCH  22  24
ENDBRANCH  19  20
BRANCH  19  30
ATOM     30  C   LIG    1        3.389   0.217   1.540  0.00  0.00    +0.191 C 
BRANCH  30  31
ATOM     31  O   LIG    1        4.240   0.834   2.509  0.00  0.00    -0.381 OA
ATOM     32  C   LIG    1        4.899  -0.091   3.377  0.00  0.00    +0.194 C 
ENDBRANCH  30  31
ENDBRANCH  19  30
ENDBRANCH   3  19
TORSDOF 7
