REMARK  Name = ZINC00033882
REMARK                            x       y       z     vdW  Elec       q    Type
REMARK                         _______ _______ _______ _____ _____    ______ ____
ROOT
ATOM      1  C   LIG    1       -0.017   1.378   0.010  0.00  0.00    +0.007 A 
ATOM      2  C   LIG    1        1.170   2.089   0.002  0.00  0.00    +0.049 A 
ATOM      3  C   LIG    1        2.380   1.415  -0.013  0.00  0.00    +0.158 A 
ATOM      4  C   LIG    1        2.399   0.024  -0.021  0.00  0.00    +0.158 A 
ATOM      5  C   LIG    1        1.207  -0.682  -0.013  0.00  0.00    +0.052 A 
ATOM      6  C   LIG    1        0.002  -0.004   0.002  0.00  0.00    -0.045 A 
ENDROOT
BRANCH   3   7
ATOM      7  O   LIG    1        3.548   2.113  -0.021  0.00  0.00    -0.503 OA
ATOM      8  H   LIG    1        3.894   2.310   0.860  0.00  0.00    +0.292 HD
ENDBRANCH   3   7
BRANCH   4   9
ATOM      9  O   LIG    1        3.585  -0.642  -0.036  0.00  0.00    -0.503 OA
ATOM     10  H   LIG    1        3.937  -0.839   0.843  0.00  0.00    +0.292 HD
ENDBRANCH   4   9
BRANCH   6  11
ATOM     11  C   LIG    1       -1.294  -0.774   0.010  0.00  0.00    +0.016 C 
BRANCH  11  12
ATOM     12  C   LIG    1       -1.746  -1.026  -1.429  0.00  0.00    -0.082 C 
BRANCH  12  13
ATOM     13  N   LIG    1       -3.009  -1.776  -1.421  0.00  0.00    +0.378 N 
ATOM     14  H   LIG    1       -3.307  -1.943  -2.371  0.00  0.00    -0.090 HD
ATOM     15  H   LIG    1       -3.714  -1.242  -0.936  0.00  0.00    -0.090 HD
ATOM     16  H   LIG    1       -2.873  -2.659  -0.952  0.00  0.00    -0.090 HD
ENDBRANCH  12  13
ENDBRANCH  11  12
ENDBRANCH   6  11
TORSDOF 5
