REMARK  Name = ZINC14806879
REMARK                            x       y       z     vdW  Elec       q    Type
REMARK                         _______ _______ _______ _____ _____    ______ ____
ROOT
ATOM      1  C   LIG    1       -1.201  -0.638   0.010  0.00  0.00    +0.121 A 
ATOM      2  C   LIG    1       -2.377   0.103   0.020  0.00  0.00    +0.047 A 
ATOM      3  C   LIG    1       -3.603  -0.529   0.028  0.00  0.00    +0.027 A 
ATOM      4  C   LIG    1       -3.675  -1.917   0.027  0.00  0.00    +0.042 A 
ATOM      5  C   LIG    1       -2.489  -2.663   0.017  0.00  0.00    +0.012 A 
ATOM      6  C   LIG    1       -2.891  -4.088   0.019  0.00  0.00    +0.048 C 
ATOM      7  C   LIG    1       -4.362  -4.070   0.030  0.00  0.00    +0.249 C 
ATOM      8  O   LIG    1       -5.089  -5.047   0.035  0.00  0.00    -0.270 OA
ATOM      9  C   LIG    1       -2.067  -5.190   0.012  0.00  0.00    +0.043 C 
ATOM     10  N   LIG    1       -4.762  -2.787   0.035  0.00  0.00    -0.281 N 
ATOM     11  H   LIG    1       -5.689  -2.504   0.043  0.00  0.00    +0.155 HD
ATOM     12  C   LIG    1       -1.255  -2.021   0.003  0.00  0.00    +0.056 A 
ENDROOT
BRANCH   9  13
ATOM     13  C   LIG    1       -2.644  -6.535   0.014  0.00  0.00    +0.082 A 
ATOM     14  C   LIG    1       -1.945  -7.725   0.014  0.00  0.00    +0.111 A 
ATOM     15  N   LIG    1       -2.873  -8.719   0.017  0.00  0.00    -0.350 N 
ATOM     16  C   LIG    1       -4.101  -8.138   0.020  0.00  0.00    +0.197 A 
ATOM     17  H   LIG    1       -2.691  -9.672   0.018  0.00  0.00    +0.166 HD
ATOM     18  N   LIG    1       -3.967  -6.844   0.024  0.00  0.00    -0.237 NA
ENDBRANCH   9  13
BRANCH   1  20
ATOM     19  C   LIG    1       -0.017   1.425   0.010  0.00  0.00    +0.277 C 
ATOM     20  O   LIG    1        0.002  -0.004   0.002  0.00  0.00    -0.495 OA
ENDBRANCH   1  20
TORSDOF 2
