REMARK  Name = ZINC20526474
REMARK                            x       y       z     vdW  Elec       q    Type
REMARK                         _______ _______ _______ _____ _____    ______ ____
ROOT
ATOM      1  C   LIG    1       -3.717   3.330   0.044  0.00  0.00    +0.011 A 
ATOM      2  C   LIG    1       -4.921   3.997   0.047  0.00  0.00    +0.046 A 
ATOM      3  C   LIG    1       -6.114   3.284   0.049  0.00  0.00    +0.121 A 
ATOM      4  C   LIG    1       -6.098   1.893   0.041  0.00  0.00    +0.046 A 
ATOM      5  C   LIG    1       -4.899   1.217   0.032  0.00  0.00    +0.011 A 
ATOM      6  C   LIG    1       -3.695   1.931   0.030  0.00  0.00    -0.025 A 
ENDROOT
BRANCH   6   7
ATOM      7  C   LIG    1       -2.412   1.213   0.020  0.00  0.00    +0.015 C 
ATOM      8  C   LIG    1       -1.252   1.904   0.018  0.00  0.00    +0.092 C 
BRANCH   8   9
ATOM      9  C   LIG    1       -0.014   1.212   0.009  0.00  0.00    +0.330 C 
ATOM     10  O   LIG    1        0.002  -0.004   0.002  0.00  0.00    -0.246 OA
BRANCH   9  11
ATOM     11  O   LIG    1        1.145   1.903   0.001  0.00  0.00    -0.478 OA
ATOM     12  H   LIG    1        1.132   2.840   0.006  0.00  0.00    +0.295 HD
ENDBRANCH   9  11
ENDBRANCH   8   9
ENDBRANCH   6   7
BRANCH   3  13
ATOM     13  O   LIG    1       -7.298   3.946   0.058  0.00  0.00    -0.490 OA
BRANCH  13  14
ATOM     14  C   LIG    1       -7.243   5.374   0.066  0.00  0.00    +0.250 C 
BRANCH  14  15
ATOM     15  C   LIG    1       -8.665   5.940   0.076  0.00  0.00    +0.163 C 
BRANCH  15  16
ATOM     16  N   LIG    1       -8.608   7.404   0.084  0.00  0.00    -0.334 N 
ATOM     17  C   LIG    1       -8.576   8.209   1.190  0.00  0.00    +0.107 A 
ATOM     18  C   LIG    1       -8.523   9.479   0.745  0.00  0.00    +0.130 A 
ATOM     19  N   LIG    1       -8.532   9.450  -0.596  0.00  0.00    -0.244 NA
ATOM     20  C   LIG    1       -8.583   8.210  -0.999  0.00  0.00    +0.199 A 
ENDBRANCH  15  16
ENDBRANCH  14  15
ENDBRANCH  13  14
ENDBRANCH   3  13
TORSDOF 7
