REMARK  Name = ZINC14951244
REMARK                            x       y       z     vdW  Elec       q    Type
REMARK                         _______ _______ _______ _____ _____    ______ ____
ROOT
ATOM      1  C   LIG    1        3.707  -1.907   1.237  0.00  0.00    +0.392 C 
ATOM      2  N   LIG    1        2.797  -2.682   1.775  0.00  0.00    -0.129 NA
ATOM      3  H   LIG    1        2.923  -3.643   1.784  0.00  0.00    +0.306 HD
ENDROOT
BRANCH   1   4
ATOM      4  N   LIG    1        4.735  -2.450   0.553  0.00  0.00    -0.189 N 
ATOM      5  H   LIG    1        5.469  -1.889   0.256  0.00  0.00    +0.271 HD
ATOM      6  C   LIG    1        4.742  -3.742   0.287  0.00  0.00    +0.350 C 
BRANCH   6   7
ATOM      7  N   LIG    1        5.897  -4.351  -0.117  0.00  0.00    -0.291 N 
ATOM      8  H   LIG    1        5.902  -5.301  -0.313  0.00  0.00    +0.255 HD
ATOM      9  H   LIG    1        6.712  -3.832  -0.208  0.00  0.00    +0.255 HD
ENDBRANCH   6   7
BRANCH   6  10
ATOM     10  N   LIG    1        3.593  -4.472   0.415  0.00  0.00    -0.291 N 
ATOM     11  H   LIG    1        3.641  -5.420   0.619  0.00  0.00    +0.255 HD
ATOM     12  H   LIG    1        2.731  -4.043   0.303  0.00  0.00    +0.255 HD
ENDBRANCH   6  10
ENDBRANCH   1   4
BRANCH   1  13
ATOM     13  N   LIG    1        3.613  -0.535   1.371  0.00  0.00    -0.243 N 
ATOM     14  H   LIG    1        4.328   0.034   1.044  0.00  0.00    +0.265 HD
BRANCH  13  18
ATOM     15  C   LIG    1        0.263   1.158   3.175  0.00  0.00    +0.000 A 
ATOM     16  C   LIG    1        1.501   1.754   3.323  0.00  0.00    +0.003 A 
ATOM     17  C   LIG    1        2.614   1.196   2.726  0.00  0.00    +0.042 A 
ATOM     18  C   LIG    1        2.489   0.033   1.977  0.00  0.00    +0.100 A 
ATOM     19  C   LIG    1        1.243  -0.564   1.830  0.00  0.00    +0.042 A 
ATOM     20  C   LIG    1        0.134   0.000   2.429  0.00  0.00    +0.003 A 
ENDBRANCH  13  18
ENDBRANCH   1  13
TORSDOF 5
