REMARK  Name = ZINC44405223
REMARK                            x       y       z     vdW  Elec       q    Type
REMARK                         _______ _______ _______ _____ _____    ______ ____
ROOT
ATOM      1  C   LIG    1       -2.829  -2.568  -0.234  0.00  0.00    -0.049 A 
ATOM      2  C   LIG    1       -3.535  -2.902   0.907  0.00  0.00    +0.004 A 
ATOM      3  C   LIG    1       -4.830  -3.371   0.808  0.00  0.00    +0.015 A 
ATOM      4  C   LIG    1       -5.424  -3.507  -0.441  0.00  0.00    +0.008 A 
ATOM      5  C   LIG    1       -4.712  -3.170  -1.586  0.00  0.00    +0.015 A 
ATOM      6  C   LIG    1       -3.419  -2.697  -1.478  0.00  0.00    +0.004 A 
ENDROOT
BRANCH   1   7
ATOM      7  C   LIG    1       -1.416  -2.058  -0.121  0.00  0.00    +0.019 C 
BRANCH   7   8
ATOM      8  C   LIG    1       -1.433  -0.534   0.013  0.00  0.00    -0.071 C 
BRANCH   8   9
ATOM      9  N   LIG    1       -2.083  -0.161   1.276  0.00  0.00    +0.380 N 
ATOM     10  H   LIG    1       -1.571  -0.560   2.049  0.00  0.00    -0.090 HD
ATOM     11  H   LIG    1       -3.030  -0.510   1.284  0.00  0.00    -0.090 HD
ATOM     12  H   LIG    1       -2.095   0.844   1.365  0.00  0.00    -0.090 HD
ENDBRANCH   8   9
BRANCH   8  14
ATOM     13  C   LIG    1       -0.019   1.526   0.010  0.00  0.00    +0.002 C 
ATOM     14  C   LIG    1        0.002  -0.004   0.002  0.00  0.00    -0.019 C 
ENDBRANCH   8  14
ENDBRANCH   7   8
ENDBRANCH   1   7
BRANCH   4  15
ATOM     15  S   LIG    1       -7.076  -4.105  -0.573  0.00  0.00    -0.125 S 
BRANCH  15  16
ATOM     16  C   LIG    1       -7.401  -4.106  -2.358  0.00  0.00    +0.071 C 
ATOM     17  C   LIG    1       -8.822  -4.611  -2.617  0.00  0.00    +0.015 C 
ENDBRANCH  15  16
ENDBRANCH   4  15
TORSDOF 6
