REMARK  Name = ZINC34885047
REMARK                            x       y       z     vdW  Elec       q    Type
REMARK                         _______ _______ _______ _____ _____    ______ ____
ROOT
ATOM      1  C   LIG    1        0.155  -3.175   2.896  0.00  0.00    +0.144 C 
ATOM      2  C   LIG    1        0.132  -1.937   3.535  0.00  0.00    +0.073 C 
ATOM      3  C   LIG    1        0.246  -1.903   4.922  0.00  0.00    +0.128 C 
ATOM      4  N   LIG    1        0.371  -3.046   5.590  0.00  0.00    -0.282 NA
ATOM      5  H   LIG    1       -0.409  -3.087   6.246  0.00  0.00    +0.125 HD
ATOM      6  C   LIG    1        0.389  -4.210   4.949  0.00  0.00    +0.148 C 
ATOM      7  N   LIG    1        0.278  -4.279   3.627  0.00  0.00    -0.280 NA
ATOM      8  H   LIG    1        0.290  -5.145   3.189  0.00  0.00    +0.125 HD
ENDROOT
BRANCH   3   9
ATOM      9  N   LIG    1        0.229  -0.693   5.599  0.00  0.00    -0.291 NA
ATOM     10  C   LIG    1        0.561  -0.622   7.030  0.00  0.00    +0.067 C 
ATOM     11  C   LIG    1        1.611   0.476   7.231  0.00  0.00    -0.064 C 
ATOM     12  N   LIG    1        1.117   1.735   6.660  0.00  0.00    +0.379 N 
ATOM     13  H   LIG    1        0.224   1.962   7.073  0.00  0.00    -0.082 HD
ATOM     14  C   LIG    1        2.074   2.811   6.950  0.00  0.00    -0.096 C 
ATOM     15  C   LIG    1        0.961   1.599   5.207  0.00  0.00    -0.064 C 
ATOM     16  C   LIG    1       -0.115   0.557   4.904  0.00  0.00    +0.067 C 
ENDBRANCH   3   9
BRANCH   1  17
ATOM     17  N   LIG    1        0.044  -3.255   1.515  0.00  0.00    -0.314 N 
ATOM     18  H   LIG    1       -0.291  -4.066   1.102  0.00  0.00    +0.149 HD
BRANCH  17  24
ATOM     19  C   LIG    1        0.721  -0.266  -2.422  0.00  0.00    +0.067 C 
ATOM     20  C   LIG    1        0.731  -0.813  -1.018  0.00  0.00    +0.062 A 
ATOM     21  N   LIG    1        1.232  -0.215   0.032  0.00  0.00    -0.178 NA
ATOM     22  N   LIG    1        1.042  -1.044   1.146  0.00  0.00    -0.264 N 
ATOM     23  H   LIG    1        1.313  -0.848   2.056  0.00  0.00    +0.190 HD
ATOM     24  C   LIG    1        0.414  -2.171   0.723  0.00  0.00    +0.115 A 
ATOM     25  C   LIG    1        0.212  -2.048  -0.618  0.00  0.00    +0.067 A 
ENDBRANCH  17  24
ENDBRANCH   1  17
BRANCH   6  26
ATOM     26  C   LIG    1        0.530  -5.454   5.724  0.00  0.00    +0.008 C 
ATOM     27  C   LIG    1        0.638  -5.404   7.062  0.00  0.00    +0.006 C 
BRANCH  27  28
ATOM     28  C   LIG    1        0.779  -6.649   7.837  0.00  0.00    -0.025 A 
ATOM     29  C   LIG    1        0.806  -7.884   7.183  0.00  0.00    +0.008 A 
ATOM     30  C   LIG    1        0.938  -9.045   7.915  0.00  0.00    +0.001 A 
ATOM     31  C   LIG    1        1.044  -8.990   9.294  0.00  0.00    +0.000 A 
ATOM     32  C   LIG    1        1.018  -7.771   9.948  0.00  0.00    +0.001 A 
ATOM     33  C   LIG    1        0.893  -6.601   9.229  0.00  0.00    +0.008 A 
ENDBRANCH  27  28
ENDBRANCH   6  26
TORSDOF 5
