REMARK  Name = ZINC13808139
REMARK                            x       y       z     vdW  Elec       q    Type
REMARK                         _______ _______ _______ _____ _____    ______ ____
ROOT
ATOM      1  S   LIG    1       -1.512  -0.905   0.012  0.00  0.00    +0.086 S 
ATOM      2  O   LIG    1       -2.493  -0.046   0.577  0.00  0.00    -0.151 OA
ATOM      3  O   LIG    1       -1.218  -2.186   0.553  0.00  0.00    -0.151 OA
ENDROOT
BRANCH   1  10
ATOM      4  C   LIG    1       -0.017   1.378   0.010  0.00  0.00    +0.030 A 
ATOM      5  C   LIG    1        1.171   2.086   0.002  0.00  0.00    +0.017 A 
ATOM      6  C   LIG    1        2.378   1.411  -0.013  0.00  0.00    +0.018 A 
ATOM      7 BR   LIG    1        4.003   2.378  -0.024  0.00  0.00    -0.050 Br
ATOM      8  C   LIG    1        2.396   0.027  -0.021  0.00  0.00    +0.017 A 
ATOM      9  C   LIG    1        1.208  -0.679  -0.013  0.00  0.00    +0.030 A 
ATOM     10  C   LIG    1        0.002  -0.004   0.002  0.00  0.00    +0.108 A 
ENDBRANCH   1  10
BRANCH   1  11
ATOM     11  N   LIG    1       -1.948  -1.147  -1.567  0.00  0.00    -0.050 NA
ATOM     12  H   LIG    1       -2.791  -0.799  -1.897  0.00  0.00    +0.191 HD
BRANCH  11  13
ATOM     13  N   LIG    1       -1.098  -1.855  -2.428  0.00  0.00    -0.182 N 
ATOM     14  H   LIG    1       -0.178  -1.572  -2.542  0.00  0.00    +0.285 HD
BRANCH  13  15
ATOM     15  C   LIG    1       -1.570  -2.952  -3.111  0.00  0.00    +0.394 C 
ATOM     16  N   LIG    1       -2.807  -3.333  -2.957  0.00  0.00    -0.128 NA
ATOM     17  H   LIG    1       -3.395  -2.843  -2.361  0.00  0.00    +0.306 HD
BRANCH  15  18
ATOM     18  N   LIG    1       -0.736  -3.646  -3.955  0.00  0.00    -0.288 N 
ATOM     19  H   LIG    1       -1.069  -4.420  -4.437  0.00  0.00    +0.255 HD
ATOM     20  H   LIG    1        0.184  -3.363  -4.069  0.00  0.00    +0.255 HD
ENDBRANCH  15  18
ENDBRANCH  13  15
ENDBRANCH  11  13
ENDBRANCH   1  11
TORSDOF 5
