REMARK  Name = ZINC24800189
REMARK                            x       y       z     vdW  Elec       q    Type
REMARK                         _______ _______ _______ _____ _____    ______ ____
ROOT
ATOM      1  N   LIG    1        7.314   1.473  -0.068  0.00  0.00    -0.199 N 
ATOM      2  H   LIG    1        8.023   2.155  -0.070  0.00  0.00    +0.175 HD
ENDROOT
BRANCH   1   5
ATOM      3  C   LIG    1        3.740   1.825  -0.024  0.00  0.00    +0.102 A 
ATOM      4  C   LIG    1        4.902   1.027  -0.045  0.00  0.00    +0.075 A 
ATOM      5  C   LIG    1        5.977   1.859  -0.050  0.00  0.00    +0.142 A 
ATOM      6  N   LIG    1        5.510   3.139  -0.032  0.00  0.00    -0.217 N 
ATOM      7  N   LIG    1        4.111   3.090  -0.022  0.00  0.00    -0.164 NA
BRANCH   6   8
ATOM      8  C   LIG    1        6.294   4.301  -0.030  0.00  0.00    +0.068 A 
ATOM      9  C   LIG    1        7.509   4.318   0.642  0.00  0.00    +0.030 A 
ATOM     10  C   LIG    1        8.280   5.464   0.643  0.00  0.00    +0.040 A 
ATOM     11  C   LIG    1        7.842   6.595  -0.025  0.00  0.00    +0.124 A 
ATOM     12  F   LIG    1        8.597   7.715  -0.023  0.00  0.00    -0.205 F 
ATOM     13  C   LIG    1        6.630   6.580  -0.695  0.00  0.00    +0.040 A 
ATOM     14  C   LIG    1        5.859   5.434  -0.704  0.00  0.00    +0.030 A 
ENDBRANCH   6   8
BRANCH   3  17
ATOM     15  C   LIG    1       -0.016   1.353   0.009  0.00  0.00    +0.008 A 
ATOM     16  C   LIG    1        1.178   2.041   0.002  0.00  0.00    +0.018 A 
ATOM     17  C   LIG    1        2.347   1.329  -0.013  0.00  0.00    +0.039 A 
ATOM     18  S   LIG    1        1.752  -0.354  -0.017  0.00  0.00    -0.095 S 
ATOM     19  C   LIG    1        0.002  -0.004   0.002  0.00  0.00    +0.046 A 
ENDBRANCH   3  17
ENDBRANCH   1   5
BRANCH   1  20
ATOM     20  S   LIG    1        7.711  -0.135  -0.088  0.00  0.00    +0.074 S 
ATOM     21  O   LIG    1        7.260  -0.649  -1.333  0.00  0.00    -0.150 OA
ATOM     22  O   LIG    1        7.287  -0.673   1.157  0.00  0.00    -0.150 OA
BRANCH  20  23
ATOM     23  C   LIG    1        9.470  -0.236  -0.108  0.00  0.00    +0.110 A 
ATOM     24  C   LIG    1       10.147  -0.260  -1.313  0.00  0.00    +0.041 A 
ATOM     25  C   LIG    1       11.527  -0.339  -1.329  0.00  0.00    +0.057 A 
ATOM     26  C   LIG    1       12.230  -0.396  -0.141  0.00  0.00    +0.024 A 
ATOM     27  C   LIG    1       11.553  -0.372   1.064  0.00  0.00    +0.057 A 
ATOM     28  C   LIG    1       10.173  -0.288   1.081  0.00  0.00    +0.041 A 
BRANCH  25  29
ATOM     29  C   LIG    1       12.265  -0.365  -2.643  0.00  0.00    +0.417 C 
ATOM     30  F   LIG    1       11.461  -0.967  -3.618  0.00  0.00    -0.166 F 
ATOM     31  F   LIG    1       13.449  -1.097  -2.499  0.00  0.00    -0.166 F 
ATOM     32  F   LIG    1       12.569   0.943  -3.033  0.00  0.00    -0.166 F 
ENDBRANCH  25  29
BRANCH  27  33
ATOM     33  C   LIG    1       12.319  -0.434   2.361  0.00  0.00    +0.417 C 
ATOM     34  F   LIG    1       11.923  -1.564   3.083  0.00  0.00    -0.166 F 
ATOM     35  F   LIG    1       12.057   0.716   3.113  0.00  0.00    -0.166 F 
ATOM     36  F   LIG    1       13.689  -0.510   2.089  0.00  0.00    -0.166 F 
ENDBRANCH  27  33
ENDBRANCH  20  23
ENDBRANCH   1  20
TORSDOF 7
