REMARK  Name = ZINC22864790
REMARK                            x       y       z     vdW  Elec       q    Type
REMARK                         _______ _______ _______ _____ _____    ______ ____
ROOT
ATOM      1  C   LIG    1        1.274  -2.141  -0.026  0.00  0.00    +0.083 A 
ATOM      2  C   LIG    1        0.100  -2.840  -0.022  0.00  0.00    +0.078 A 
ATOM      3  S   LIG    1        0.711  -4.520  -0.034  0.00  0.00    -0.038 S 
ATOM      4  C   LIG    1        2.454  -4.125  -0.043  0.00  0.00    +0.272 A 
ATOM      5  N   LIG    1        2.424  -2.798  -0.042  0.00  0.00    -0.206 NA
ENDROOT
BRANCH   1  11
ATOM      6  C   LIG    1        0.043   1.411   0.002  0.00  0.00    +0.001 A 
ATOM      7  C   LIG    1        1.237   2.112  -0.007  0.00  0.00    +0.001 A 
ATOM      8  C   LIG    1        2.442   1.434  -0.022  0.00  0.00    +0.020 A 
ATOM      9  C   LIG    1        2.461   0.053  -0.028  0.00  0.00    +0.050 A 
ATOM     10 CL   LIG    1        3.975  -0.796  -0.048  0.00  0.00    -0.083 Cl
ATOM     11  C   LIG    1        1.261  -0.658  -0.019  0.00  0.00    +0.019 A 
ATOM     12  C   LIG    1        0.050   0.031  -0.004  0.00  0.00    +0.011 A 
ENDBRANCH   1  11
BRANCH   4  13
ATOM     13  N   LIG    1        3.526  -4.960  -0.053  0.00  0.00    -0.045 NA
ATOM     14  C   LIG    1        4.116  -5.287   1.077  0.00  0.00    +0.384 C 
BRANCH  14  15
ATOM     15  N   LIG    1        5.262  -6.039   1.060  0.00  0.00    -0.289 N 
ATOM     16  H   LIG    1        5.697  -6.280   1.893  0.00  0.00    +0.255 HD
ATOM     17  H   LIG    1        5.638  -6.331   0.214  0.00  0.00    +0.255 HD
ENDBRANCH  14  15
BRANCH  14  18
ATOM     18  N   LIG    1        3.586  -4.875   2.272  0.00  0.00    -0.289 N 
ATOM     19  H   LIG    1        4.060  -5.050   3.100  0.00  0.00    +0.255 HD
ATOM     20  H   LIG    1        2.736  -4.408   2.290  0.00  0.00    +0.255 HD
ENDBRANCH  14  18
ENDBRANCH   4  13
TORSDOF 4
