REMARK  Name = ZINC18119523
REMARK                            x       y       z     vdW  Elec       q    Type
REMARK                         _______ _______ _______ _____ _____    ______ ____
ROOT
ATOM      1  C   LIG    1        4.779   1.460   0.067  0.00  0.00    +0.156 C 
ATOM      2  N   LIG    1        4.995   0.154   0.070  0.00  0.00    -0.154 NA
ATOM      3  C   LIG    1        6.202  -0.361   0.161  0.00  0.00    +0.276 C 
ATOM      4  C   LIG    1        7.320   0.598   0.262  0.00  0.00    +0.079 C 
ATOM      5  C   LIG    1        8.674   0.366   0.368  0.00  0.00    +0.020 C 
ATOM      6  O   LIG    1        6.388  -1.568   0.162  0.00  0.00    -0.267 OA
ATOM      7  S   LIG    1        6.424   2.144   0.199  0.00  0.00    -0.051 S 
ENDROOT
BRANCH   1   8
ATOM      8  N   LIG    1        3.583   2.127  -0.021  0.00  0.00    -0.294 N 
ATOM      9  H   LIG    1        3.572   3.101  -0.159  0.00  0.00    +0.154 HD
BRANCH   8  12
ATOM     10  C   LIG    1        1.157  -0.497   0.843  0.00  0.00    +0.003 A 
ATOM     11  C   LIG    1        2.346   0.197   0.740  0.00  0.00    +0.025 A 
ATOM     12  C   LIG    1        2.380   1.421   0.085  0.00  0.00    +0.053 A 
ATOM     13  C   LIG    1        1.215   1.944  -0.465  0.00  0.00    +0.080 A 
ATOM     14 CL   LIG    1        1.251   3.474  -1.284  0.00  0.00    -0.080 Cl
ATOM     15  C   LIG    1        0.028   1.244  -0.357  0.00  0.00    +0.061 A 
ATOM     16 CL   LIG    1       -1.428   1.895  -1.043  0.00  0.00    -0.082 Cl
ATOM     17  C   LIG    1       -0.001   0.024   0.296  0.00  0.00    +0.021 A 
ENDBRANCH   8  12
ENDBRANCH   1   8
BRANCH   5  18
ATOM     18  C   LIG    1        9.566   1.446   0.452  0.00  0.00    +0.005 C 
ATOM     19  C   LIG    1       10.905   1.217   0.557  0.00  0.00    +0.046 C 
BRANCH  19  20
ATOM     20  C   LIG    1       11.803   2.305   0.641  0.00  0.00    +0.128 A 
ATOM     21  C   LIG    1       13.178   2.219   0.745  0.00  0.00    +0.049 A 
ATOM     22  C   LIG    1       13.657   3.537   0.800  0.00  0.00    +0.042 A 
ATOM     23  C   LIG    1       12.584   4.356   0.730  0.00  0.00    +0.195 A 
ATOM     24  O   LIG    1       11.472   3.613   0.629  0.00  0.00    -0.464 OA
ENDBRANCH  19  20
ENDBRANCH   5  18
TORSDOF 4
