REMARK  Name = ZINC14953365
REMARK                            x       y       z     vdW  Elec       q    Type
REMARK                         _______ _______ _______ _____ _____    ______ ____
ROOT
ATOM      1  C   LIG    1        0.825  -4.766   1.259  0.00  0.00    +0.169 A 
ATOM      2  N   LIG    1        0.228  -4.126   0.254  0.00  0.00    -0.191 NA
ATOM      3  C   LIG    1       -0.350  -4.774  -0.745  0.00  0.00    +0.246 A 
ATOM      4  C   LIG    1       -0.315  -6.231  -0.716  0.00  0.00    +0.192 A 
ATOM      5  N   LIG    1       -0.741  -7.230  -1.462  0.00  0.00    -0.148 NA
ATOM      6  N   LIG    1       -0.399  -8.339  -0.903  0.00  0.00    -0.194 N 
ATOM      7  H   LIG    1       -0.606  -9.213  -1.272  0.00  0.00    +0.213 HD
ATOM      8  N   LIG    1        0.244  -8.164   0.199  0.00  0.00    -0.134 NA
ATOM      9  C   LIG    1        0.362  -6.870   0.426  0.00  0.00    +0.209 A 
ATOM     10  N   LIG    1        0.905  -6.077   1.358  0.00  0.00    -0.204 NA
ENDROOT
BRANCH   1  16
ATOM     11  C   LIG    1        1.385  -2.554   2.272  0.00  0.00    +0.131 A 
ATOM     12  C   LIG    1        1.961  -1.799   3.282  0.00  0.00    +0.046 A 
ATOM     13  C   LIG    1        2.595  -2.424   4.338  0.00  0.00    +0.004 A 
ATOM     14  C   LIG    1        2.658  -3.806   4.396  0.00  0.00    +0.001 A 
ATOM     15  C   LIG    1        2.089  -4.570   3.399  0.00  0.00    +0.015 A 
ATOM     16  C   LIG    1        1.442  -3.950   2.330  0.00  0.00    +0.061 A 
BRANCH  11  17
ATOM     17  O   LIG    1        0.761  -1.940   1.234  0.00  0.00    -0.491 OA
BRANCH  17  18
ATOM     18  C   LIG    1        0.742  -0.511   1.242  0.00  0.00    +0.229 C 
BRANCH  18  20
ATOM     19  C   LIG    1       -0.019   1.526   0.010  0.00  0.00    +0.007 C 
ATOM     20  C   LIG    1        0.002  -0.004   0.002  0.00  0.00    +0.038 C 
ENDBRANCH  18  20
ENDBRANCH  17  18
ENDBRANCH  11  17
ENDBRANCH   1  16
BRANCH   3  21
ATOM     21  O   LIG    1       -0.951  -4.108  -1.757  0.00  0.00    -0.491 OA
ATOM     22  H   LIG    1       -0.964  -3.171  -1.758  0.00  0.00    +0.294 HD
ENDBRANCH   3  21
TORSDOF 5
