REMARK  Name = ZINC40951976
REMARK                            x       y       z     vdW  Elec       q    Type
REMARK                         _______ _______ _______ _____ _____    ______ ____
ROOT
ATOM      1  N   LIG    1        0.659  -1.976   1.296  0.00  0.00    +0.381 N 
ATOM      2  H   LIG    1       -0.309  -2.259   1.264  0.00  0.00    -0.082 HD
ATOM      3  C   LIG    1        1.371  -2.549   0.147  0.00  0.00    -0.077 C 
ATOM      4  C   LIG    1        1.219  -4.071   0.155  0.00  0.00    +0.006 C 
ATOM      5  C   LIG    1        1.808  -4.631   1.453  0.00  0.00    +0.089 C 
ATOM      6  C   LIG    1        1.108  -3.972   2.646  0.00  0.00    +0.006 C 
ATOM      7  C   LIG    1        1.264  -2.453   2.546  0.00  0.00    -0.077 C 
ENDROOT
BRANCH   5   8
ATOM      8  N   LIG    1        1.597  -6.080   1.502  0.00  0.00    -0.289 N 
ATOM      9  C   LIG    1        2.597  -7.047   1.587  0.00  0.00    +0.070 A 
ATOM     10  C   LIG    1        3.981  -6.982   1.646  0.00  0.00    +0.029 A 
ATOM     11  C   LIG    1        4.721  -8.145   1.726  0.00  0.00    +0.022 A 
ATOM     12  C   LIG    1        4.087  -9.376   1.747  0.00  0.00    +0.043 A 
ATOM     13 CL   LIG    1        5.028 -10.832   1.847  0.00  0.00    -0.083 Cl
ATOM     14  C   LIG    1        2.709  -9.451   1.687  0.00  0.00    +0.047 A 
ATOM     15  C   LIG    1        1.958  -8.288   1.607  0.00  0.00    +0.068 A 
ATOM     16  N   LIG    1        0.590  -8.037   1.535  0.00  0.00    -0.306 N 
ATOM     17  H   LIG    1       -0.111  -8.708   1.530  0.00  0.00    +0.170 HD
ATOM     18  C   LIG    1        0.405  -6.705   1.478  0.00  0.00    +0.328 A 
ATOM     19  O   LIG    1       -0.676  -6.149   1.412  0.00  0.00    -0.247 OA
ENDBRANCH   5   8
BRANCH   1  20
ATOM     20  C   LIG    1        0.742  -0.511   1.242  0.00  0.00    -0.057 C 
BRANCH  20  22
ATOM     21  C   LIG    1       -0.019   1.526   0.010  0.00  0.00    +0.026 C 
ATOM     22  C   LIG    1        0.002  -0.004   0.002  0.00  0.00    +0.054 C 
BRANCH  22  23
ATOM     23  N   LIG    1       -1.372  -0.511   0.012  0.00  0.00    -0.311 N 
ATOM     24  H   LIG    1       -1.794  -0.752   0.852  0.00  0.00    +0.149 HD
ATOM     25  C   LIG    1       -2.051  -0.643  -1.145  0.00  0.00    +0.244 C 
ATOM     26  O   LIG    1       -1.522  -0.341  -2.197  0.00  0.00    -0.270 OA
BRANCH  25  27
ATOM     27  C   LIG    1       -3.437  -1.154  -1.134  0.00  0.00    +0.037 A 
ATOM     28  C   LIG    1       -4.045  -1.497   0.087  0.00  0.00    +0.013 A 
ATOM     29  C   LIG    1       -5.318  -1.969   0.122  0.00  0.00    +0.009 A 
ATOM     30  C   LIG    1       -6.045  -2.121  -1.072  0.00  0.00    -0.018 A 
ATOM     31  C   LIG    1       -7.364  -2.607  -1.060  0.00  0.00    +0.008 A 
ATOM     32  C   LIG    1       -8.043  -2.744  -2.232  0.00  0.00    +0.001 A 
ATOM     33  C   LIG    1       -7.451  -2.409  -3.448  0.00  0.00    +0.001 A 
ATOM     34  C   LIG    1       -6.177  -1.934  -3.500  0.00  0.00    +0.008 A 
ATOM     35  C   LIG    1       -5.443  -1.779  -2.309  0.00  0.00    -0.017 A 
ATOM     36  C   LIG    1       -4.130  -1.287  -2.326  0.00  0.00    +0.021 A 
ENDBRANCH  25  27
ENDBRANCH  22  23
ENDBRANCH  20  22
ENDBRANCH   1  20
TORSDOF 5
