REMARK  Name = ZINC29046297
REMARK                            x       y       z     vdW  Elec       q    Type
REMARK                         _______ _______ _______ _____ _____    ______ ____
ROOT
ATOM      1  C   LIG    1       -0.017   1.378   0.010  0.00  0.00    +0.005 A 
ATOM      2  C   LIG    1        0.002  -0.004   0.002  0.00  0.00    +0.015 A 
ATOM      3  C   LIG    1        1.209  -0.679  -0.013  0.00  0.00    +0.018 A 
ATOM      4 BR   LIG    1        1.236  -2.570  -0.024  0.00  0.00    -0.050 Br
ATOM      5  C   LIG    1        2.397   0.029  -0.021  0.00  0.00    +0.015 A 
ATOM      6  C   LIG    1        2.378   1.411  -0.013  0.00  0.00    +0.005 A 
ATOM      7  C   LIG    1        1.171   2.086   0.002  0.00  0.00    -0.046 A 
ENDROOT
BRANCH   7   8
ATOM      8  C   LIG    1        1.150   3.592   0.010  0.00  0.00    +0.003 C 
ATOM      9  C   LIG    1        2.479   4.319  -0.205  0.00  0.00    -0.009 C 
ATOM     10  C   LIG    1        1.831   4.302   1.181  0.00  0.00    -0.067 C 
BRANCH  10  11
ATOM     11  N   LIG    1        1.226   5.552   1.662  0.00  0.00    +0.380 N 
ATOM     12  H   LIG    1        1.210   6.289   0.845  0.00  0.00    -0.090 HD
ATOM     13  H   LIG    1        0.198   5.355   2.000  0.00  0.00    -0.090 HD
ATOM     14  H   LIG    1        1.818   5.947   2.501  0.00  0.00    -0.090 HD
ENDBRANCH  10  11
ENDBRANCH   7   8
TORSDOF 2
