REMARK  Name = ZINC18284963
REMARK                            x       y       z     vdW  Elec       q    Type
REMARK                         _______ _______ _______ _____ _____    ______ ____
ROOT
ATOM      1  C   LIG    1       -1.142   7.727   0.052  0.00  0.00    +0.212 C 
ATOM      2  C   LIG    1       -2.376   8.291  -0.655  0.00  0.00    +0.196 C 
ATOM      3  C   LIG    1       -3.638   7.829   0.076  0.00  0.00    +0.212 C 
ATOM      4  C   LIG    1       -3.604   8.332   1.521  0.00  0.00    +0.093 C 
ATOM      5  C   LIG    1       -2.370   7.767   2.228  0.00  0.00    +0.169 C 
ATOM      6  C   LIG    1       -1.108   8.229   1.497  0.00  0.00    +0.093 C 
ENDROOT
BRANCH   5   7
ATOM      7  O   LIG    1       -2.429   6.340   2.221  0.00  0.00    -0.377 OA
ATOM      8  H   LIG    1       -1.676   5.913   2.654  0.00  0.00    +0.211 HD
ENDBRANCH   5   7
BRANCH   5   9
ATOM      9  C   LIG    1       -2.336   8.262   3.651  0.00  0.00    +0.337 C 
ATOM     10  O   LIG    1       -2.360   7.466   4.574  0.00  0.00    -0.248 OA
BRANCH   9  11
ATOM     11  O   LIG    1       -2.285   9.459   3.879  0.00  0.00    -0.479 OA
ATOM     12  H   LIG    1       -2.267  10.071   3.170  0.00  0.00    +0.295 HD
ENDBRANCH   9  11
ENDBRANCH   5   9
BRANCH   2  13
ATOM     13  O   LIG    1       -2.408   7.822  -2.004  0.00  0.00    -0.384 OA
ATOM     14  H   LIG    1       -3.166   8.141  -2.514  0.00  0.00    +0.210 HD
ENDBRANCH   2  13
BRANCH   3  15
ATOM     15  O   LIG    1       -3.697   6.401   0.069  0.00  0.00    -0.455 OA
BRANCH  15  16
ATOM     16  C   LIG    1       -4.923   5.838   0.078  0.00  0.00    +0.332 C 
ATOM     17  O   LIG    1       -5.915   6.542   0.091  0.00  0.00    -0.246 OA
BRANCH  16  18
ATOM     18  C   LIG    1       -5.055   4.427   0.072  0.00  0.00    +0.092 C 
ATOM     19  C   LIG    1       -6.283   3.863   0.081  0.00  0.00    +0.015 C 
BRANCH  19  20
ATOM     20  C   LIG    1       -6.420   2.400   0.075  0.00  0.00    -0.021 A 
ATOM     21  C   LIG    1       -7.691   1.814   0.078  0.00  0.00    +0.057 A 
ATOM     22  C   LIG    1       -7.813   0.439   0.071  0.00  0.00    +0.159 A 
ATOM     23  C   LIG    1       -6.672  -0.363   0.063  0.00  0.00    +0.158 A 
ATOM     24  C   LIG    1       -5.411   0.217   0.060  0.00  0.00    +0.050 A 
ATOM     25  C   LIG    1       -5.280   1.589   0.060  0.00  0.00    +0.012 A 
BRANCH  23  26
ATOM     26  O   LIG    1       -6.795  -1.716   0.057  0.00  0.00    -0.503 OA
ATOM     27  H   LIG    1       -6.835  -2.103  -0.828  0.00  0.00    +0.292 HD
ENDBRANCH  23  26
BRANCH  22  28
ATOM     28  O   LIG    1       -9.047  -0.134   0.074  0.00  0.00    -0.503 OA
ATOM     29  H   LIG    1       -9.408  -0.295  -0.808  0.00  0.00    +0.292 HD
ENDBRANCH  22  28
ENDBRANCH  19  20
ENDBRANCH  16  18
ENDBRANCH  15  16
ENDBRANCH   3  15
BRANCH   1  30
ATOM     30  O   LIG    1       -1.201   6.299   0.045  0.00  0.00    -0.455 OA
BRANCH  30  31
ATOM     31  C   LIG    1       -0.025   5.638   0.031  0.00  0.00    +0.332 C 
ATOM     32  O   LIG    1        1.022   6.258   0.025  0.00  0.00    -0.246 OA
BRANCH  31  34
ATOM     33  C   LIG    1        1.169   3.558   0.009  0.00  0.00    +0.015 C 
ATOM     34  C   LIG    1       -0.008   4.221   0.024  0.00  0.00    +0.092 C 
BRANCH  33  36
ATOM     35  C   LIG    1       -0.017   1.373   0.010  0.00  0.00    +0.012 A 
ATOM     36  C   LIG    1        1.186   2.089   0.002  0.00  0.00    -0.021 A 
ATOM     37  C   LIG    1        2.405   1.401  -0.013  0.00  0.00    +0.057 A 
ATOM     38  C   LIG    1        2.414   0.020  -0.021  0.00  0.00    +0.159 A 
ATOM     39  C   LIG    1        1.212  -0.686  -0.014  0.00  0.00    +0.158 A 
ATOM     40  C   LIG    1        0.002  -0.004   0.002  0.00  0.00    +0.050 A 
BRANCH  39  41
ATOM     41  O   LIG    1        1.224  -2.044  -0.022  0.00  0.00    -0.503 OA
ATOM     42  H   LIG    1        1.236  -2.442   0.859  0.00  0.00    +0.292 HD
ENDBRANCH  39  41
BRANCH  38  43
ATOM     43  O   LIG    1        3.597  -0.651  -0.036  0.00  0.00    -0.503 OA
ATOM     44  H   LIG    1        3.947  -0.850   0.843  0.00  0.00    +0.292 HD
ENDBRANCH  38  43
ENDBRANCH  33  36
ENDBRANCH  31  34
ENDBRANCH  30  31
ENDBRANCH   1  30
TORSDOF 16
