REMARK  Name = ZINC40879935
REMARK                            x       y       z     vdW  Elec       q    Type
REMARK                         _______ _______ _______ _____ _____    ______ ____
ROOT
ATOM      1  N   LIG    1        1.222  -5.154  -2.891  0.00  0.00    -0.273 N 
ATOM      2  C   LIG    1        0.875  -4.925  -4.304  0.00  0.00    +0.154 C 
ATOM      3  C   LIG    1        0.030  -6.117  -4.773  0.00  0.00    +0.248 C 
ATOM      4  O   LIG    1        0.786  -7.317  -4.591  0.00  0.00    -0.489 OA
ATOM      5  C   LIG    1        1.372  -7.519  -3.381  0.00  0.00    +0.142 A 
ATOM      6  C   LIG    1        1.745  -8.802  -3.007  0.00  0.00    +0.048 A 
ATOM      7  C   LIG    1        2.361  -9.019  -1.787  0.00  0.00    +0.012 A 
ATOM      8  C   LIG    1        2.595  -7.953  -0.921  0.00  0.00    -0.013 A 
ATOM      9  C   LIG    1        2.216  -6.665  -1.290  0.00  0.00    +0.035 A 
ATOM     10  C   LIG    1        1.609  -6.451  -2.516  0.00  0.00    +0.078 A 
ENDROOT
BRANCH   1  20
ATOM     11  C   LIG    1        1.936  -1.525   3.504  0.00  0.00    +0.031 C 
ATOM     12  C   LIG    1        2.014  -1.694   1.985  0.00  0.00    +0.035 C 
ATOM     13  C   LIG    1        3.483  -1.631   1.561  0.00  0.00    +0.031 C 
ATOM     14  C   LIG    1        1.460  -3.068   1.617  0.00  0.00    +0.082 C 
ATOM     15  C   LIG    1        1.279  -3.138   0.110  0.00  0.00    +0.065 A 
ATOM     16  C   LIG    1        0.999  -1.951  -0.572  0.00  0.00    +0.098 A 
ATOM     17  C   LIG    1        0.871  -0.663   0.068  0.00  0.00    +0.253 C 
ATOM     18  O   LIG    1        0.405   0.301  -0.512  0.00  0.00    -0.270 OA
ATOM     19  S   LIG    1        0.874  -2.492  -2.245  0.00  0.00    -0.047 S 
ATOM     20  C   LIG    1        1.174  -4.129  -1.969  0.00  0.00    +0.166 A 
ATOM     21  N   LIG    1        1.352  -4.198  -0.658  0.00  0.00    -0.229 NA
ATOM     22  N   LIG    1        1.299  -0.591   1.356  0.00  0.00    -0.305 N 
ATOM     23  H   LIG    1        1.125   0.214   1.869  0.00  0.00    +0.150 HD
ENDBRANCH   1  20
BRANCH   8  24
ATOM     24  C   LIG    1        3.248  -8.190   0.392  0.00  0.00    +0.020 A 
ATOM     25  C   LIG    1        3.539  -7.214   1.364  0.00  0.00    +0.142 A 
ATOM     26  N   LIG    1        4.111  -7.809   2.378  0.00  0.00    -0.179 NA
ATOM     27  N   LIG    1        4.207  -9.177   2.095  0.00  0.00    -0.274 N 
ATOM     28  C   LIG    1        4.786 -10.197   2.973  0.00  0.00    +0.172 C 
ATOM     29  C   LIG    1        3.668  -9.394   0.878  0.00  0.00    +0.116 A 
ENDBRANCH   8  24
TORSDOF 2
