REMARK  Name = ZINC22309053
REMARK                            x       y       z     vdW  Elec       q    Type
REMARK                         _______ _______ _______ _____ _____    ______ ____
ROOT
ATOM      1  P   LIG    1        2.689  -0.325   1.289  0.00  0.00    +0.204 P 
ATOM      2  O   LIG    1        3.021  -0.954  -0.083  0.00  0.00    -0.291 OA
ENDROOT
BRANCH   1   3
ATOM      3  O   LIG    1        1.380  -0.940   1.834  0.00  0.00    -0.344 OA
ATOM      4  H   LIG    1        0.656  -0.762   1.213  0.00  0.00    +0.218 HD
ENDBRANCH   1   3
BRANCH   1   5
ATOM      5  C   LIG    1        4.049  -0.659   2.456  0.00  0.00    +0.112 C 
BRANCH   5   6
ATOM      6  C   LIG    1        4.306  -2.166   2.522  0.00  0.00    +0.107 C 
BRANCH   6   7
ATOM      7  C   LIG    1        3.215  -2.827   3.324  0.00  0.00    +0.308 C 
ATOM      8  O   LIG    1        2.512  -3.681   2.811  0.00  0.00    -0.251 OA
BRANCH   7   9
ATOM      9  O   LIG    1        3.035  -2.508   4.487  0.00  0.00    -0.480 OA
ATOM     10  H   LIG    1        3.575  -1.852   4.882  0.00  0.00    +0.295 HD
ENDBRANCH   7   9
ENDBRANCH   6   7
BRANCH   6  11
ATOM     11  C   LIG    1        5.658  -2.425   3.190  0.00  0.00    +0.026 C 
BRANCH  11  12
ATOM     12  C   LIG    1        5.972  -3.921   3.144  0.00  0.00    +0.121 C 
BRANCH  12  13
ATOM     13  C   LIG    1        7.304  -4.176   3.802  0.00  0.00    +0.305 C 
ATOM     14  O   LIG    1        7.942  -3.246   4.264  0.00  0.00    -0.251 OA
BRANCH  13  15
ATOM     15  O   LIG    1        7.742  -5.311   3.871  0.00  0.00    -0.481 OA
ATOM     16  H   LIG    1        7.251  -6.026   3.516  0.00  0.00    +0.295 HD
ENDBRANCH  13  15
ENDBRANCH  12  13
ENDBRANCH  11  12
ENDBRANCH   6  11
ENDBRANCH   5   6
ENDBRANCH   1   5
BRANCH   1  17
ATOM     17  C   LIG    1        2.481   1.476   1.098  0.00  0.00    +0.112 C 
BRANCH  17  18
ATOM     18  C   LIG    1        1.426   1.756   0.026  0.00  0.00    +0.107 C 
BRANCH  18  19
ATOM     19  C   LIG    1        2.013   1.498  -1.337  0.00  0.00    +0.308 C 
ATOM     20  O   LIG    1        3.027   2.079  -1.685  0.00  0.00    -0.251 OA
BRANCH  19  21
ATOM     21  O   LIG    1        1.474   0.707  -2.093  0.00  0.00    -0.480 OA
ATOM     22  H   LIG    1        0.694   0.261  -1.826  0.00  0.00    +0.295 HD
ENDBRANCH  19  21
ENDBRANCH  18  19
BRANCH  18  23
ATOM     23  C   LIG    1        0.979   3.217   0.121  0.00  0.00    +0.026 C 
BRANCH  23  24
ATOM     24  C   LIG    1        0.277   3.450   1.460  0.00  0.00    +0.121 C 
BRANCH  24  25
ATOM     25  C   LIG    1       -0.261   4.857   1.507  0.00  0.00    +0.305 C 
ATOM     26  O   LIG    1       -0.098   5.604   0.557  0.00  0.00    -0.251 OA
BRANCH  25  27
ATOM     27  O   LIG    1       -0.859   5.248   2.495  0.00  0.00    -0.481 OA
ATOM     28  H   LIG    1       -0.984   4.674   3.225  0.00  0.00    +0.295 HD
ENDBRANCH  25  27
ENDBRANCH  24  25
ENDBRANCH  23  24
ENDBRANCH  18  23
ENDBRANCH  17  18
ENDBRANCH   1  17
TORSDOF 17
