REMARK  Name = ZINC36701290
REMARK                            x       y       z     vdW  Elec       q    Type
REMARK                         _______ _______ _______ _____ _____    ______ ____
ROOT
ATOM      1  C   LIG    1        0.368  -4.156  -0.486  0.00  0.00    +0.248 C 
ATOM      2  N   LIG    1       -0.024  -4.909  -1.534  0.00  0.00    -0.281 N 
ATOM      3  H   LIG    1       -0.410  -4.486  -2.317  0.00  0.00    +0.155 HD
ATOM      4  O   LIG    1        0.772  -4.690   0.528  0.00  0.00    -0.270 OA
ENDROOT
BRANCH   1   9
ATOM      5  C   LIG    1        0.113   1.593  -0.852  0.00  0.00    +0.045 C 
ATOM      6  C   LIG    1        0.181   0.091  -0.753  0.00  0.00    -0.035 A 
ATOM      7  C   LIG    1       -0.217  -0.689  -1.819  0.00  0.00    +0.005 A 
ATOM      8  C   LIG    1       -0.158  -2.067  -1.737  0.00  0.00    +0.013 A 
ATOM      9  C   LIG    1        0.306  -2.682  -0.572  0.00  0.00    +0.038 A 
ATOM     10  C   LIG    1        0.710  -1.903   0.510  0.00  0.00    +0.030 A 
ATOM     11  C   LIG    1        0.653  -0.511   0.419  0.00  0.00    +0.029 A 
BRANCH  11  12
ATOM     12  C   LIG    1        1.071   0.299   1.524  0.00  0.00    -0.059 C 
ATOM     13  C   LIG    1        1.414   0.963   2.429  0.00  0.00    -0.040 C 
BRANCH  13  14
ATOM     14  C   LIG    1        1.832   1.772   3.534  0.00  0.00    +0.136 A 
ATOM     15  C   LIG    1        1.823   3.156   3.597  0.00  0.00    +0.150 A 
ATOM     16  N   LIG    1        2.285   3.520   4.786  0.00  0.00    -0.233 NA
ATOM     17  C   LIG    1        2.593   2.440   5.495  0.00  0.00    +0.155 A 
ATOM     18  C   LIG    1        3.111   2.273   6.793  0.00  0.00    +0.050 A 
ATOM     19  C   LIG    1        3.316   1.014   7.269  0.00  0.00    +0.025 A 
ATOM     20  C   LIG    1        3.024  -0.098   6.470  0.00  0.00    +0.133 A 
ATOM     21  N   LIG    1        2.547   0.052   5.262  0.00  0.00    -0.172 NA
ATOM     22  N   LIG    1        2.316   1.329   4.741  0.00  0.00    -0.205 N 
ENDBRANCH  13  14
ENDBRANCH  11  12
ENDBRANCH   1   9
BRANCH   2  23
ATOM     23  C   LIG    1        0.128  -6.298  -1.492  0.00  0.00    +0.034 A 
ATOM     24  C   LIG    1       -0.044  -6.981  -0.294  0.00  0.00    +0.023 A 
ATOM     25  C   LIG    1        0.106  -8.354  -0.257  0.00  0.00    +0.007 A 
ATOM     26  C   LIG    1        0.428  -9.048  -1.409  0.00  0.00    -0.022 A 
ATOM     27  C   LIG    1        0.600  -8.371  -2.602  0.00  0.00    +0.061 A 
ATOM     28  C   LIG    1        0.445  -6.999  -2.648  0.00  0.00    +0.036 A 
BRANCH  27  29
ATOM     29  C   LIG    1        0.952  -9.131  -3.855  0.00  0.00    +0.418 C 
ATOM     30  F   LIG    1       -0.032 -10.093  -4.108  0.00  0.00    -0.166 F 
ATOM     31  F   LIG    1        2.188  -9.762  -3.686  0.00  0.00    -0.166 F 
ATOM     32  F   LIG    1        1.024  -8.244  -4.934  0.00  0.00    -0.166 F 
ENDBRANCH  27  29
BRANCH  26  33
ATOM     33  C   LIG    1        0.592 -10.545  -1.363  0.00  0.00    +0.120 C 
BRANCH  33  34
ATOM     34  N   LIG    1       -0.621 -11.186  -1.888  0.00  0.00    -0.296 NA
ATOM     35  C   LIG    1       -1.787 -10.871  -1.051  0.00  0.00    +0.100 C 
ATOM     36  C   LIG    1       -3.041 -11.491  -1.673  0.00  0.00    +0.099 C 
ATOM     37  N   LIG    1       -2.859 -12.944  -1.792  0.00  0.00    -0.303 NA
ATOM     38  C   LIG    1       -4.072 -13.585  -2.317  0.00  0.00    +0.105 C 
ATOM     39  C   LIG    1       -1.693 -13.259  -2.629  0.00  0.00    +0.099 C 
ATOM     40  C   LIG    1       -0.439 -12.640  -2.007  0.00  0.00    +0.100 C 
ENDBRANCH  33  34
ENDBRANCH  26  33
ENDBRANCH   2  23
TORSDOF 7
