REMARK  Name = ZINC19594549
REMARK                            x       y       z     vdW  Elec       q    Type
REMARK                         _______ _______ _______ _____ _____    ______ ____
ROOT
ATOM      1  N   LIG    1        0.726  -0.285  -1.265  0.00  0.00    -0.331 N 
ATOM      2  C   LIG    1        0.005  -0.488  -2.375  0.00  0.00    +0.106 A 
ATOM      3  C   LIG    1        0.555  -1.020  -3.524  0.00  0.00    +0.122 A 
ATOM      4  C   LIG    1        1.985  -1.375  -3.526  0.00  0.00    +0.205 A 
ATOM      5  C   LIG    1        2.738  -1.135  -2.286  0.00  0.00    +0.068 A 
ATOM      6  C   LIG    1        4.101  -1.441  -2.192  0.00  0.00    +0.057 A 
ATOM      7  C   LIG    1        4.744  -1.176  -1.012  0.00  0.00    +0.164 A 
ATOM      8  F   LIG    1        6.060  -1.449  -0.876  0.00  0.00    -0.202 F 
ATOM      9  C   LIG    1        4.022  -0.631   0.054  0.00  0.00    +0.159 A 
ATOM     10  N   LIG    1        2.734  -0.355  -0.055  0.00  0.00    -0.211 NA
ATOM     11  O   LIG    1        2.522  -1.847  -4.514  0.00  0.00    -0.286 OA
ATOM     12  C   LIG    1        2.067  -0.582  -1.181  0.00  0.00    +0.147 A 
ENDROOT
BRANCH   9  13
ATOM     13  N   LIG    1        4.671  -0.375   1.252  0.00  0.00    -0.316 N 
ATOM     14  C   LIG    1        5.306   0.928   1.504  0.00  0.00    +0.087 C 
ATOM     15  C   LIG    1        4.823   1.448   2.862  0.00  0.00    -0.063 C 
ATOM     16  N   LIG    1        5.085   0.437   3.894  0.00  0.00    +0.381 N 
ATOM     17  H   LIG    1        4.837   0.809   4.798  0.00  0.00    -0.086 HD
ATOM     18  H   LIG    1        6.065   0.199   3.888  0.00  0.00    -0.086 HD
ATOM     19  C   LIG    1        4.289  -0.767   3.626  0.00  0.00    -0.063 C 
ATOM     20  C   LIG    1        4.740  -1.396   2.308  0.00  0.00    +0.087 C 
ENDBRANCH   9  13
BRANCH   1  22
ATOM     21  C   LIG    1        0.152   1.811  -0.143  0.00  0.00    +0.027 C 
ATOM     22  C   LIG    1        0.060   0.284  -0.091  0.00  0.00    +0.120 C 
ENDBRANCH   1  22
BRANCH   3  23
ATOM     23  C   LIG    1       -0.269  -1.228  -4.720  0.00  0.00    +0.342 C 
ATOM     24  O   LIG    1       -1.455  -0.929  -4.705  0.00  0.00    -0.245 OA
BRANCH  23  25
ATOM     25  O   LIG    1        0.231  -1.700  -5.733  0.00  0.00    -0.477 OA
ATOM     26  H   LIG    1        1.140  -1.929  -5.744  0.00  0.00    +0.295 HD
ENDBRANCH  23  25
ENDBRANCH   3  23
TORSDOF 4
