REMARK  Name = ZINC13834242
REMARK                            x       y       z     vdW  Elec       q    Type
REMARK                         _______ _______ _______ _____ _____    ______ ____
ROOT
ATOM      1  C   LIG    1       -1.082  -2.270   0.511  0.00  0.00    -0.071 C 
ENDROOT
BRANCH   1   2
ATOM      2  N   LIG    1       -2.281  -3.049   0.136  0.00  0.00    +0.380 N 
ATOM      3  H   LIG    1       -3.018  -2.880   0.830  0.00  0.00    -0.082 HD
BRANCH   2   4
ATOM      4  C   LIG    1       -2.765  -2.622  -1.194  0.00  0.00    -0.079 C 
BRANCH   4   6
ATOM      5  C   LIG    1       -2.196  -2.356  -3.612  0.00  0.00    +0.002 C 
ATOM      6  C   LIG    1       -1.681  -2.834  -2.253  0.00  0.00    -0.022 C 
ENDBRANCH   4   6
ENDBRANCH   2   4
BRANCH   2   7
ATOM      7  C   LIG    1       -1.960  -4.492   0.118  0.00  0.00    -0.079 C 
BRANCH   7   8
ATOM      8  C   LIG    1       -3.268  -5.285   0.093  0.00  0.00    -0.022 C 
ATOM      9  C   LIG    1       -2.956  -6.783   0.093  0.00  0.00    +0.002 C 
ENDBRANCH   7   8
ENDBRANCH   2   7
ENDBRANCH   1   2
BRANCH   1  10
ATOM     10  C   LIG    1       -1.491  -0.814   0.740  0.00  0.00    +0.061 C 
BRANCH  10  11
ATOM     11  C   LIG    1       -0.282  -0.009   1.145  0.00  0.00    +0.161 C 
ATOM     12  O   LIG    1        0.800  -0.548   1.240  0.00  0.00    -0.292 OA
BRANCH  11  13
ATOM     13  C   LIG    1       -0.415   1.429   1.424  0.00  0.00    +0.017 A 
ATOM     14  C   LIG    1       -1.660   2.055   1.309  0.00  0.00    +0.011 A 
ATOM     15  C   LIG    1       -1.778   3.403   1.578  0.00  0.00    +0.001 A 
ATOM     16  C   LIG    1       -0.665   4.138   1.949  0.00  0.00    +0.000 A 
ATOM     17  C   LIG    1        0.572   3.526   2.059  0.00  0.00    +0.001 A 
ATOM     18  C   LIG    1        0.704   2.179   1.799  0.00  0.00    +0.011 A 
ENDBRANCH  11  13
ENDBRANCH  10  11
ENDBRANCH   1  10
TORSDOF 8
