REMARK  Name = ZINC19850508
REMARK                            x       y       z     vdW  Elec       q    Type
REMARK                         _______ _______ _______ _____ _____    ______ ____
ROOT
ATOM      1  C   LIG    1        1.272   1.717  -2.757  0.00  0.00    +0.107 C 
ENDROOT
BRANCH   1   4
ATOM      2  C   LIG    1       -0.013   1.086   0.008  0.00  0.00    +0.053 C 
ATOM      3  C   LIG    1       -0.742   1.585  -1.213  0.00  0.00    +0.054 A 
ATOM      4  C   LIG    1       -0.187   1.857  -2.408  0.00  0.00    +0.146 A 
ATOM      5  O   LIG    1       -1.158   2.276  -3.234  0.00  0.00    -0.356 OA
ATOM      6  N   LIG    1       -2.379   2.263  -2.516  0.00  0.00    -0.040 NA
ATOM      7  C   LIG    1       -2.127   1.843  -1.304  0.00  0.00    +0.255 A 
BRANCH   7   8
ATOM      8  O   LIG    1       -3.035   1.685  -0.308  0.00  0.00    -0.490 OA
ATOM      9  H   LIG    1       -2.760   1.377   0.533  0.00  0.00    +0.294 HD
ENDBRANCH   7   8
ENDBRANCH   1   4
BRANCH   1  10
ATOM     10  CA  LIG    1        1.535   0.308  -3.293  0.00  0.00    +0.168 C 
BRANCH  10  11
ATOM     11  N   LIG    1        0.812   0.123  -4.559  0.00  0.00    -0.318 NA
ATOM     12  H1  LIG    1        1.115   0.794  -5.250  0.00  0.00    +0.119 HD
ATOM     13  H2  LIG    1       -0.185   0.175  -4.417  0.00  0.00    +0.119 HD
ENDBRANCH  10  11
BRANCH  10  14
ATOM     14  C   LIG    1        3.013   0.128  -3.528  0.00  0.00    +0.322 C 
ATOM     15  O   LIG    1        3.776   0.059  -2.580  0.00  0.00    -0.249 OA
BRANCH  14  16
ATOM     16  OXT LIG    1        3.445   0.051  -4.665  0.00  0.00    -0.480 OA
ATOM     17  HXT LIG    1        2.858   0.104  -5.394  0.00  0.00    +0.295 HD
ENDBRANCH  14  16
ENDBRANCH  10  14
ENDBRANCH   1  10
TORSDOF 6
