REMARK  Name = ZINC13764112
REMARK                            x       y       z     vdW  Elec       q    Type
REMARK                         _______ _______ _______ _____ _____    ______ ____
ROOT
ATOM      1  N   LIG    1        1.565  -2.916   5.681  0.00  0.00    -0.163 NA
ENDROOT
BRANCH   1   2
ATOM      2  S   LIG    1        2.704  -2.665   4.505  0.00  0.00    +0.062 S 
ATOM      3  O   LIG    1        3.632  -1.728   5.033  0.00  0.00    -0.153 OA
ATOM      4  O   LIG    1        3.098  -3.949   4.041  0.00  0.00    -0.153 OA
BRANCH   2   8
ATOM      5  C   LIG    1        0.626  -0.618   1.042  0.00  0.00    +0.120 A 
ATOM      6  C   LIG    1        1.202   0.138   2.051  0.00  0.00    +0.047 A 
ATOM      7  C   LIG    1        1.835  -0.488   3.107  0.00  0.00    +0.032 A 
ATOM      8  C   LIG    1        1.895  -1.869   3.158  0.00  0.00    +0.106 A 
ATOM      9  C   LIG    1        1.322  -2.625   2.152  0.00  0.00    +0.032 A 
ATOM     10  C   LIG    1        0.682  -2.003   1.098  0.00  0.00    +0.047 A 
BRANCH   5  12
ATOM     11  C   LIG    1       -0.017   1.425   0.010  0.00  0.00    +0.277 C 
ATOM     12  O   LIG    1        0.002  -0.004   0.002  0.00  0.00    -0.495 OA
ENDBRANCH   5  12
ENDBRANCH   2   8
ENDBRANCH   1   2
BRANCH   1  13
ATOM     13  C   LIG    1        1.333  -1.896   6.706  0.00  0.00    +0.207 C 
BRANCH  13  14
ATOM     14  C   LIG    1        0.185  -1.014   6.287  0.00  0.00    +0.251 C 
ATOM     15  N   LIG    1       -0.210   0.001   7.080  0.00  0.00    -0.196 N 
ATOM     16  H   LIG    1        0.245   0.164   7.922  0.00  0.00    +0.182 HD
ATOM     17  O   LIG    1       -0.384  -1.218   5.235  0.00  0.00    -0.272 OA
BRANCH  15  18
ATOM     18  O   LIG    1       -1.289   0.830   6.686  0.00  0.00    -0.295 OA
ATOM     19  H   LIG    1       -1.499   1.530   7.320  0.00  0.00    +0.241 HD
ENDBRANCH  15  18
ENDBRANCH  13  14
ENDBRANCH   1  13
BRANCH   1  20
ATOM     20  C   LIG    1        0.788  -4.159   5.695  0.00  0.00    +0.146 C 
BRANCH  20  21
ATOM     21  C   LIG    1        1.443  -5.149   6.623  0.00  0.00    -0.014 A 
ATOM     22  C   LIG    1        2.407  -6.026   6.148  0.00  0.00    +0.008 A 
ATOM     23  C   LIG    1        2.982  -6.920   7.038  0.00  0.00    +0.020 A 
ATOM     24  C   LIG    1        2.579  -6.907   8.360  0.00  0.00    +0.111 A 
ATOM     25  N   LIG    1        1.659  -6.059   8.777  0.00  0.00    -0.263 NA
ATOM     26  C   LIG    1        1.095  -5.191   7.960  0.00  0.00    +0.115 A 
ENDBRANCH  20  21
ENDBRANCH   1  20
TORSDOF 8
