REMARK  Name = ZINC18825334
REMARK                            x       y       z     vdW  Elec       q    Type
REMARK                         _______ _______ _______ _____ _____    ______ ____
ROOT
ATOM      1  C   LIG    1       -1.545  -1.407  -0.086  0.00  0.00    +0.079 C 
ATOM      2  N   LIG    1       -2.165  -1.768  -1.151  0.00  0.00    -0.278 NA
ATOM      3  C   LIG    1       -3.482  -2.394  -1.119  0.00  0.00    +0.181 C 
ATOM      4  C   LIG    1       -4.490  -1.407  -0.604  0.00  0.00    +0.018 A 
ATOM      5  C   LIG    1       -5.510  -0.975  -1.437  0.00  0.00    +0.122 A 
ATOM      6  N   LIG    1       -6.379  -0.086  -0.984  0.00  0.00    -0.222 NA
ATOM      7  C   LIG    1       -6.284   0.390   0.249  0.00  0.00    +0.220 A 
ATOM      8  N   LIG    1       -5.329  -0.003   1.075  0.00  0.00    -0.214 NA
ATOM      9  C   LIG    1       -4.418  -0.902   0.685  0.00  0.00    +0.082 A 
ATOM     10  C   LIG    1       -3.377  -1.320   1.648  0.00  0.00    +0.010 A 
ATOM     11  C   LIG    1       -3.767  -1.483   2.983  0.00  0.00    +0.012 A 
ATOM     12  C   LIG    1       -2.855  -1.878   3.937  0.00  0.00    +0.020 A 
ATOM     13  C   LIG    1       -1.538  -2.118   3.580  0.00  0.00    +0.042 A 
ATOM     14 CL   LIG    1       -0.392  -2.618   4.785  0.00  0.00    -0.084 Cl
ATOM     15  C   LIG    1       -1.136  -1.962   2.271  0.00  0.00    +0.030 A 
ATOM     16  C   LIG    1       -2.050  -1.558   1.288  0.00  0.00    +0.011 A 
ENDROOT
BRANCH   1  21
ATOM     17  C   LIG    1        2.278   0.390  -0.570  0.00  0.00    +0.006 A 
ATOM     18  C   LIG    1        1.142   1.180  -0.563  0.00  0.00    +0.039 A 
ATOM     19  C   LIG    1       -0.104   0.603  -0.407  0.00  0.00    +0.135 A 
ATOM     20  F   LIG    1       -1.213   1.375  -0.406  0.00  0.00    -0.205 F 
ATOM     21  C   LIG    1       -0.215  -0.782  -0.255  0.00  0.00    +0.071 A 
ATOM     22  C   LIG    1        0.937  -1.573  -0.263  0.00  0.00    +0.135 A 
ATOM     23  F   LIG    1        0.840  -2.912  -0.117  0.00  0.00    -0.205 F 
ATOM     24  C   LIG    1        2.176  -0.981  -0.421  0.00  0.00    +0.039 A 
ENDBRANCH   1  21
BRANCH   7  25
ATOM     25  N   LIG    1       -7.210   1.324   0.685  0.00  0.00    -0.284 N 
ATOM     26  H   LIG    1       -7.201   1.621   1.609  0.00  0.00    +0.155 HD
BRANCH  25  27
ATOM     27  C   LIG    1       -8.152   1.837  -0.202  0.00  0.00    +0.034 A 
ATOM     28  C   LIG    1       -9.429   2.156   0.250  0.00  0.00    +0.024 A 
ATOM     29  C   LIG    1      -10.362   2.668  -0.624  0.00  0.00    +0.017 A 
ATOM     30  C   LIG    1      -10.028   2.856  -1.968  0.00  0.00    +0.059 A 
ATOM     31  C   LIG    1       -8.746   2.529  -2.420  0.00  0.00    +0.017 A 
ATOM     32  C   LIG    1       -7.817   2.023  -1.540  0.00  0.00    +0.024 A 
BRANCH  30  33
ATOM     33  C   LIG    1      -11.026   3.400  -2.908  0.00  0.00    +0.337 C 
ATOM     34  O   LIG    1      -10.735   3.563  -4.076  0.00  0.00    -0.245 OA
BRANCH  33  35
ATOM     35  O   LIG    1      -12.261   3.715  -2.471  0.00  0.00    -0.477 OA
ATOM     36  H   LIG    1      -12.486   3.588  -1.570  0.00  0.00    +0.295 HD
ENDBRANCH  33  35
ENDBRANCH  30  33
ENDBRANCH  25  27
ENDBRANCH   7  25
TORSDOF 5
