REMARK  Name = ZINC27557503
REMARK                            x       y       z     vdW  Elec       q    Type
REMARK                         _______ _______ _______ _____ _____    ______ ____
ROOT
ATOM      1  C   LIG    1       -2.856   1.577   2.459  0.00  0.00    +0.141 C 
ENDROOT
BRANCH   1   2
ATOM      2  C   LIG    1       -4.301   1.161   2.359  0.00  0.00    +0.233 C 
ATOM      3  N   LIG    1       -4.880   0.489   3.373  0.00  0.00    -0.290 N 
ATOM      4  C   LIG    1       -6.301   0.154   3.366  0.00  0.00    +0.119 C 
ATOM      5  C   LIG    1       -6.555  -1.187   4.121  0.00  0.00    +0.089 C 
ATOM      6  S   LIG    1       -5.343  -0.953   5.498  0.00  0.00    -0.140 S 
ATOM      7  C   LIG    1       -4.117   0.053   4.558  0.00  0.00    +0.177 C 
ATOM      8  O   LIG    1       -4.942   1.431   1.365  0.00  0.00    -0.274 OA
ENDBRANCH   1   2
BRANCH   1   9
ATOM      9  N   LIG    1       -2.702   2.942   1.936  0.00  0.00    -0.320 NA
ATOM     10  H   LIG    1       -1.647   3.245   2.009  0.00  0.00    +0.119 HD
ATOM     11  H   LIG    1       -3.324   3.632   2.524  0.00  0.00    +0.119 HD
ENDBRANCH   1   9
BRANCH   1  12
ATOM     12  C   LIG    1       -1.990   0.617   1.641  0.00  0.00    +0.011 C 
ATOM     13  C   LIG    1       -2.082  -0.788   2.241  0.00  0.00    +0.009 C 
BRANCH  12  15
ATOM     14  C   LIG    1        0.308   0.203   0.754  0.00  0.00    +0.004 C 
ATOM     15  C   LIG    1       -0.535   1.090   1.671  0.00  0.00    +0.002 C 
ENDBRANCH  12  15
ENDBRANCH   1  12
TORSDOF 4
