REMARK  Name = ZINC22309089
REMARK                            x       y       z     vdW  Elec       q    Type
REMARK                         _______ _______ _______ _____ _____    ______ ____
ROOT
ATOM      1  C   LIG    1       -0.233   1.519   0.068  0.00  0.00    +0.083 C 
ATOM      2  C   LIG    1       -0.006   0.007   0.016  0.00  0.00    +0.305 C 
ENDROOT
BRANCH   2   3
ATOM      3  P   LIG    1        0.796  -0.434  -1.560  0.00  0.00    +0.383 P 
ATOM      4  O   LIG    1       -0.120  -0.027  -2.736  0.00  0.00    -0.254 OA
BRANCH   3   5
ATOM      5  O   LIG    1        1.053  -2.023  -1.606  0.00  0.00    -0.321 OA
ATOM      6  H   LIG    1        1.478  -2.330  -2.418  0.00  0.00    +0.220 HD
ENDBRANCH   3   5
BRANCH   3   7
ATOM      7  O   LIG    1        2.145   0.309  -1.678  0.00  0.00    -0.321 OA
ATOM      8  H   LIG    1        1.990   1.266  -1.650  0.00  0.00    +0.220 HD
ENDBRANCH   3   7
ENDBRANCH   2   3
BRANCH   2   9
ATOM      9  P   LIG    1       -1.609  -0.853   0.144  0.00  0.00    +0.383 P 
ATOM     10  O   LIG    1       -1.372  -2.378   0.200  0.00  0.00    -0.254 OA
BRANCH   9  11
ATOM     11  O   LIG    1       -2.476  -0.511  -1.088  0.00  0.00    -0.321 OA
ATOM     12  H   LIG    1       -2.019  -0.797  -1.894  0.00  0.00    +0.220 HD
ENDBRANCH   9  11
BRANCH   9  13
ATOM     13  O   LIG    1       -2.367  -0.378   1.483  0.00  0.00    -0.321 OA
ATOM     14  H   LIG    1       -3.229  -0.795   1.616  0.00  0.00    +0.220 HD
ENDBRANCH   9  13
ENDBRANCH   2   9
BRANCH   2  15
ATOM     15  O   LIG    1        0.833  -0.387   1.104  0.00  0.00    -0.462 OA
BRANCH  15  16
ATOM     16  C   LIG    1        2.030   0.248   1.221  0.00  0.00    +0.123 A 
ATOM     17  C   LIG    1        2.349   1.290   0.363  0.00  0.00    +0.049 A 
ATOM     18  C   LIG    1        3.565   1.935   0.481  0.00  0.00    +0.049 A 
ATOM     19  C   LIG    1        4.467   1.540   1.458  0.00  0.00    +0.117 A 
ATOM     20  C   LIG    1        4.147   0.499   2.317  0.00  0.00    +0.049 A 
ATOM     21  C   LIG    1        2.930  -0.143   2.201  0.00  0.00    +0.049 A 
BRANCH  19  22
ATOM     22  O   LIG    1        5.664   2.175   1.575  0.00  0.00    -0.507 OA
ATOM     23  H   LIG    1        5.651   2.934   2.173  0.00  0.00    +0.292 HD
ENDBRANCH  19  22
ENDBRANCH  15  16
ENDBRANCH   2  15
TORSDOF 9
