REMARK  Name = ZINC27108312
REMARK                            x       y       z     vdW  Elec       q    Type
REMARK                         _______ _______ _______ _____ _____    ______ ____
ROOT
ATOM      1  C   LIG    1        0.450   9.071  -3.048  0.00  0.00    +0.234 C 
ATOM      2  N   LIG    1        0.533   9.730  -4.220  0.00  0.00    -0.299 N 
ATOM      3  H   LIG    1        0.177   9.254  -5.146  0.00  0.00    +0.150 HD
ATOM      4  O   LIG    1        0.842   9.596  -2.027  0.00  0.00    -0.274 OA
ENDROOT
BRANCH   2   5
ATOM      5  C   LIG    1        1.098  11.081  -4.262  0.00  0.00    +0.191 C 
ATOM      6  C   LIG    1        0.562  11.815  -5.463  0.00  0.00    -0.011 A 
ATOM      7  C   LIG    1       -0.106  13.012  -5.266  0.00  0.00    +0.006 A 
ATOM      8  C   LIG    1       -0.604  13.716  -6.346  0.00  0.00    +0.000 A 
ATOM      9  C   LIG    1       -0.437  13.225  -7.629  0.00  0.00    +0.001 A 
ATOM     10  C   LIG    1        0.223  12.033  -7.832  0.00  0.00    +0.009 A 
ATOM     11  C   LIG    1        0.727  11.313  -6.740  0.00  0.00    -0.011 A 
ATOM     12  C   LIG    1        1.420  10.032  -7.017  0.00  0.00    +0.004 A 
ATOM     13  C   LIG    1        0.865   9.222  -8.019  0.00  0.00    +0.010 A 
ATOM     14  C   LIG    1        1.436   8.012  -8.338  0.00  0.00    +0.001 A 
ATOM     15  C   LIG    1        2.569   7.584  -7.667  0.00  0.00    +0.002 A 
ATOM     16  C   LIG    1        3.125   8.371  -6.683  0.00  0.00    +0.024 A 
ATOM     17  C   LIG    1        2.558   9.605  -6.348  0.00  0.00    +0.044 A 
ATOM     18  N   LIG    1        3.192  10.330  -5.350  0.00  0.00    -0.272 N 
ATOM     19  C   LIG    1        4.657  10.363  -5.380  0.00  0.00    +0.138 C 
ATOM     20  C   LIG    1        2.595  10.997  -4.369  0.00  0.00    +0.244 C 
ATOM     21  O   LIG    1        3.276  11.555  -3.535  0.00  0.00    -0.273 OA
ENDBRANCH   2   5
BRANCH   1  23
ATOM     22  C   LIG    1       -1.574   7.716  -3.514  0.00  0.00    +0.038 C 
ATOM     23  C   LIG    1       -0.132   7.681  -3.005  0.00  0.00    +0.156 C 
BRANCH  23  24
ATOM     24  N   LIG    1       -0.112   7.186  -1.626  0.00  0.00    -0.304 N 
ATOM     25  H   LIG    1       -0.113   7.896  -0.787  0.00  0.00    +0.149 HD
ATOM     26  C   LIG    1       -0.091   5.860  -1.387  0.00  0.00    +0.218 C 
ATOM     27  O   LIG    1       -0.089   5.076  -2.313  0.00  0.00    -0.275 OA
BRANCH  26  28
ATOM     28  C   LIG    1       -0.070   5.350   0.031  0.00  0.00    +0.131 C 
BRANCH  28  29
ATOM     29  C   LIG    1       -0.050   3.843   0.023  0.00  0.00    -0.033 A 
ATOM     30  C   LIG    1        1.156   3.169   0.008  0.00  0.00    +0.042 A 
ATOM     31  C   LIG    1        1.176   1.785   0.000  0.00  0.00    +0.126 A 
ATOM     32  F   LIG    1        2.356   1.126  -0.014  0.00  0.00    -0.205 F 
ATOM     33  C   LIG    1       -0.013   1.076   0.008  0.00  0.00    +0.076 A 
ATOM     34  C   LIG    1       -1.220   1.752   0.017  0.00  0.00    +0.126 A 
ATOM     35  F   LIG    1       -2.381   1.062   0.019  0.00  0.00    -0.205 F 
ATOM     36  C   LIG    1       -1.238   3.137   0.031  0.00  0.00    +0.042 A 
ENDBRANCH  28  29
ENDBRANCH  26  28
ENDBRANCH  23  24
ENDBRANCH   1  23
TORSDOF 5
