REMARK  Name = ZINC18189761
REMARK                            x       y       z     vdW  Elec       q    Type
REMARK                         _______ _______ _______ _____ _____    ______ ____
ROOT
ATOM      1  C   LIG    1        0.045  -0.460  -2.489  0.00  0.00    +0.401 C 
ATOM      2  N   LIG    1        0.542  -1.200  -3.454  0.00  0.00    -0.072 NA
ENDROOT
BRANCH   2   3
ATOM      3  C   LIG    1       -0.215  -1.486  -4.554  0.00  0.00    +0.145 A 
ATOM      4  C   LIG    1       -1.489  -2.058  -4.424  0.00  0.00    +0.065 A 
ATOM      5  C   LIG    1       -2.218  -2.329  -5.560  0.00  0.00    +0.114 A 
ATOM      6  N   LIG    1       -1.732  -2.060  -6.758  0.00  0.00    -0.263 NA
ATOM      7  C   LIG    1       -0.538  -1.522  -6.927  0.00  0.00    +0.114 A 
ATOM      8  C   LIG    1        0.257  -1.212  -5.845  0.00  0.00    +0.065 A 
ENDBRANCH   2   3
BRANCH   1   9
ATOM      9  N   LIG    1        0.777  -0.232  -1.353  0.00  0.00    -0.272 N 
ATOM     10  H   LIG    1        1.696  -0.539  -1.299  0.00  0.00    +0.258 HD
BRANCH   9  12
ATOM     11  C   LIG    1        0.378   1.982  -0.393  0.00  0.00    +0.048 C 
ATOM     12  C   LIG    1        0.173   0.475  -0.222  0.00  0.00    +0.147 C 
BRANCH  12  13
ATOM     13  C   LIG    1        0.835   0.015   1.079  0.00  0.00    -0.005 C 
ATOM     14  C   LIG    1        2.332   0.323   1.026  0.00  0.00    +0.014 C 
ATOM     15  C   LIG    1        0.629  -1.491   1.250  0.00  0.00    +0.014 C 
ATOM     16  C   LIG    1        0.203   0.753   2.261  0.00  0.00    +0.014 C 
ENDBRANCH  12  13
ENDBRANCH   9  12
ENDBRANCH   1   9
BRANCH   1  17
ATOM     17  N   LIG    1       -1.211   0.087  -2.619  0.00  0.00    -0.177 N 
ATOM     18  H   LIG    1       -1.764  -0.145  -3.381  0.00  0.00    +0.278 HD
BRANCH  17  19
ATOM     19  C   LIG    1       -1.674   0.949  -1.682  0.00  0.00    +0.255 C 
ATOM     20  N   LIG    1       -2.063   1.672  -0.897  0.00  0.00    -0.154 NA
ENDBRANCH  17  19
ENDBRANCH   1  17
TORSDOF 6
