REMARK  Name = ZINC20397736
REMARK                            x       y       z     vdW  Elec       q    Type
REMARK                         _______ _______ _______ _____ _____    ______ ____
ROOT
ATOM      1  C   LIG    1       -0.017   1.378   0.010  0.00  0.00    +0.029 A 
ATOM      2  C   LIG    1        1.172   2.081   0.002  0.00  0.00    +0.006 A 
ATOM      3  C   LIG    1        2.384   1.408  -0.012  0.00  0.00    -0.042 A 
ATOM      4  C   LIG    1        2.403   0.029  -0.015  0.00  0.00    -0.029 A 
ATOM      5  C   LIG    1        3.694  -0.747  -0.018  0.00  0.00    +0.116 C 
ATOM      6  N   LIG    1        4.808   0.111  -0.431  0.00  0.00    -0.312 NA
ATOM      7  H   LIG    1        5.686  -0.383  -0.372  0.00  0.00    +0.122 HD
ATOM      8  C   LIG    1        4.838   1.337   0.382  0.00  0.00    +0.086 C 
ATOM      9  C   LIG    1        1.208  -0.675  -0.011  0.00  0.00    +0.033 A 
ATOM     10  C   LIG    1        3.655   2.217  -0.025  0.00  0.00    +0.050 C 
ATOM     11  C   LIG    1        0.002  -0.004   0.002  0.00  0.00    +0.105 A 
ENDROOT
BRANCH  11  12
ATOM     12  S   LIG    1       -1.511  -0.907   0.008  0.00  0.00    +0.056 S 
ATOM     13  O   LIG    1       -2.494  -0.049   0.571  0.00  0.00    -0.153 OA
ATOM     14  O   LIG    1       -1.217  -2.188   0.550  0.00  0.00    -0.153 OA
BRANCH  12  15
ATOM     15  N   LIG    1       -1.943  -1.150  -1.572  0.00  0.00    -0.204 NA
ATOM     16  H   LIG    1       -1.690  -0.503  -2.249  0.00  0.00    +0.144 HD
ATOM     17  H   LIG    1       -2.449  -1.939  -1.821  0.00  0.00    +0.144 HD
ENDBRANCH  12  15
ENDBRANCH  11  12
TORSDOF 2
