REMARK  Name = ZINC40423157
REMARK                            x       y       z     vdW  Elec       q    Type
REMARK                         _______ _______ _______ _____ _____    ______ ____
ROOT
ATOM      1  N   LIG    1       -5.423  -2.855  -1.343  0.00  0.00    -0.262 N 
ATOM      2  C   LIG    1       -6.191  -1.958  -2.078  0.00  0.00    +0.045 A 
ATOM      3  C   LIG    1       -6.712  -0.710  -1.756  0.00  0.00    +0.026 A 
ATOM      4  C   LIG    1       -7.456  -0.009  -2.684  0.00  0.00    +0.030 A 
ATOM      5  C   LIG    1       -7.694  -0.535  -3.944  0.00  0.00    +0.106 A 
ATOM      6  C   LIG    1       -7.186  -1.772  -4.284  0.00  0.00    +0.039 A 
ATOM      7  C   LIG    1       -6.432  -2.488  -3.355  0.00  0.00    +0.012 A 
ATOM      8  C   LIG    1       -5.763  -3.802  -3.396  0.00  0.00    +0.074 C 
ATOM      9  C   LIG    1       -5.725  -4.697  -4.453  0.00  0.00    +0.141 C 
ATOM     10  C   LIG    1       -5.134  -3.954  -2.061  0.00  0.00    +0.254 C 
ATOM     11  O   LIG    1       -4.477  -4.904  -1.683  0.00  0.00    -0.270 OA
ENDROOT
BRANCH   5  12
ATOM     12  S   LIG    1       -8.647   0.376  -5.113  0.00  0.00    +0.061 S 
ATOM     13  O   LIG    1       -9.467   1.263  -4.365  0.00  0.00    -0.153 OA
ATOM     14  O   LIG    1       -9.184  -0.572  -6.026  0.00  0.00    -0.153 OA
BRANCH  12  15
ATOM     15  N   LIG    1       -7.593   1.319  -5.974  0.00  0.00    -0.175 NA
ATOM     16  C   LIG    1       -7.274   2.666  -5.499  0.00  0.00    +0.120 C 
ATOM     17  C   LIG    1       -5.795   2.728  -5.097  0.00  0.00    +0.086 C 
ATOM     18  S   LIG    1       -4.783   2.245  -6.528  0.00  0.00    -0.158 S 
ATOM     19  C   LIG    1       -5.481   0.635  -7.004  0.00  0.00    +0.086 C 
ATOM     20  C   LIG    1       -6.988   0.793  -7.199  0.00  0.00    +0.120 C 
ENDBRANCH  12  15
ENDBRANCH   5  12
BRANCH   9  21
ATOM     21  C   LIG    1       -6.389  -4.382  -5.682  0.00  0.00    +0.111 C 
ATOM     22  N   LIG    1       -6.916  -4.132  -6.657  0.00  0.00    -0.190 NA
ENDBRANCH   9  21
BRANCH   9  23
ATOM     23  C   LIG    1       -5.022  -5.937  -4.316  0.00  0.00    +0.111 C 
ATOM     24  N   LIG    1       -4.464  -6.921  -4.208  0.00  0.00    -0.190 NA
ENDBRANCH   9  23
BRANCH   1  25
ATOM     25  C   LIG    1       -4.981  -2.629   0.035  0.00  0.00    +0.149 C 
BRANCH  25  29
ATOM     26  C   LIG    1       -1.200  -0.637   0.010  0.00  0.00    +0.120 A 
ATOM     27  C   LIG    1       -2.375   0.101   0.019  0.00  0.00    +0.046 A 
ATOM     28  C   LIG    1       -3.596  -0.545   0.027  0.00  0.00    +0.009 A 
ATOM     29  C   LIG    1       -3.648  -1.927   0.026  0.00  0.00    -0.029 A 
ATOM     30  C   LIG    1       -2.479  -2.665   0.017  0.00  0.00    +0.009 A 
ATOM     31  C   LIG    1       -1.255  -2.024   0.003  0.00  0.00    +0.046 A 
BRANCH  26  33
ATOM     32  C   LIG    1       -0.017   1.425   0.010  0.00  0.00    +0.277 C 
ATOM     33  O   LIG    1        0.002  -0.004   0.002  0.00  0.00    -0.495 OA
ENDBRANCH  26  33
ENDBRANCH  25  29
ENDBRANCH   1  25
TORSDOF 7
