REMARK  Name = ZINC34451922
REMARK                            x       y       z     vdW  Elec       q    Type
REMARK                         _______ _______ _______ _____ _____    ______ ____
ROOT
ATOM      1  N   LIG    1        0.010  -4.943  -1.130  0.00  0.00    -0.303 NA
ATOM      2  C   LIG    1        1.276  -5.342  -1.764  0.00  0.00    +0.066 C 
ATOM      3  C   LIG    1        1.224  -4.947  -3.244  0.00  0.00    -0.063 C 
ATOM      4  N   LIG    1        0.026  -5.530  -3.863  0.00  0.00    +0.382 N 
ATOM      5  H   LIG    1        0.028  -6.529  -3.720  0.00  0.00    -0.082 HD
ATOM      6  C   LIG    1       -1.181  -4.953  -3.257  0.00  0.00    -0.063 C 
ATOM      7  C   LIG    1       -1.247  -5.352  -1.775  0.00  0.00    +0.066 C 
ENDROOT
BRANCH   1  17
ATOM      8  C   LIG    1       -0.031   1.438   0.062  0.00  0.00    +0.024 C 
ATOM      9  C   LIG    1       -0.023  -0.069   0.045  0.00  0.00    +0.051 C 
ATOM     10  C   LIG    1       -0.015  -0.733  -1.179  0.00  0.00    +0.019 C 
ATOM     11  C   LIG    1       -0.007  -2.099  -1.214  0.00  0.00    +0.008 C 
ATOM     12  C   LIG    1       -0.007  -2.794   0.007  0.00  0.00    +0.023 C 
ATOM     13  C   LIG    1       -0.015  -2.058   1.218  0.00  0.00    +0.058 C 
ATOM     14  C   LIG    1       -0.014  -2.749   2.441  0.00  0.00    +0.019 C 
ATOM     15  C   LIG    1       -0.005  -4.112   2.455  0.00  0.00    +0.003 C 
ATOM     16  C   LIG    1        0.003  -4.843   1.272  0.00  0.00    +0.019 C 
ATOM     17  C   LIG    1        0.002  -4.204   0.050  0.00  0.00    +0.061 C 
ATOM     18  N   LIG    1       -0.017  -0.721   1.183  0.00  0.00    -0.310 NA
ATOM     19  H   LIG    1       -0.019  -0.224   2.015  0.00  0.00    +0.122 HD
ENDBRANCH   1  17
BRANCH   4  20
ATOM     20  C   LIG    1        0.034  -5.244  -5.303  0.00  0.00    -0.074 C 
BRANCH  20  21
ATOM     21  C   LIG    1       -1.146  -5.954  -5.970  0.00  0.00    +0.016 C 
BRANCH  21  22
ATOM     22  C   LIG    1       -1.139  -5.661  -7.449  0.00  0.00    -0.047 A 
ATOM     23  C   LIG    1       -1.817  -4.560  -7.938  0.00  0.00    +0.004 A 
ATOM     24  C   LIG    1       -1.813  -4.287  -9.293  0.00  0.00    +0.002 A 
ATOM     25  C   LIG    1       -1.130  -5.115 -10.163  0.00  0.00    +0.023 A 
ATOM     26  C   LIG    1       -0.448  -6.221  -9.675  0.00  0.00    +0.038 A 
ATOM     27  C   LIG    1       -0.450  -6.489  -8.312  0.00  0.00    +0.027 A 
BRANCH  26  28
ATOM     28  N   LIG    1        0.244  -7.062 -10.554  0.00  0.00    -0.254 N 
ATOM     29  C   LIG    1        1.095  -8.194 -10.158  0.00  0.00    +0.134 C 
ATOM     30  C   LIG    1        1.602  -8.762 -11.498  0.00  0.00    +0.125 C 
ATOM     31  N   LIG    1        0.983  -7.889 -12.507  0.00  0.00    -0.297 N 
ATOM     32  H   LIG    1        1.096  -7.972 -13.467  0.00  0.00    +0.150 HD
ATOM     33  C   LIG    1        0.233  -6.966 -11.890  0.00  0.00    +0.307 C 
ATOM     34  O   LIG    1       -0.397  -6.116 -12.489  0.00  0.00    -0.252 OA
ENDBRANCH  26  28
ENDBRANCH  21  22
ENDBRANCH  20  21
ENDBRANCH   4  20
TORSDOF 5
