REMARK  Name = ZINC27875287
REMARK                            x       y       z     vdW  Elec       q    Type
REMARK                         _______ _______ _______ _____ _____    ______ ____
ROOT
ATOM      1  N   LIG    1       -1.020   0.796  -1.982  0.00  0.00    -0.284 N 
ATOM      2  C   LIG    1       -1.234   0.061  -0.872  0.00  0.00    +0.229 C 
ATOM      3  O   LIG    1       -1.881  -0.963  -0.939  0.00  0.00    -0.274 OA
ENDROOT
BRANCH   1   4
ATOM      4  C   LIG    1       -1.333   2.227  -1.983  0.00  0.00    +0.077 C 
ATOM      5  C   LIG    1       -0.032   3.053  -1.926  0.00  0.00    +0.022 C 
ATOM      6  C   LIG    1       -0.388   4.261  -1.023  0.00  0.00    +0.002 C 
ATOM      7  C   LIG    1       -1.303   3.626   0.053  0.00  0.00    +0.002 C 
ATOM      8  C   LIG    1       -2.142   2.591  -0.725  0.00  0.00    +0.022 C 
ENDBRANCH   1   4
BRANCH   1  10
ATOM      9  C   LIG    1        0.897  -0.435  -2.870  0.00  0.00    +0.040 C 
ATOM     10  C   LIG    1       -0.474   0.164  -3.185  0.00  0.00    +0.182 C 
BRANCH  10  11
ATOM     11  C   LIG    1       -1.406  -0.927  -3.646  0.00  0.00    +0.325 C 
ATOM     12  O   LIG    1       -2.421  -1.154  -3.032  0.00  0.00    -0.249 OA
BRANCH  11  13
ATOM     13  O   LIG    1       -1.108  -1.647  -4.739  0.00  0.00    -0.479 OA
ATOM     14  H   LIG    1       -0.320  -1.471  -5.215  0.00  0.00    +0.295 HD
ENDBRANCH  11  13
ENDBRANCH  10  11
ENDBRANCH   1  10
BRANCH   2  15
ATOM     15  C   LIG    1       -0.669   0.510   0.450  0.00  0.00    +0.126 C 
ATOM     16  C   LIG    1       -1.764   1.202   1.264  0.00  0.00    +0.028 C 
BRANCH  15  17
ATOM     17  S   LIG    1        0.695   1.671   0.162  0.00  0.00    -0.166 S 
ATOM     18  H   LIG    1        1.234   2.110   1.015  0.00  0.00    +0.102 HD
ENDBRANCH  15  17
ENDBRANCH   2  15
TORSDOF 6
