REMARK  Name = ZINC40849222
REMARK                            x       y       z     vdW  Elec       q    Type
REMARK                         _______ _______ _______ _____ _____    ______ ____
ROOT
ATOM      1  N   LIG    1        1.153   1.606   7.011  0.00  0.00    -0.194 N 
ENDROOT
BRANCH   1   2
ATOM      2  C   LIG    1        2.466   2.084   6.937  0.00  0.00    +0.070 A 
ATOM      3  C   LIG    1        3.541   1.197   6.926  0.00  0.00    +0.031 A 
ATOM      4  C   LIG    1        4.822   1.714   6.852  0.00  0.00    +0.069 A 
ATOM      5  C   LIG    1        4.993   3.091   6.791  0.00  0.00    +0.214 A 
ATOM      6  N   LIG    1        3.951   3.904   6.804  0.00  0.00    -0.219 NA
ATOM      7  C   LIG    1        2.715   3.447   6.868  0.00  0.00    +0.139 A 
BRANCH   5   8
ATOM      8  O   LIG    1        6.247   3.608   6.718  0.00  0.00    -0.480 OA
ATOM      9  C   LIG    1        6.359   5.032   6.658  0.00  0.00    +0.279 C 
ENDBRANCH   5   8
ENDBRANCH   1   2
BRANCH   1  10
ATOM     10  S   LIG    1        0.678   0.683   8.301  0.00  0.00    +0.094 S 
ATOM     11  O   LIG    1       -0.742   0.711   8.320  0.00  0.00    -0.148 OA
ATOM     12  O   LIG    1        1.463   1.101   9.410  0.00  0.00    -0.148 OA
BRANCH  10  13
ATOM     13  C   LIG    1        1.145  -0.980   7.952  0.00  0.00    +0.215 A 
ATOM     14  C   LIG    1        0.392  -1.896   7.314  0.00  0.00    +0.136 A 
ATOM     15  N   LIG    1        1.132  -3.046   7.256  0.00  0.00    -0.336 N 
ATOM     16  C   LIG    1        0.720  -4.314   6.650  0.00  0.00    +0.150 C 
ATOM     17  C   LIG    1        2.312  -2.792   7.861  0.00  0.00    +0.109 A 
ATOM     18  C   LIG    1        3.442  -3.776   8.030  0.00  0.00    +0.086 C 
ATOM     19  N   LIG    1        2.315  -1.553   8.270  0.00  0.00    -0.213 NA
ENDBRANCH  10  13
ENDBRANCH   1  10
BRANCH   1  20
ATOM     20  C   LIG    1        0.197   1.922   5.946  0.00  0.00    +0.187 C 
BRANCH  20  24
ATOM     21  C   LIG    1        0.635  -0.861   2.790  0.00  0.00    +0.000 A 
ATOM     22  C   LIG    1       -0.343  -1.099   3.760  0.00  0.00    +0.012 A 
ATOM     23  C   LIG    1       -0.481  -0.185   4.790  0.00  0.00    +0.025 A 
ATOM     24  C   LIG    1        0.344   0.924   4.826  0.00  0.00    +0.060 A 
ATOM     25  N   LIG    1        1.259   1.122   3.897  0.00  0.00    -0.258 NA
ATOM     26  C   LIG    1        1.432   0.276   2.901  0.00  0.00    +0.119 A 
BRANCH  21  33
ATOM     27  C   LIG    1        0.744   0.138   0.078  0.00  0.00    +0.044 C 
ATOM     28  C   LIG    1        0.880  -1.337   0.355  0.00  0.00    -0.043 A 
ATOM     29  C   LIG    1        1.063  -2.222  -0.689  0.00  0.00    +0.004 A 
ATOM     30  C   LIG    1        1.189  -3.576  -0.436  0.00  0.00    +0.000 A 
ATOM     31  C   LIG    1        1.131  -4.051   0.862  0.00  0.00    +0.001 A 
ATOM     32  C   LIG    1        0.948  -3.175   1.913  0.00  0.00    +0.009 A 
ATOM     33  C   LIG    1        0.827  -1.809   1.664  0.00  0.00    -0.014 A 
ENDBRANCH  21  33
ENDBRANCH  20  24
ENDBRANCH   1  20
TORSDOF 7
