REMARK  Name = ZINC18187630
REMARK                            x       y       z     vdW  Elec       q    Type
REMARK                         _______ _______ _______ _____ _____    ______ ____
ROOT
ATOM      1  C   LIG    1       -0.017   1.376   0.010  0.00  0.00    +0.049 A 
ATOM      2  C   LIG    1        1.178   2.089   0.002  0.00  0.00    +0.067 A 
ATOM      3  C   LIG    1        2.393   1.403  -0.014  0.00  0.00    +0.067 A 
ATOM      4  N   LIG    1        3.599   2.099  -0.022  0.00  0.00    -0.316 N 
ATOM      5  C   LIG    1        3.602   3.447  -0.014  0.00  0.00    +0.314 A 
ATOM      6  C   LIG    1        2.303   4.180   0.003  0.00  0.00    +0.314 A 
ATOM      7  O   LIG    1        2.284   5.395   0.009  0.00  0.00    -0.262 OA
ATOM      8  O   LIG    1        4.651   4.059  -0.022  0.00  0.00    -0.262 OA
ATOM      9  H   LIG    1        4.439   1.613  -0.034  0.00  0.00    +0.169 HD
ATOM     10  C   LIG    1        2.401   0.012  -0.022  0.00  0.00    +0.049 A 
ATOM     11  C   LIG    1        1.210  -0.686  -0.014  0.00  0.00    +0.061 A 
ATOM     12 CL   LIG    1        1.224  -2.421  -0.024  0.00  0.00    -0.082 Cl
ATOM     13  N   LIG    1        1.150   3.481   0.010  0.00  0.00    -0.316 N 
ATOM     14  H   LIG    1        0.300   3.948   0.020  0.00  0.00    +0.169 HD
ATOM     15  C   LIG    1        0.002  -0.004   0.002  0.00  0.00    +0.061 A 
ATOM     16 CL   LIG    1       -1.491  -0.890   0.012  0.00  0.00    -0.082 Cl
ENDROOT
TORSDOF 0
