REMARK  Name = ZINC18172548
REMARK                            x       y       z     vdW  Elec       q    Type
REMARK                         _______ _______ _______ _____ _____    ______ ____
ROOT
ATOM      1  N   LIG    1        0.208  -2.780   2.384  0.00  0.00    -0.269 N 
ATOM      2  H   LIG    1        0.028  -3.733   2.371  0.00  0.00    +0.156 HD
ATOM      3  C   LIG    1        0.311  -2.130   3.560  0.00  0.00    +0.308 C 
ATOM      4  N   LIG    1        0.266  -2.819   4.717  0.00  0.00    -0.269 N 
ATOM      5  H   LIG    1        0.236  -3.789   4.703  0.00  0.00    +0.156 HD
ATOM      6  O   LIG    1        0.443  -0.921   3.577  0.00  0.00    -0.252 OA
ENDROOT
BRANCH   1  13
ATOM      7  C   LIG    1       -0.984  -2.182  -2.348  0.00  0.00    +0.044 C 
ATOM      8  C   LIG    1       -0.202  -1.769  -1.127  0.00  0.00    -0.048 A 
ATOM      9  C   LIG    1        0.669  -0.698  -1.195  0.00  0.00    +0.006 A 
ATOM     10  C   LIG    1        1.388  -0.316  -0.077  0.00  0.00    -0.048 A 
ATOM     11  C   LIG    1        2.337   0.853  -0.155  0.00  0.00    +0.044 C 
ATOM     12  C   LIG    1        1.237  -1.004   1.111  0.00  0.00    +0.026 A 
ATOM     13  C   LIG    1        0.363  -2.080   1.182  0.00  0.00    +0.035 A 
ATOM     14  C   LIG    1       -0.361  -2.458   0.059  0.00  0.00    +0.026 A 
ENDBRANCH   1  13
BRANCH   4  15
ATOM     15  C   LIG    1        0.263  -2.136   5.939  0.00  0.00    +0.035 A 
ATOM     16  C   LIG    1       -0.358  -0.899   6.043  0.00  0.00    +0.025 A 
ATOM     17  C   LIG    1       -0.359  -0.228   7.250  0.00  0.00    +0.030 A 
ATOM     18  C   LIG    1        0.258  -0.786   8.354  0.00  0.00    +0.105 A 
ATOM     19  C   LIG    1        0.878  -2.018   8.254  0.00  0.00    +0.030 A 
ATOM     20  C   LIG    1        0.877  -2.698   7.051  0.00  0.00    +0.025 A 
BRANCH  18  21
ATOM     21  S   LIG    1        0.255   0.074   9.892  0.00  0.00    +0.056 S 
ATOM     22  O   LIG    1        0.084   1.451   9.586  0.00  0.00    -0.153 OA
ATOM     23  O   LIG    1        1.369  -0.410  10.630  0.00  0.00    -0.153 OA
BRANCH  21  24
ATOM     24  N   LIG    1       -1.101  -0.400  10.716  0.00  0.00    -0.204 NA
ATOM     25  H   LIG    1       -1.286  -0.035  11.595  0.00  0.00    +0.144 HD
ATOM     26  H   LIG    1       -1.709  -1.043  10.319  0.00  0.00    +0.144 HD
ENDBRANCH  21  24
ENDBRANCH  18  21
ENDBRANCH   4  15
TORSDOF 4
