REMARK  Name = ZINC28951019
REMARK                            x       y       z     vdW  Elec       q    Type
REMARK                         _______ _______ _______ _____ _____    ______ ____
ROOT
ATOM      1  C   LIG    1       -3.544   1.437   0.966  0.00  0.00    +0.164 A 
ATOM      2  C   LIG    1       -2.407   0.823   1.520  0.00  0.00    +0.217 A 
ATOM      3  N   LIG    1       -2.481  -0.380   2.036  0.00  0.00    -0.224 NA
ATOM      4  C   LIG    1       -3.648  -1.036   2.032  0.00  0.00    +0.093 A 
ATOM      5  C   LIG    1       -3.754  -2.326   2.579  0.00  0.00    +0.051 A 
ATOM      6  C   LIG    1       -4.953  -2.971   2.562  0.00  0.00    +0.061 A 
ATOM      7 CL   LIG    1       -5.078  -4.564   3.240  0.00  0.00    -0.082 Cl
ATOM      8  C   LIG    1       -6.084  -2.368   2.009  0.00  0.00    +0.061 A 
ATOM      9 CL   LIG    1       -7.595  -3.222   2.006  0.00  0.00    -0.082 Cl
ATOM     10  C   LIG    1       -6.017  -1.119   1.469  0.00  0.00    +0.051 A 
ATOM     11  C   LIG    1       -4.796  -0.424   1.469  0.00  0.00    +0.093 A 
ATOM     12  N   LIG    1       -4.703   0.805   0.947  0.00  0.00    -0.227 NA
ENDROOT
BRANCH   2  13
ATOM     13  S   LIG    1       -0.868   1.683   1.528  0.00  0.00    +0.014 S 
ATOM     14  C   LIG    1       -0.192   1.443  -0.138  0.00  0.00    +0.202 C 
ATOM     15  O   LIG    1       -1.216   3.047   1.723  0.00  0.00    -0.168 OA
ATOM     16  O   LIG    1       -0.073   0.994   2.482  0.00  0.00    -0.168 OA
ENDBRANCH   2  13
BRANCH   1  17
ATOM     17  N   LIG    1       -3.447   2.712   0.430  0.00  0.00    -0.322 N 
ATOM     18  H   LIG    1       -2.465   3.204   0.355  0.00  0.00    +0.148 HD
BRANCH  17  20
ATOM     19  C   LIG    1       -5.629   3.567   1.129  0.00  0.00    +0.031 C 
ATOM     20  C   LIG    1       -4.650   3.405  -0.036  0.00  0.00    +0.025 C 
ATOM     21  C   LIG    1       -5.312   2.587  -1.147  0.00  0.00    +0.031 C 
ATOM     22  C   LIG    1       -4.268   4.784  -0.577  0.00  0.00    +0.031 C 
ENDBRANCH  17  20
ENDBRANCH   1  17
TORSDOF 3
