REMARK  Name = ZINC20405015
REMARK                            x       y       z     vdW  Elec       q    Type
REMARK                         _______ _______ _______ _____ _____    ______ ____
ROOT
ATOM      1  N   LIG    1        1.684  -4.958   0.514  0.00  0.00    -0.174 NA
ATOM      2  C   LIG    1        2.254  -5.294  -0.799  0.00  0.00    +0.128 C 
ATOM      3  C   LIG    1        3.505  -4.436  -1.024  0.00  0.00    +0.123 C 
ATOM      4  N   LIG    1        4.362  -4.533   0.166  0.00  0.00    -0.312 N 
ATOM      5  C   LIG    1        3.792  -4.197   1.479  0.00  0.00    +0.123 C 
ATOM      6  C   LIG    1        2.543  -5.050   1.703  0.00  0.00    +0.128 C 
ENDROOT
BRANCH   4   7
ATOM      7  C   LIG    1        5.687  -4.935   0.053  0.00  0.00    +0.133 A 
ATOM      8  C   LIG    1        6.682  -3.984  -0.151  0.00  0.00    +0.095 A 
ATOM      9  C   LIG    1        7.997  -4.398  -0.262  0.00  0.00    +0.017 A 
ATOM     10  C   LIG    1        8.274  -5.756  -0.166  0.00  0.00    +0.020 A 
ATOM     11  C   LIG    1        7.238  -6.645   0.037  0.00  0.00    +0.113 A 
ATOM     12  N   LIG    1        5.993  -6.220   0.145  0.00  0.00    -0.240 NA
BRANCH   8  13
ATOM     13  C   LIG    1        6.331  -2.522  -0.250  0.00  0.00    +0.421 C 
ATOM     14  F   LIG    1        5.715  -2.109   0.936  0.00  0.00    -0.166 F 
ATOM     15  F   LIG    1        5.456  -2.323  -1.323  0.00  0.00    -0.166 F 
ATOM     16  F   LIG    1        7.497  -1.775  -0.454  0.00  0.00    -0.166 F 
ENDBRANCH   8  13
ENDBRANCH   4   7
BRANCH   1  17
ATOM     17  S   LIG    1        0.105  -4.479   0.649  0.00  0.00    +0.061 S 
ATOM     18  O   LIG    1       -0.578  -5.009  -0.479  0.00  0.00    -0.153 OA
ATOM     19  O   LIG    1       -0.293  -4.763   1.983  0.00  0.00    -0.153 OA
BRANCH  17  24
ATOM     20  C   LIG    1        0.004   1.525   0.061  0.00  0.00    +0.044 C 
ATOM     21  C   LIG    1        0.030   0.026   0.208  0.00  0.00    -0.050 A 
ATOM     22  C   LIG    1       -0.095  -0.780  -0.908  0.00  0.00    +0.005 A 
ATOM     23  C   LIG    1       -0.072  -2.156  -0.774  0.00  0.00    +0.029 A 
ATOM     24  C   LIG    1        0.077  -2.725   0.477  0.00  0.00    +0.105 A 
ATOM     25  C   LIG    1        0.202  -1.920   1.593  0.00  0.00    +0.029 A 
ATOM     26  C   LIG    1        0.183  -0.544   1.458  0.00  0.00    +0.005 A 
ENDBRANCH  17  24
ENDBRANCH   1  17
TORSDOF 4
