REMARK  Name = ZINC15016427
REMARK                            x       y       z     vdW  Elec       q    Type
REMARK                         _______ _______ _______ _____ _____    ______ ____
ROOT
ATOM      1  C   LIG    1        0.002  -0.004   0.002  0.00  0.00    +0.004 A 
ATOM      2  C   LIG    1        1.180  -0.689  -0.013  0.00  0.00    +0.010 A 
ATOM      3  C   LIG    1        2.396   0.010  -0.021  0.00  0.00    +0.004 A 
ATOM      4  C   LIG    1        3.630  -0.673  -0.036  0.00  0.00    +0.012 A 
ATOM      5  C   LIG    1        4.776   0.062  -0.041  0.00  0.00    +0.028 A 
ATOM      6  C   LIG    1        4.706   1.468  -0.033  0.00  0.00    +0.065 A 
ATOM      7  N   LIG    1        3.544   2.100  -0.020  0.00  0.00    -0.244 NA
ATOM      8  C   LIG    1        2.391   1.427  -0.013  0.00  0.00    +0.113 A 
ATOM      9  C   LIG    1        1.155   2.109   0.002  0.00  0.00    +0.143 A 
ATOM     10  C   LIG    1       -0.017   1.388   0.010  0.00  0.00    +0.047 A 
ENDROOT
BRANCH   6  11
ATOM     11  C   LIG    1        5.952   2.251  -0.040  0.00  0.00    +0.028 C 
ATOM     12  C   LIG    1        5.901   3.595  -0.032  0.00  0.00    +0.010 C 
BRANCH  12  13
ATOM     13  C   LIG    1        7.148   4.379  -0.039  0.00  0.00    -0.025 A 
ATOM     14  C   LIG    1        8.385   3.728  -0.048  0.00  0.00    +0.011 A 
ATOM     15  C   LIG    1        9.549   4.466  -0.060  0.00  0.00    +0.046 A 
ATOM     16  C   LIG    1        9.494   5.854  -0.052  0.00  0.00    +0.117 A 
ATOM     17  C   LIG    1        8.266   6.505  -0.037  0.00  0.00    +0.046 A 
ATOM     18  C   LIG    1        7.097   5.776  -0.031  0.00  0.00    +0.011 A 
BRANCH  16  19
ATOM     19  O   LIG    1       10.643   6.577  -0.058  0.00  0.00    -0.507 OA
ATOM     20  H   LIG    1       10.984   6.782   0.823  0.00  0.00    +0.292 HD
ENDBRANCH  16  19
ENDBRANCH  12  13
ENDBRANCH   6  11
BRANCH   9  21
ATOM     21  O   LIG    1        1.123   3.467   0.010  0.00  0.00    -0.505 OA
ATOM     22  H   LIG    1        1.122   3.856   0.895  0.00  0.00    +0.292 HD
ENDBRANCH   9  21
TORSDOF 4
