REMARK  Name = ZINC53151260
REMARK                            x       y       z     vdW  Elec       q    Type
REMARK                         _______ _______ _______ _____ _____    ______ ____
ROOT
ATOM      1  N   LIG    1        0.097  -2.777  -0.113  0.00  0.00    -0.325 N 
ATOM      2  C   LIG    1       -1.306  -3.214  -0.188  0.00  0.00    +0.120 C 
ATOM      3  C   LIG    1       -2.001  -2.847   1.127  0.00  0.00    +0.103 C 
ATOM      4  N   LIG    1       -1.237  -3.402   2.252  0.00  0.00    -0.298 NA
ATOM      5  C   LIG    1        0.108  -2.815   2.324  0.00  0.00    +0.103 C 
ATOM      6  C   LIG    1        0.891  -3.186   1.055  0.00  0.00    +0.120 C 
ENDROOT
BRANCH   1  12
ATOM      7  C   LIG    1        0.606  -0.608  -1.057  0.00  0.00    +0.141 A 
ATOM      8  C   LIG    1        1.173   0.158  -2.062  0.00  0.00    +0.047 A 
ATOM      9  C   LIG    1        1.786  -0.457  -3.138  0.00  0.00    +0.004 A 
ATOM     10  C   LIG    1        1.837  -1.836  -3.214  0.00  0.00    +0.002 A 
ATOM     11  C   LIG    1        1.274  -2.608  -2.214  0.00  0.00    +0.027 A 
ATOM     12  C   LIG    1        0.662  -1.998  -1.129  0.00  0.00    +0.072 A 
BRANCH   7  14
ATOM     13  C   LIG    1       -0.017   1.425   0.010  0.00  0.00    +0.277 C 
ATOM     14  O   LIG    1        0.002  -0.004   0.002  0.00  0.00    -0.493 OA
ENDBRANCH   7  14
ENDBRANCH   1  12
BRANCH   4  15
ATOM     15  C   LIG    1       -1.959  -3.220   3.519  0.00  0.00    +0.103 C 
BRANCH  15  16
ATOM     16  C   LIG    1       -1.263  -4.021   4.622  0.00  0.00    +0.119 C 
BRANCH  16  17
ATOM     17  N   LIG    1       -1.983  -3.840   5.885  0.00  0.00    -0.314 N 
ATOM     18  H   LIG    1       -2.772  -3.278   5.917  0.00  0.00    +0.149 HD
ATOM     19  C   LIG    1       -1.548  -4.456   7.002  0.00  0.00    +0.216 C 
ATOM     20  O   LIG    1       -0.561  -5.159   6.962  0.00  0.00    -0.276 OA
BRANCH  19  21
ATOM     21  C   LIG    1       -2.289  -4.270   8.301  0.00  0.00    +0.075 C 
ATOM     22  C   LIG    1       -2.297  -2.787   8.676  0.00  0.00    +0.013 C 
ATOM     23  C   LIG    1       -3.049  -2.598   9.995  0.00  0.00    +0.001 C 
ATOM     24  C   LIG    1       -2.353  -3.398  11.098  0.00  0.00    +0.000 C 
ATOM     25  C   LIG    1       -2.345  -4.882  10.723  0.00  0.00    +0.001 C 
ATOM     26  C   LIG    1       -1.593  -5.071   9.404  0.00  0.00    +0.013 C 
ENDBRANCH  19  21
ENDBRANCH  16  17
ENDBRANCH  15  16
ENDBRANCH   4  15
TORSDOF 6
