REMARK  Name = ZINC66099623
REMARK                            x       y       z     vdW  Elec       q    Type
REMARK                         _______ _______ _______ _____ _____    ______ ____
ROOT
ATOM      1  C   LIG    1        0.846  -0.509   1.172  0.00  0.00    -0.002 C 
ATOM      2  C   LIG    1        1.036  -2.043   1.069  0.00  0.00    +0.004 C 
ATOM      3  C   LIG    1        2.568  -2.293   1.032  0.00  0.00    +0.005 C 
ATOM      4  C   LIG    1        3.136  -1.044   1.715  0.00  0.00    +0.001 C 
ATOM      5  C   LIG    1        4.583  -0.716   1.397  0.00  0.00    +0.025 C 
ATOM      6  C   LIG    1        5.505  -1.822   1.913  0.00  0.00    +0.118 C 
ATOM      7  C   LIG    1        6.960  -1.445   1.630  0.00  0.00    +0.035 C 
ATOM      8  C   LIG    1        7.296  -0.132   2.340  0.00  0.00    +0.000 C 
ATOM      9  C   LIG    1        6.358   1.002   1.803  0.00  0.00    -0.026 C 
ATOM     10  C   LIG    1        6.531   1.177   0.292  0.00  0.00    +0.012 C 
ATOM     11  C   LIG    1        6.694   2.314   2.516  0.00  0.00    +0.010 C 
ATOM     12  C   LIG    1        6.508   2.134   4.024  0.00  0.00    +0.032 C 
ATOM     13  C   LIG    1        7.441   1.029   4.525  0.00  0.00    +0.115 C 
ATOM     14  C   LIG    1        7.093  -0.301   3.847  0.00  0.00    +0.035 C 
ATOM     15  C   LIG    1        4.912   0.612   2.110  0.00  0.00    +0.001 C 
ATOM     16  C   LIG    1        3.969   1.737   1.698  0.00  0.00    +0.005 C 
ATOM     17  C   LIG    1        2.498   1.341   1.908  0.00  0.00    +0.007 C 
ATOM     18  C   LIG    1        2.252   0.079   1.105  0.00  0.00    -0.026 C 
ATOM     19  C   LIG    1        2.646   0.311  -0.355  0.00  0.00    +0.012 C 
ENDROOT
BRANCH   1  21
ATOM     20  C   LIG    1       -0.221   1.507   0.153  0.00  0.00    +0.008 C 
ATOM     21  C   LIG    1        0.002   0.001   0.003  0.00  0.00    -0.010 C 
BRANCH  21  22
ATOM     22  C   LIG    1       -1.350  -0.717  -0.002  0.00  0.00    +0.013 C 
BRANCH  22  23
ATOM     23  C   LIG    1       -2.145  -0.299  -1.241  0.00  0.00    +0.096 C 
BRANCH  23  24
ATOM     24  C   LIG    1       -3.476  -1.006  -1.245  0.00  0.00    +0.215 C 
ATOM     25  N   LIG    1       -4.350  -0.791  -2.248  0.00  0.00    -0.305 N 
ATOM     26  C   LIG    1       -4.023   0.125  -3.353  0.00  0.00    +0.089 C 
ATOM     27  C   LIG    1       -4.290  -0.597  -4.677  0.00  0.00    -0.059 C 
ATOM     28  N   LIG    1       -5.670  -1.097  -4.692  0.00  0.00    +0.384 N 
ATOM     29  H   LIG    1       -6.306  -0.331  -4.526  0.00  0.00    -0.081 HD
ATOM     30  C   LIG    1       -5.846  -2.112  -3.646  0.00  0.00    -0.059 C 
ATOM     31  C   LIG    1       -5.655  -1.469  -2.273  0.00  0.00    +0.089 C 
ATOM     32  O   LIG    1       -3.760  -1.768  -0.346  0.00  0.00    -0.276 OA
BRANCH  28  33
ATOM     33  C   LIG    1       -5.960  -1.692  -6.004  0.00  0.00    -0.043 C 
BRANCH  33  34
ATOM     34  C   LIG    1       -7.411  -2.094  -6.064  0.00  0.00    -0.064 A 
ATOM     35  C   LIG    1       -7.795  -3.358  -5.657  0.00  0.00    +0.002 A 
ATOM     36  C   LIG    1       -9.126  -3.727  -5.712  0.00  0.00    +0.000 A 
ATOM     37  C   LIG    1      -10.073  -2.831  -6.173  0.00  0.00    +0.000 A 
ATOM     38  C   LIG    1       -9.689  -1.567  -6.579  0.00  0.00    +0.000 A 
ATOM     39  C   LIG    1       -8.358  -1.197  -6.520  0.00  0.00    +0.002 A 
ENDBRANCH  33  34
ENDBRANCH  28  33
ENDBRANCH  23  24
ENDBRANCH  22  23
ENDBRANCH  21  22
ENDBRANCH   1  21
BRANCH   6  40
ATOM     40  O   LIG    1        5.193  -3.049   1.252  0.00  0.00    -0.391 OA
ATOM     41  H   LIG    1        5.740  -3.796   1.530  0.00  0.00    +0.210 HD
ENDBRANCH   6  40
BRANCH  13  42
ATOM     42  O   LIG    1        7.266   0.860   5.933  0.00  0.00    -0.392 OA
ATOM     43  H   LIG    1        7.459   1.653   6.451  0.00  0.00    +0.210 HD
ENDBRANCH  13  42
TORSDOF 8
