REMARK  Name = ZINC37381542
REMARK                            x       y       z     vdW  Elec       q    Type
REMARK                         _______ _______ _______ _____ _____    ______ ____
ROOT
ATOM      1  C   LIG    1       -0.016   1.357   0.009  0.00  0.00    +0.001 A 
ATOM      2  C   LIG    1        1.169   2.091   0.002  0.00  0.00    +0.001 A 
ATOM      3  C   LIG    1        2.378   1.468  -0.013  0.00  0.00    +0.009 A 
ATOM      4  C   LIG    1        2.438   0.064  -0.021  0.00  0.00    -0.015 A 
ATOM      5  C   LIG    1        1.233  -0.683  -0.013  0.00  0.00    -0.018 A 
ATOM      6  C   LIG    1        1.292  -2.087  -0.021  0.00  0.00    +0.008 A 
ATOM      7  C   LIG    1        2.502  -2.709  -0.036  0.00  0.00    +0.001 A 
ATOM      8  C   LIG    1        3.687  -1.976  -0.043  0.00  0.00    +0.004 A 
ATOM      9  C   LIG    1        3.668  -0.615  -0.037  0.00  0.00    -0.038 A 
ATOM     10  C   LIG    1        0.002  -0.004   0.002  0.00  0.00    +0.008 A 
ENDROOT
BRANCH   9  11
ATOM     11  C   LIG    1        4.960   0.161  -0.046  0.00  0.00    +0.004 C 
ATOM     12  C   LIG    1        6.258  -0.627   0.144  0.00  0.00    -0.009 C 
ATOM     13  C   LIG    1        5.904  -0.054  -1.231  0.00  0.00    -0.067 C 
BRANCH  13  14
ATOM     14  N   LIG    1        6.676   1.104  -1.701  0.00  0.00    +0.380 N 
ATOM     15  H   LIG    1        6.043   1.834  -1.994  0.00  0.00    -0.090 HD
ATOM     16  H   LIG    1        7.254   0.829  -2.481  0.00  0.00    -0.090 HD
ATOM     17  H   LIG    1        7.261   1.446  -0.953  0.00  0.00    -0.090 HD
ENDBRANCH  13  14
ENDBRANCH   9  11
TORSDOF 2
