REMARK  Name = ZINC29050945
REMARK                            x       y       z     vdW  Elec       q    Type
REMARK                         _______ _______ _______ _____ _____    ______ ____
ROOT
ATOM      1  C   LIG    1        0.559  -4.032  -3.715  0.00  0.00    +0.032 A 
ATOM      2  C   LIG    1        0.859  -5.127  -4.434  0.00  0.00    +0.085 A 
ATOM      3  N   LIG    1        0.350  -6.241  -3.818  0.00  0.00    -0.346 N 
ATOM      4  C   LIG    1       -0.301  -5.885  -2.668  0.00  0.00    +0.143 A 
ATOM      5  N   LIG    1       -0.955  -6.558  -1.723  0.00  0.00    -0.218 NA
ATOM      6  C   LIG    1       -1.494  -5.928  -0.702  0.00  0.00    +0.225 A 
ATOM      7  N   LIG    1       -1.419  -4.618  -0.549  0.00  0.00    -0.220 NA
ATOM      8  C   LIG    1       -0.792  -3.859  -1.444  0.00  0.00    +0.134 A 
ATOM      9  H   LIG    1        0.499  -7.234  -4.267  0.00  0.00    +0.167 HD
ATOM     10  C   LIG    1       -0.200  -4.486  -2.551  0.00  0.00    +0.059 A 
ENDROOT
BRANCH   8  11
ATOM     11  N   LIG    1       -0.719  -2.487  -1.283  0.00  0.00    -0.315 N 
ATOM     12  C   LIG    1       -1.408  -2.064  -0.057  0.00  0.00    +0.105 C 
ATOM     13  C   LIG    1       -1.434  -0.535   0.013  0.00  0.00    +0.003 C 
ATOM     14  C   LIG    1        0.002  -0.004   0.002  0.00  0.00    -0.072 C 
ATOM     15  C   LIG    1        0.712  -0.499  -1.261  0.00  0.00    +0.003 C 
ATOM     16  C   LIG    1        0.676  -2.029  -1.294  0.00  0.00    +0.105 C 
BRANCH  14  17
ATOM     17  N   LIG    1       -0.018   1.465   0.010  0.00  0.00    +0.380 N 
ATOM     18  H   LIG    1       -0.550   1.829  -0.881  0.00  0.00    -0.090 HD
ATOM     19  H   LIG    1       -0.533   1.819   0.915  0.00  0.00    -0.090 HD
ATOM     20  H   LIG    1        1.014   1.845   0.002  0.00  0.00    -0.090 HD
ENDBRANCH  14  17
ENDBRANCH   8  11
TORSDOF 2
