REMARK  Name = ZINC28562954
REMARK                            x       y       z     vdW  Elec       q    Type
REMARK                         _______ _______ _______ _____ _____    ______ ____
ROOT
ATOM      1  C   LIG    1       -0.832   2.389  -0.437  0.00  0.00    +0.061 A 
ATOM      2  C   LIG    1       -0.756   3.768  -0.226  0.00  0.00    +0.016 A 
ATOM      3  C   LIG    1        0.489   4.375  -0.275  0.00  0.00    +0.020 A 
ATOM      4  C   LIG    1        1.610   3.606  -0.523  0.00  0.00    +0.113 A 
ATOM      5  N   LIG    1        1.517   2.304  -0.715  0.00  0.00    -0.239 NA
ATOM      6  C   LIG    1        0.353   1.676  -0.679  0.00  0.00    +0.134 A 
ENDROOT
BRANCH   1  11
ATOM      7  C   LIG    1       -3.625   0.117  -0.390  0.00  0.00    +0.216 A 
ATOM      8  N   LIG    1       -4.294   1.244  -0.321  0.00  0.00    -0.246 N 
ATOM      9  H   LIG    1       -5.368   1.477  -0.267  0.00  0.00    +0.192 HD
ATOM     10  N   LIG    1       -3.350   2.283  -0.324  0.00  0.00    -0.151 NA
ATOM     11  C   LIG    1       -2.135   1.694  -0.402  0.00  0.00    +0.186 A 
ATOM     12  N   LIG    1       -2.319   0.388  -0.441  0.00  0.00    -0.193 NA
BRANCH   7  13
ATOM     13  N   LIG    1       -4.188  -1.161  -0.406  0.00  0.00    -0.284 N 
ATOM     14  H   LIG    1       -3.539  -2.048  -0.371  0.00  0.00    +0.155 HD
BRANCH  13  19
ATOM     15  C   LIG    1       -7.727  -0.511  -1.171  0.00  0.00    +0.122 A 
ATOM     16  C   LIG    1       -8.327  -1.617  -0.584  0.00  0.00    +0.046 A 
ATOM     17  C   LIG    1       -7.554  -2.565   0.059  0.00  0.00    +0.005 A 
ATOM     18  C   LIG    1       -6.181  -2.419   0.114  0.00  0.00    +0.023 A 
ATOM     19  C   LIG    1       -5.576  -1.312  -0.467  0.00  0.00    +0.037 A 
ATOM     20  C   LIG    1       -6.351  -0.358  -1.113  0.00  0.00    +0.069 A 
BRANCH  15  22
ATOM     21  C   LIG    1       -9.900   0.197  -1.824  0.00  0.00    +0.277 C 
ATOM     22  O   LIG    1       -8.489   0.420  -1.803  0.00  0.00    -0.495 OA
ENDBRANCH  15  22
ENDBRANCH  13  19
ENDBRANCH   7  13
ENDBRANCH   1  11
BRANCH   6  23
ATOM     23  N   LIG    1        0.302   0.305  -0.886  0.00  0.00    -0.299 N 
ATOM     24  H   LIG    1       -0.651  -0.233  -0.774  0.00  0.00    +0.154 HD
BRANCH  23  25
ATOM     25  C   LIG    1        1.461  -0.392  -1.237  0.00  0.00    +0.039 A 
ATOM     26  C   LIG    1        2.430   0.221  -2.020  0.00  0.00    +0.069 A 
ATOM     27  C   LIG    1        3.583  -0.470  -2.362  0.00  0.00    +0.125 A 
ATOM     28  C   LIG    1        3.763  -1.776  -1.933  0.00  0.00    +0.091 A 
ATOM     29  C   LIG    1        2.793  -2.391  -1.155  0.00  0.00    +0.125 A 
ATOM     30  C   LIG    1        1.642  -1.700  -0.807  0.00  0.00    +0.069 A 
BRANCH  27  31
ATOM     31  O   LIG    1        4.534   0.132  -3.124  0.00  0.00    -0.495 OA
ATOM     32  C   LIG    1        5.693  -0.640  -3.444  0.00  0.00    +0.277 C 
ENDBRANCH  27  31
BRANCH  29  33
ATOM     33  O   LIG    1        2.970  -3.671  -0.734  0.00  0.00    -0.495 OA
ATOM     34  C   LIG    1        4.179  -4.322  -1.130  0.00  0.00    +0.277 C 
ENDBRANCH  29  33
ENDBRANCH  23  25
ENDBRANCH   6  23
TORSDOF 8
