REMARK  Name = ZINC33961501
REMARK                            x       y       z     vdW  Elec       q    Type
REMARK                         _______ _______ _______ _____ _____    ______ ____
ROOT
ATOM      1  C   LIG    1        0.817   1.530   0.241  0.00  0.00    +0.007 C 
ATOM      2  C   LIG    1        0.582   0.021   0.147  0.00  0.00    -0.014 C 
ATOM      3  C   LIG    1       -0.927  -0.291  -0.004  0.00  0.00    +0.004 C 
ATOM      4  C   LIG    1       -1.069  -1.735   0.519  0.00  0.00    +0.006 C 
ATOM      5  C   LIG    1        0.120  -1.979   1.465  0.00  0.00    -0.035 C 
ATOM      6  C   LIG    1        0.947  -0.675   1.482  0.00  0.00    +0.009 C 
ENDROOT
BRANCH   5   7
ATOM      7  C   LIG    1        0.978  -3.132   0.942  0.00  0.00    -0.079 C 
BRANCH   7   8
ATOM      8  N   LIG    1        0.202  -4.379   0.986  0.00  0.00    +0.378 N 
ATOM      9  H   LIG    1       -0.667  -4.252   0.488  0.00  0.00    -0.090 HD
ATOM     10  H   LIG    1        0.007  -4.620   1.946  0.00  0.00    -0.090 HD
ATOM     11  H   LIG    1        0.732  -5.120   0.553  0.00  0.00    -0.090 HD
ENDBRANCH   7   8
ENDBRANCH   5   7
BRANCH   5  12
ATOM     12  C   LIG    1       -0.388  -2.299   2.873  0.00  0.00    +0.125 C 
BRANCH  12  13
ATOM     13  C   LIG    1        0.784  -2.440   3.809  0.00  0.00    +0.305 C 
ATOM     14  O   LIG    1        1.914  -2.211   3.411  0.00  0.00    -0.251 OA
BRANCH  13  15
ATOM     15  O   LIG    1        0.603  -2.783   4.965  0.00  0.00    -0.481 OA
ATOM     16  H   LIG    1       -0.265  -2.959   5.271  0.00  0.00    +0.295 HD
ENDBRANCH  13  15
ENDBRANCH  12  13
ENDBRANCH   5  12
TORSDOF 5
