REMARK  Name = ZINC40409288
REMARK                            x       y       z     vdW  Elec       q    Type
REMARK                         _______ _______ _______ _____ _____    ______ ____
ROOT
ATOM      1  C   LIG    1        7.079  -2.588   2.966  0.00  0.00    +0.231 C 
ATOM      2  N   LIG    1        7.679  -2.923   4.126  0.00  0.00    -0.303 N 
ATOM      3  H   LIG    1        7.265  -2.691   4.971  0.00  0.00    +0.150 HD
ATOM      4  O   LIG    1        7.597  -2.879   1.909  0.00  0.00    -0.274 OA
ENDROOT
BRANCH   1   5
ATOM      5  C   LIG    1        5.764  -1.853   2.984  0.00  0.00    +0.200 C 
BRANCH   5   7
ATOM      6  C   LIG    1        4.164  -0.959   1.377  0.00  0.00    +0.218 C 
ATOM      7  N   LIG    1        5.323  -1.607   1.608  0.00  0.00    -0.306 N 
ATOM      8  H   LIG    1        5.866  -1.911   0.864  0.00  0.00    +0.149 HD
ATOM      9  O   LIG    1        3.486  -0.579   2.308  0.00  0.00    -0.275 OA
BRANCH   6  10
ATOM     10  C   LIG    1        3.711  -0.707  -0.038  0.00  0.00    +0.130 C 
BRANCH  10  14
ATOM     11  C   LIG    1       -0.017   1.378   0.010  0.00  0.00    +0.000 A 
ATOM     12  C   LIG    1        1.171   2.086   0.002  0.00  0.00    +0.000 A 
ATOM     13  C   LIG    1        2.377   1.411  -0.013  0.00  0.00    +0.004 A 
ATOM     14  C   LIG    1        2.396   0.029  -0.020  0.00  0.00    -0.039 A 
ATOM     15  C   LIG    1        1.208  -0.679  -0.012  0.00  0.00    +0.004 A 
ATOM     16  C   LIG    1        0.002  -0.004   0.002  0.00  0.00    +0.000 A 
ENDBRANCH  10  14
ENDBRANCH   6  10
ENDBRANCH   5   7
ENDBRANCH   1   5
BRANCH   2  17
ATOM     17  C   LIG    1        8.958  -3.638   4.109  0.00  0.00    +0.134 C 
BRANCH  17  18
ATOM     18  C   LIG    1        9.703  -3.366   5.390  0.00  0.00    -0.023 A 
ATOM     19  C   LIG    1        9.020  -3.324   6.591  0.00  0.00    +0.007 A 
ATOM     20  C   LIG    1        9.702  -3.074   7.766  0.00  0.00    +0.020 A 
ATOM     21  C   LIG    1       11.070  -2.866   7.741  0.00  0.00    +0.041 A 
ATOM     22 CL   LIG    1       11.928  -2.552   9.217  0.00  0.00    -0.084 Cl
ATOM     23  C   LIG    1       11.753  -2.909   6.539  0.00  0.00    +0.020 A 
ATOM     24  C   LIG    1       11.070  -3.164   5.365  0.00  0.00    +0.007 A 
ENDBRANCH  17  18
BRANCH  17  25
ATOM     25  C   LIG    1        8.704  -5.118   3.980  0.00  0.00    -0.023 A 
ATOM     26  C   LIG    1        7.656  -5.702   4.667  0.00  0.00    +0.006 A 
ATOM     27  C   LIG    1        7.423  -7.059   4.549  0.00  0.00    +0.000 A 
ATOM     28  C   LIG    1        8.238  -7.833   3.744  0.00  0.00    +0.000 A 
ATOM     29  C   LIG    1        9.286  -7.249   3.056  0.00  0.00    +0.000 A 
ATOM     30  C   LIG    1        9.516  -5.891   3.171  0.00  0.00    +0.006 A 
ENDBRANCH  17  25
ENDBRANCH   2  17
TORSDOF 7
