REMARK  Name = ZINC14974449
REMARK                            x       y       z     vdW  Elec       q    Type
REMARK                         _______ _______ _______ _____ _____    ______ ____
ROOT
ATOM      1  C   LIG    1        3.208  -1.837   0.307  0.00  0.00    +0.026 A 
ATOM      2  C   LIG    1        1.844  -1.702   0.163  0.00  0.00    +0.051 A 
ATOM      3  C   LIG    1        1.277  -0.437   0.070  0.00  0.00    +0.168 A 
ATOM      4  C   LIG    1        2.099   0.698   0.124  0.00  0.00    +0.051 A 
ATOM      5  C   LIG    1        1.208   1.864   0.001  0.00  0.00    +0.125 A 
ATOM      6  N   LIG    1       -0.011   1.408  -0.113  0.00  0.00    -0.077 NA
ATOM      7  C   LIG    1        3.478   0.554   0.270  0.00  0.00    +0.036 A 
ATOM      8  O   LIG    1        0.006  -0.005  -0.073  0.00  0.00    -0.354 OA
ATOM      9  C   LIG    1        4.028  -0.713   0.362  0.00  0.00    +0.028 A 
ENDROOT
BRANCH   5  10
ATOM     10  C   LIG    1        1.617   3.287   0.003  0.00  0.00    +0.047 A 
ATOM     11  C   LIG    1        2.692   3.708  -0.780  0.00  0.00    +0.037 A 
ATOM     12  C   LIG    1        3.070   5.033  -0.776  0.00  0.00    +0.083 A 
ATOM     13 CL   LIG    1        4.407   5.555  -1.753  0.00  0.00    -0.080 Cl
ATOM     14  C   LIG    1        2.383   5.954   0.008  0.00  0.00    +0.139 A 
ATOM     15  C   LIG    1        1.314   5.544   0.790  0.00  0.00    +0.093 A 
ATOM     16  C   LIG    1        0.923   4.215   0.788  0.00  0.00    +0.130 A 
BRANCH  14  17
ATOM     17  O   LIG    1        2.761   7.259   0.008  0.00  0.00    -0.505 OA
ATOM     18  H   LIG    1        2.219   7.988   0.628  0.00  0.00    +0.292 HD
ENDBRANCH  14  17
BRANCH  16  19
ATOM     19  O   LIG    1       -0.127   3.813   1.549  0.00  0.00    -0.506 OA
ATOM     20  H   LIG    1       -0.671   4.544   2.165  0.00  0.00    +0.292 HD
ENDBRANCH  16  19
ENDBRANCH   5  10
BRANCH   9  21
ATOM     21  N   LIG    1        5.411  -0.864   0.509  0.00  0.00    -0.343 N 
ATOM     22  H   LIG    1        6.060   0.023   0.552  0.00  0.00    +0.146 HD
BRANCH  21  23
ATOM     23  C   LIG    1        5.995  -2.204   0.606  0.00  0.00    +0.117 C 
BRANCH  23  24
ATOM     24  C   LIG    1        7.513  -2.089   0.759  0.00  0.00    +0.103 C 
BRANCH  24  25
ATOM     25  N   LIG    1        8.098  -3.433   0.856  0.00  0.00    -0.297 NA
ATOM     26  C   LIG    1        7.678  -4.103   2.096  0.00  0.00    +0.112 C 
ATOM     27  C   LIG    1        8.260  -5.518   2.128  0.00  0.00    +0.175 C 
ATOM     28  O   LIG    1        9.684  -5.445   2.008  0.00  0.00    -0.377 OA
ATOM     29  C   LIG    1       10.129  -4.799   0.812  0.00  0.00    +0.175 C 
ATOM     30  C   LIG    1        9.565  -3.377   0.767  0.00  0.00    +0.112 C 
ENDBRANCH  24  25
ENDBRANCH  23  24
ENDBRANCH  21  23
ENDBRANCH   9  21
TORSDOF 7
