REMARK  Name = ZINC53296444
REMARK                            x       y       z     vdW  Elec       q    Type
REMARK                         _______ _______ _______ _____ _____    ______ ____
ROOT
ATOM      1  C   LIG    1       -1.410  -0.219   2.990  0.00  0.00    +0.254 C 
ENDROOT
BRANCH   1   2
ATOM      2  C   LIG    1        0.030  -0.353   2.491  0.00  0.00    +0.166 C 
BRANCH   2   8
ATOM      3  C   LIG    1       -0.018   1.503   0.010  0.00  0.00    +0.086 C 
ATOM      4  C   LIG    1        0.002  -0.004   0.002  0.00  0.00    +0.108 A 
ATOM      5  N   LIG    1        0.008  -0.759  -1.063  0.00  0.00    -0.239 NA
ATOM      6  C   LIG    1        0.028  -2.047  -0.691  0.00  0.00    +0.164 A 
ATOM      7  C   LIG    1        0.035  -2.093   0.655  0.00  0.00    +0.211 A 
ATOM      8  N   LIG    1        0.023  -0.797   1.095  0.00  0.00    -0.306 N 
BRANCH   7   9
ATOM      9  N   LIG    1        0.055  -3.311   1.496  0.00  0.00    +0.025 N 
ATOM     10  O   LIG    1        0.069  -4.403   0.979  0.00  0.00    -0.128 OA
BRANCH   9  11
ATOM     11  O   LIG    1        0.059  -3.213   2.701  0.00  0.00    -0.395 OA
ATOM     12  H   LIG    1        0.048  -2.366   3.103  0.00  0.00    +0.329 HD
ENDBRANCH   9  11
ENDBRANCH   7   9
ENDBRANCH   2   8
ENDBRANCH   1   2
BRANCH   1  13
ATOM     13  O   LIG    1       -1.404   0.214   4.352  0.00  0.00    -0.460 OA
BRANCH  13  14
ATOM     14  C   LIG    1       -2.603   0.383   4.947  0.00  0.00    +0.332 C 
ATOM     15  O   LIG    1       -3.626   0.168   4.324  0.00  0.00    -0.246 OA
BRANCH  14  16
ATOM     16  C   LIG    1       -2.674   0.824   6.338  0.00  0.00    +0.092 C 
ATOM     17  C   LIG    1       -3.874   0.993   6.933  0.00  0.00    +0.015 C 
BRANCH  17  18
ATOM     18  C   LIG    1       -3.944   1.437   8.333  0.00  0.00    -0.025 A 
ATOM     19  C   LIG    1       -2.769   1.691   9.050  0.00  0.00    +0.011 A 
ATOM     20  C   LIG    1       -2.843   2.107  10.361  0.00  0.00    +0.039 A 
ATOM     21  C   LIG    1       -4.077   2.273  10.972  0.00  0.00    +0.123 A 
ATOM     22  F   LIG    1       -4.142   2.681  12.258  0.00  0.00    -0.205 F 
ATOM     23  C   LIG    1       -5.245   2.023  10.267  0.00  0.00    +0.039 A 
ATOM     24  C   LIG    1       -5.186   1.613   8.953  0.00  0.00    +0.011 A 
ENDBRANCH  17  18
ENDBRANCH  14  16
ENDBRANCH  13  14
ENDBRANCH   1  13
TORSDOF 8
