REMARK  Name = ZINC16951624
REMARK                            x       y       z     vdW  Elec       q    Type
REMARK                         _______ _______ _______ _____ _____    ______ ____
ROOT
ATOM      1  C   LIG    1       -1.234   2.161   0.020  0.00  0.00    +0.013 A 
ATOM      2  C   LIG    1       -1.249   3.540   0.033  0.00  0.00    +0.046 A 
ATOM      3  C   LIG    1       -0.056   4.249   0.026  0.00  0.00    +0.117 A 
ATOM      4  C   LIG    1        1.157   3.573   0.010  0.00  0.00    +0.046 A 
ATOM      5  C   LIG    1        1.179   2.194   0.003  0.00  0.00    +0.013 A 
ATOM      6  C   LIG    1       -0.018   1.479   0.010  0.00  0.00    +0.001 A 
ENDROOT
BRANCH   6   7
ATOM      7  C   LIG    1        0.002  -0.004   0.002  0.00  0.00    +0.080 A 
ATOM      8  C   LIG    1       -1.167  -0.710   0.009  0.00  0.00    +0.076 A 
ATOM      9  S   LIG    1       -0.545  -2.386  -0.005  0.00  0.00    -0.060 S 
ATOM     10  C   LIG    1        1.196  -1.981  -0.020  0.00  0.00    +0.156 A 
ATOM     11  N   LIG    1        1.160  -0.661  -0.018  0.00  0.00    -0.225 NA
BRANCH  10  12
ATOM     12  N   LIG    1        2.292  -2.827  -0.035  0.00  0.00    -0.338 N 
ATOM     13  H   LIG    1        2.145  -3.917  -0.039  0.00  0.00    +0.144 HD
ATOM     14  H   LIG    1        3.310  -2.409  -0.042  0.00  0.00    +0.144 HD
ENDBRANCH  10  12
ENDBRANCH   6   7
BRANCH   3  15
ATOM     15  O   LIG    1       -0.074   5.608   0.034  0.00  0.00    -0.507 OA
ATOM     16  H   LIG    1        0.871   6.171   0.028  0.00  0.00    +0.292 HD
ENDBRANCH   3  15
TORSDOF 3
