REMARK  Name = ZINC53174616
REMARK                            x       y       z     vdW  Elec       q    Type
REMARK                         _______ _______ _______ _____ _____    ______ ____
ROOT
ATOM      1  C   LIG    1        0.017   1.519  -0.378  0.00  0.00    +0.052 C 
ATOM      2  C   LIG    1        0.006   0.021  -0.068  0.00  0.00    +0.174 C 
ATOM      3  C   LIG    1        0.751  -0.744  -1.175  0.00  0.00    +0.051 C 
ATOM      4  C   LIG    1        0.807  -2.223  -0.782  0.00  0.00    +0.092 C 
ATOM      5  N   LIG    1        1.631  -2.962  -1.744  0.00  0.00    -0.293 NA
ATOM      6  C   LIG    1        1.556  -4.410  -1.523  0.00  0.00    +0.090 C 
ATOM      7  C   LIG    1        2.105  -5.145  -2.754  0.00  0.00    +0.053 C 
ATOM      8  C   LIG    1        3.430  -4.523  -3.118  0.00  0.00    -0.016 A 
ATOM      9  C   LIG    1        4.472  -5.029  -3.983  0.00  0.00    +0.003 A 
ATOM     10  C   LIG    1        4.597  -6.201  -4.736  0.00  0.00    +0.010 A 
ATOM     11  C   LIG    1        5.755  -6.354  -5.458  0.00  0.00    +0.001 A 
ATOM     12  C   LIG    1        6.760  -5.400  -5.450  0.00  0.00    +0.002 A 
ATOM     13  C   LIG    1        6.662  -4.231  -4.716  0.00  0.00    +0.026 A 
ATOM     14  C   LIG    1        5.498  -4.048  -3.972  0.00  0.00    +0.047 A 
ATOM     15  N   LIG    1        5.084  -3.034  -3.156  0.00  0.00    -0.356 N 
ATOM     16  H   LIG    1        5.590  -2.230  -2.965  0.00  0.00    +0.166 HD
ATOM     17  C   LIG    1        3.846  -3.324  -2.650  0.00  0.00    +0.038 A 
ATOM     18  C   LIG    1        3.020  -2.478  -1.713  0.00  0.00    +0.104 C 
ATOM     19  C   LIG    1        3.042  -1.021  -2.179  0.00  0.00    +0.034 C 
ATOM     20  C   LIG    1        2.161  -0.161  -1.275  0.00  0.00    +0.039 C 
ATOM     21  C   LIG    1        2.766  -0.051   0.094  0.00  0.00    +0.074 C 
ATOM     22  C   LIG    1        2.013  -0.082   1.201  0.00  0.00    +0.198 C 
ATOM     23  O   LIG    1        0.677  -0.220   1.171  0.00  0.00    -0.496 OA
ENDROOT
BRANCH  21  24
ATOM     24  C   LIG    1        4.169   0.087   0.219  0.00  0.00    +0.338 C 
ATOM     25  O   LIG    1        4.689   0.047   1.318  0.00  0.00    -0.245 OA
BRANCH  24  26
ATOM     26  O   LIG    1        4.930   0.264  -0.882  0.00  0.00    -0.465 OA
ATOM     27  C   LIG    1        6.338   0.397  -0.682  0.00  0.00    +0.280 C 
ENDBRANCH  24  26
ENDBRANCH  21  24
TORSDOF 2
