REMARK  Name = ZINC26571692
REMARK                            x       y       z     vdW  Elec       q    Type
REMARK                         _______ _______ _______ _____ _____    ______ ____
ROOT
ATOM      1  C   LIG    1        6.109  -0.411  -0.058  0.00  0.00    +0.019 C 
ATOM      2  C   LIG    1        4.897   0.208  -0.043  0.00  0.00    +0.054 C 
ENDROOT
BRANCH   1   8
ATOM      3  C   LIG    1        8.972  -1.537  -0.089  0.00  0.00    +0.045 C 
ATOM      4  C   LIG    1        8.619  -0.072  -0.079  0.00  0.00    -0.036 A 
ATOM      5  C   LIG    1        9.587   0.899  -0.084  0.00  0.00    +0.011 A 
ATOM      6  C   LIG    1        9.217   2.208  -0.075  0.00  0.00    +0.046 A 
ATOM      7  S   LIG    1        7.485   2.132  -0.066  0.00  0.00    -0.097 S 
ATOM      8  C   LIG    1        7.295   0.358  -0.065  0.00  0.00    +0.015 A 
ENDBRANCH   1   8
BRANCH   2   9
ATOM      9  C   LIG    1        3.714  -0.559  -0.036  0.00  0.00    +0.204 C 
ATOM     10  O   LIG    1        3.777  -1.775  -0.043  0.00  0.00    -0.286 OA
BRANCH   9  11
ATOM     11  C   LIG    1        2.394   0.115  -0.020  0.00  0.00    +0.110 A 
ATOM     12  C   LIG    1        1.228  -0.648  -0.013  0.00  0.00    +0.031 A 
ATOM     13  C   LIG    1        0.002  -0.004   0.002  0.00  0.00    +0.004 A 
ATOM     14  C   LIG    1       -0.017   1.383   0.010  0.00  0.00    +0.020 A 
ATOM     15  C   LIG    1        1.181   2.078   0.002  0.00  0.00    +0.111 A 
ATOM     16  N   LIG    1        2.332   1.441  -0.013  0.00  0.00    -0.252 NA
ENDBRANCH   9  11
ENDBRANCH   2   9
TORSDOF 3
