REMARK  Name = ZINC38190873
REMARK                            x       y       z     vdW  Elec       q    Type
REMARK                         _______ _______ _______ _____ _____    ______ ____
ROOT
ATOM      1  N   LIG    1        1.524  -5.543   7.157  0.00  0.00    -0.287 N 
ATOM      2  H   LIG    1        0.577  -5.751   7.123  0.00  0.00    +0.155 HD
ATOM      3  C   LIG    1        2.160  -5.493   8.344  0.00  0.00    +0.203 C 
ATOM      4  O   LIG    1        3.319  -5.140   8.397  0.00  0.00    -0.277 OA
ENDROOT
BRANCH   1   9
ATOM      5  C   LIG    1        2.295  -4.428   3.739  0.00  0.00    -0.046 A 
ATOM      6  C   LIG    1        3.623  -4.800   3.636  0.00  0.00    +0.004 A 
ATOM      7  C   LIG    1        4.256  -5.417   4.699  0.00  0.00    +0.002 A 
ATOM      8  C   LIG    1        3.562  -5.665   5.868  0.00  0.00    +0.023 A 
ATOM      9  C   LIG    1        2.229  -5.293   5.975  0.00  0.00    +0.034 A 
ATOM     10  C   LIG    1        1.598  -4.668   4.907  0.00  0.00    +0.027 A 
BRANCH   5  11
ATOM     11  C   LIG    1        1.609  -3.755   2.578  0.00  0.00    +0.035 C 
BRANCH  11  12
ATOM     12  C   LIG    1        1.783  -2.239   2.692  0.00  0.00    +0.005 C 
BRANCH  12  13
ATOM     13  C   LIG    1        1.087  -1.556   1.514  0.00  0.00    +0.000 C 
BRANCH  13  14
ATOM     14  C   LIG    1        1.261  -0.040   1.628  0.00  0.00    -0.000 C 
BRANCH  14  16
ATOM     15  C   LIG    1        0.739   2.159   0.563  0.00  0.00    +0.004 C 
ATOM     16  C   LIG    1        0.565   0.643   0.449  0.00  0.00    -0.003 C 
ENDBRANCH  14  16
ENDBRANCH  13  14
ENDBRANCH  12  13
ENDBRANCH  11  12
ENDBRANCH   5  11
ENDBRANCH   1   9
BRANCH   3  17
ATOM     17  C   LIG    1        1.431  -5.878   9.606  0.00  0.00    +0.014 C 
BRANCH  17  18
ATOM     18  N   LIG    1        2.128  -5.307  10.767  0.00  0.00    +0.386 N 
ATOM     19  H   LIG    1        3.071  -5.663  10.802  0.00  0.00    -0.089 HD
ATOM     20  H   LIG    1        1.640  -5.565  11.612  0.00  0.00    -0.089 HD
ATOM     21  H   LIG    1        2.150  -4.302  10.685  0.00  0.00    -0.089 HD
ENDBRANCH  17  18
BRANCH  17  22
ATOM     22  C   LIG    1        1.397  -7.402   9.731  0.00  0.00    +0.005 C 
BRANCH  22  23
ATOM     23  C   LIG    1        0.552  -7.796  10.944  0.00  0.00    +0.126 C 
BRANCH  23  24
ATOM     24  P   LIG    1        0.511  -9.613  11.092  0.00  0.00    +0.328 P 
ATOM     25  O   LIG    1        0.010 -10.227   9.766  0.00  0.00    -0.259 OA
BRANCH  24  26
ATOM     26  O   LIG    1       -0.483 -10.031  12.288  0.00  0.00    -0.324 OA
ATOM     27  H   LIG    1       -0.554 -10.986  12.424  0.00  0.00    +0.220 HD
ENDBRANCH  24  26
BRANCH  24  28
ATOM     28  O   LIG    1        1.932 -10.136  11.398  0.00  0.00    -0.324 OA
ATOM     29  H   LIG    1        2.531  -9.884  10.677  0.00  0.00    +0.220 HD
ENDBRANCH  24  28
ENDBRANCH  23  24
ENDBRANCH  22  23
ENDBRANCH  17  22
ENDBRANCH   3  17
TORSDOF 13
