REMARK  Name = ZINC49089715
REMARK                            x       y       z     vdW  Elec       q    Type
REMARK                         _______ _______ _______ _____ _____    ______ ____
ROOT
ATOM      1  C   LIG    1        1.332  -4.082  -2.300  0.00  0.00    +0.121 C 
ATOM      2  N   LIG    1        0.839  -4.926  -1.435  0.00  0.00    -0.177 NA
ATOM      3  N   LIG    1        1.069  -6.245  -1.825  0.00  0.00    -0.201 N 
ATOM      4  H   LIG    1        0.787  -7.027  -1.326  0.00  0.00    +0.178 HD
ATOM      5  C   LIG    1        1.741  -6.278  -2.993  0.00  0.00    +0.285 C 
ATOM      6  O   LIG    1        2.096  -7.270  -3.605  0.00  0.00    -0.267 OA
ATOM      7  C   LIG    1        1.952  -4.874  -3.384  0.00  0.00    +0.172 C 
ATOM      8  N   LIG    1        2.562  -4.422  -4.462  0.00  0.00    -0.174 NA
ENDROOT
BRANCH   1  13
ATOM      9  C   LIG    1        0.606  -0.607  -1.056  0.00  0.00    +0.121 A 
ATOM     10  C   LIG    1        1.173   0.163  -2.063  0.00  0.00    +0.045 A 
ATOM     11  C   LIG    1        1.789  -0.446  -3.140  0.00  0.00    +0.004 A 
ATOM     12  C   LIG    1        1.843  -1.823  -3.222  0.00  0.00    +0.010 A 
ATOM     13  C   LIG    1        1.276  -2.604  -2.215  0.00  0.00    +0.008 A 
ATOM     14  C   LIG    1        0.660  -1.989  -1.126  0.00  0.00    +0.055 A 
BRANCH   9  16
ATOM     15  C   LIG    1       -0.017   1.425   0.010  0.00  0.00    +0.277 C 
ATOM     16  O   LIG    1        0.002  -0.004   0.002  0.00  0.00    -0.495 OA
ENDBRANCH   9  16
ENDBRANCH   1  13
BRANCH   8  17
ATOM     17  N   LIG    1        3.053  -5.251  -5.320  0.00  0.00    -0.220 N 
ATOM     18  H   LIG    1        2.974  -6.206  -5.171  0.00  0.00    +0.176 HD
BRANCH  17  19
ATOM     19  C   LIG    1        3.697  -4.774  -6.458  0.00  0.00    +0.138 A 
ATOM     20  C   LIG    1        4.220  -5.674  -7.381  0.00  0.00    +0.045 A 
ATOM     21  C   LIG    1        4.857  -5.186  -8.509  0.00  0.00    +0.005 A 
ATOM     22  C   LIG    1        4.950  -3.811  -8.674  0.00  0.00    +0.020 A 
ATOM     23  C   LIG    1        4.408  -2.976  -7.716  0.00  0.00    +0.113 A 
ATOM     24  N   LIG    1        3.802  -3.469  -6.654  0.00  0.00    -0.239 NA
ENDBRANCH  17  19
ENDBRANCH   8  17
TORSDOF 4
