REMARK  Name = ZINC49785128
REMARK                            x       y       z     vdW  Elec       q    Type
REMARK                         _______ _______ _______ _____ _____    ______ ____
ROOT
ATOM      1  C   LIG    1        0.012  -2.019  -1.021  0.00  0.00    +0.149 A 
ATOM      2  C   LIG    1       -0.033  -2.586   0.240  0.00  0.00    +0.093 A 
ATOM      3  C   LIG    1       -0.021  -3.969   0.385  0.00  0.00    +0.128 A 
ATOM      4  C   LIG    1        0.037  -4.795  -0.726  0.00  0.00    +0.092 A 
ATOM      5  C   LIG    1        0.083  -4.246  -1.998  0.00  0.00    +0.146 A 
ATOM      6  O   LIG    1        0.140  -5.036  -3.091  0.00  0.00    -0.454 OA
ATOM      7  C   LIG    1        0.169  -4.537  -4.336  0.00  0.00    +0.139 A 
ATOM      8  C   LIG    1        0.161  -3.202  -4.589  0.00  0.00    +0.098 A 
ATOM      9  C   LIG    1        0.109  -2.287  -3.509  0.00  0.00    +0.197 A 
ATOM     10  O   LIG    1        0.101  -1.082  -3.698  0.00  0.00    -0.287 OA
ATOM     11  C   LIG    1        0.065  -2.848  -2.148  0.00  0.00    +0.106 A 
ENDROOT
BRANCH   7  12
ATOM     12  C   LIG    1        0.223  -5.475  -5.476  0.00  0.00    +0.017 A 
ATOM     13  C   LIG    1        0.271  -4.987  -6.784  0.00  0.00    +0.011 A 
ATOM     14  C   LIG    1        0.322  -5.869  -7.843  0.00  0.00    +0.001 A 
ATOM     15  C   LIG    1        0.324  -7.233  -7.613  0.00  0.00    +0.000 A 
ATOM     16  C   LIG    1        0.276  -7.723  -6.320  0.00  0.00    +0.001 A 
ATOM     17  C   LIG    1        0.232  -6.853  -5.250  0.00  0.00    +0.011 A 
ENDBRANCH   7  12
BRANCH   1  18
ATOM     18  O   LIG    1        0.000  -0.669  -1.165  0.00  0.00    -0.425 OA
BRANCH  18  20
ATOM     19  C   LIG    1       -1.265   1.438  -1.401  0.00  0.00    +0.136 C 
ATOM     20  C   LIG    1       -1.185  -0.066  -1.350  0.00  0.00    +0.309 C 
ATOM     21  O   LIG    1       -2.188  -0.729  -1.475  0.00  0.00    -0.251 OA
ENDBRANCH  18  20
ENDBRANCH   1  18
BRANCH   3  22
ATOM     22  O   LIG    1       -0.065  -4.514   1.627  0.00  0.00    -0.488 OA
BRANCH  22  23
ATOM     23  C   LIG    1       -0.122  -3.609   2.732  0.00  0.00    +0.273 C 
BRANCH  23  24
ATOM     24  C   LIG    1       -0.165  -4.402   4.040  0.00  0.00    +0.308 C 
BRANCH  24  25
ATOM     25  O   LIG    1        1.060  -5.120   4.202  0.00  0.00    -0.351 OA
BRANCH  25  26
ATOM     26  N   LIG    1        1.122  -5.891   5.388  0.00  0.00    +0.171 N 
ATOM     27  O   LIG    1        0.187  -5.899   6.155  0.00  0.00    -0.094 OA
BRANCH  26  28
ATOM     28  O   LIG    1        2.111  -6.542   5.635  0.00  0.00    -0.370 OA
ATOM     29  H   LIG    1        2.835  -6.537   5.041  0.00  0.00    +0.332 HD
ENDBRANCH  26  28
ENDBRANCH  25  26
ENDBRANCH  24  25
ENDBRANCH  23  24
ENDBRANCH  22  23
ENDBRANCH   3  22
TORSDOF 9
