REMARK  Name = ZINC26381396
REMARK                            x       y       z     vdW  Elec       q    Type
REMARK                         _______ _______ _______ _____ _____    ______ ____
ROOT
ATOM      1  S   LIG    1       -0.862   1.671   1.500  0.00  0.00    -0.127 S 
ENDROOT
BRANCH   1   7
ATOM      2  C   LIG    1        1.972  -0.276   3.589  0.00  0.00    +0.004 A 
ATOM      3  C   LIG    1        1.609  -0.024   4.899  0.00  0.00    +0.038 A 
ATOM      4  C   LIG    1        0.491   0.745   5.175  0.00  0.00    +0.124 A 
ATOM      5  F   LIG    1        0.139   0.989   6.457  0.00  0.00    -0.205 F 
ATOM      6  C   LIG    1       -0.265   1.264   4.140  0.00  0.00    +0.053 A 
ATOM      7  C   LIG    1        0.099   1.013   2.823  0.00  0.00    +0.011 A 
ATOM      8  C   LIG    1        1.219   0.236   2.551  0.00  0.00    +0.015 A 
ENDBRANCH   1   7
BRANCH   1   9
ATOM      9  C   LIG    1       -0.013   1.086   0.008  0.00  0.00    +0.059 C 
BRANCH   9  10
ATOM     10  C   LIG    1       -0.753   1.593  -1.232  0.00  0.00    -0.062 C 
ATOM     11  C   LIG    1       -0.122   1.005  -2.513  0.00  0.00    -0.017 C 
ATOM     12  C   LIG    1       -0.187   2.145  -3.550  0.00  0.00    -0.021 C 
ATOM     13  C   LIG    1       -0.851   3.325  -2.809  0.00  0.00    -0.082 C 
ATOM     14  N   LIG    1       -0.584   3.062  -1.371  0.00  0.00    +0.381 N 
ATOM     15  H   LIG    1        0.440   3.342  -1.084  0.00  0.00    -0.085 HD
ATOM     16  H   LIG    1       -1.302   3.578  -0.717  0.00  0.00    -0.085 HD
ENDBRANCH   9  10
ENDBRANCH   1   9
TORSDOF 3
