REMARK  Name = ZINC19363139
REMARK                            x       y       z     vdW  Elec       q    Type
REMARK                         _______ _______ _______ _____ _____    ______ ____
ROOT
ATOM      1  N   LIG    1        2.053  -6.474   3.006  0.00  0.00    -0.297 NA
ATOM      2  C   LIG    1        3.162  -5.559   3.310  0.00  0.00    +0.100 C 
ATOM      3  C   LIG    1        3.542  -5.696   4.786  0.00  0.00    +0.100 C 
ATOM      4  N   LIG    1        3.920  -7.088   5.066  0.00  0.00    -0.298 NA
ATOM      5  C   LIG    1        2.810  -8.003   4.762  0.00  0.00    +0.100 C 
ATOM      6  C   LIG    1        2.430  -7.866   3.285  0.00  0.00    +0.100 C 
ENDROOT
BRANCH   1   7
ATOM      7  C   LIG    1        1.608  -6.318   1.615  0.00  0.00    +0.119 C 
BRANCH   7   8
ATOM      8  C   LIG    1        0.196  -6.886   1.464  0.00  0.00    +0.166 C 
BRANCH   8   9
ATOM      9  O   LIG    1       -0.698  -6.174   2.321  0.00  0.00    -0.387 OA
ATOM     10  H   LIG    1       -0.750  -5.226   2.135  0.00  0.00    +0.210 HD
ENDBRANCH   8   9
BRANCH   8  11
ATOM     11  C   LIG    1       -0.262  -6.736   0.012  0.00  0.00    +0.261 C 
BRANCH  11  12
ATOM     12  O   LIG    1       -1.532  -7.370  -0.156  0.00  0.00    -0.489 OA
BRANCH  12  18
ATOM     13  C   LIG    1       -3.315  -7.922  -1.630  0.00  0.00    -0.002 A 
ATOM     14  C   LIG    1       -3.877  -7.872  -2.891  0.00  0.00    +0.007 A 
ATOM     15  C   LIG    1       -3.211  -7.235  -3.921  0.00  0.00    +0.001 A 
ATOM     16  C   LIG    1       -1.981  -6.646  -3.693  0.00  0.00    +0.004 A 
ATOM     17  C   LIG    1       -1.415  -6.693  -2.434  0.00  0.00    +0.046 A 
ATOM     18  C   LIG    1       -2.084  -7.327  -1.397  0.00  0.00    +0.124 A 
BRANCH  13  19
ATOM     19  C   LIG    1       -4.042  -8.617  -0.508  0.00  0.00    +0.065 C 
BRANCH  19  21
ATOM     20  C   LIG    1       -6.127  -7.784   0.450  0.00  0.00    +0.004 C 
ATOM     21  C   LIG    1       -4.841  -7.607   0.275  0.00  0.00    -0.030 C 
ENDBRANCH  19  21
ENDBRANCH  13  19
ENDBRANCH  12  18
ENDBRANCH  11  12
ENDBRANCH   8  11
ENDBRANCH   7   8
ENDBRANCH   1   7
BRANCH   4  22
ATOM     22  C   LIG    1        4.364  -7.244   6.457  0.00  0.00    +0.106 C 
BRANCH  22  23
ATOM     23  C   LIG    1        4.980  -8.632   6.644  0.00  0.00    +0.144 C 
BRANCH  23  24
ATOM     24  N   LIG    1        5.423  -8.788   8.031  0.00  0.00    -0.274 N 
ATOM     25  C   LIG    1        6.677  -8.420   8.356  0.00  0.00    +0.262 A 
ATOM     26  C   LIG    1        7.158  -8.560   9.739  0.00  0.00    +0.048 A 
ATOM     27  C   LIG    1        8.441  -8.195  10.117  0.00  0.00    +0.014 A 
ATOM     28  C   LIG    1        8.850  -8.347  11.437  0.00  0.00    +0.001 A 
ATOM     29  C   LIG    1        8.014  -8.853  12.391  0.00  0.00    +0.008 A 
ATOM     30  C   LIG    1        6.705  -9.236  12.049  0.00  0.00    -0.016 A 
ATOM     31  C   LIG    1        5.808  -9.762  12.994  0.00  0.00    +0.008 A 
ATOM     32  C   LIG    1        4.546 -10.120  12.613  0.00  0.00    +0.001 A 
ATOM     33  C   LIG    1        4.114  -9.978  11.300  0.00  0.00    +0.014 A 
ATOM     34  C   LIG    1        4.969  -9.463  10.337  0.00  0.00    +0.048 A 
ATOM     35  C   LIG    1        6.279  -9.087  10.713  0.00  0.00    +0.007 A 
ATOM     36  O   LIG    1        7.416  -7.970   7.502  0.00  0.00    -0.267 OA
ATOM     37  C   LIG    1        4.559  -9.287   8.936  0.00  0.00    +0.262 A 
ATOM     38  O   LIG    1        3.436  -9.600   8.591  0.00  0.00    -0.267 OA
ENDBRANCH  23  24
ENDBRANCH  22  23
ENDBRANCH   4  22
TORSDOF 11
