REMARK  Name = ZINC24773728
REMARK                            x       y       z     vdW  Elec       q    Type
REMARK                         _______ _______ _______ _____ _____    ______ ____
ROOT
ATOM      1  C   LIG    1        0.002  -0.004   0.002  0.00  0.00    -0.012 C 
ENDROOT
BRANCH   1   2
ATOM      2  C   LIG    1       -0.019   1.526   0.010  0.00  0.00    +0.035 C 
BRANCH   2   3
ATOM      3  C   LIG    1        1.417   2.055  -0.000  0.00  0.00    +0.196 C 
BRANCH   3   4
ATOM      4  N   LIG    1        1.397   3.520   0.008  0.00  0.00    -0.274 N 
ATOM      5  H   LIG    1        0.538   4.001   0.018  0.00  0.00    +0.258 HD
BRANCH   4   6
ATOM      6  C   LIG    1        2.556   4.210   0.000  0.00  0.00    +0.411 C 
ATOM      7  N   LIG    1        2.537   5.557   0.008  0.00  0.00    +0.094 NA
BRANCH   6   8
ATOM      8  N   LIG    1        3.733   3.552  -0.015  0.00  0.00    -0.287 N 
ATOM      9  H   LIG    1        4.566   4.048  -0.020  0.00  0.00    +0.255 HD
ATOM     10  H   LIG    1        3.746   2.582  -0.020  0.00  0.00    +0.255 HD
ENDBRANCH   6   8
BRANCH   7  11
ATOM     11  N   LIG    1        1.412   6.187   0.022  0.00  0.00    +0.176 N 
ATOM     12  O   LIG    1        0.280   5.513   0.029  0.00  0.00    -0.095 OA
BRANCH  11  13
ATOM     13  O   LIG    1        1.394   7.504   0.029  0.00  0.00    -0.370 OA
ATOM     14  H   LIG    1        2.199   7.983   0.024  0.00  0.00    +0.332 HD
ENDBRANCH  11  13
ENDBRANCH   7  11
ENDBRANCH   4   6
ENDBRANCH   3   4
ENDBRANCH   2   3
ENDBRANCH   1   2
BRANCH   1  15
ATOM     15  C   LIG    1       -1.433  -0.534   0.013  0.00  0.00    -0.061 C 
BRANCH  15  16
ATOM     16  N   LIG    1       -2.083  -0.161   1.276  0.00  0.00    +0.381 N 
ATOM     17  H   LIG    1       -2.095   0.844   1.365  0.00  0.00    -0.090 HD
ATOM     18  H   LIG    1       -1.571  -0.560   2.049  0.00  0.00    -0.090 HD
ATOM     19  H   LIG    1       -3.030  -0.510   1.284  0.00  0.00    -0.090 HD
ENDBRANCH  15  16
BRANCH  15  20
ATOM     20  C   LIG    1       -1.416  -2.058  -0.121  0.00  0.00    +0.064 C 
BRANCH  20  21
ATOM     21  N   LIG    1       -2.784  -2.577   0.009  0.00  0.00    -0.319 NA
ATOM     22  H   LIG    1       -3.201  -2.281   0.879  0.00  0.00    +0.122 HD
BRANCH  21  23
ATOM     23  C   LIG    1       -2.806  -4.040  -0.115  0.00  0.00    +0.061 C 
BRANCH  23  24
ATOM     24  C   LIG    1       -4.244  -4.542   0.026  0.00  0.00    -0.071 C 
BRANCH  24  25
ATOM     25  N   LIG    1       -4.266  -6.006  -0.098  0.00  0.00    +0.379 N 
ATOM     26  H   LIG    1       -5.215  -6.337  -0.005  0.00  0.00    -0.090 HD
ATOM     27  H   LIG    1       -3.695  -6.413   0.628  0.00  0.00    -0.090 HD
ATOM     28  H   LIG    1       -3.904  -6.273  -1.001  0.00  0.00    -0.090 HD
ENDBRANCH  24  25
ENDBRANCH  23  24
ENDBRANCH  21  23
ENDBRANCH  20  21
ENDBRANCH  15  20
ENDBRANCH   1  15
TORSDOF 14
