REMARK  Name = ZINC13805264
REMARK                            x       y       z     vdW  Elec       q    Type
REMARK                         _______ _______ _______ _____ _____    ______ ____
ROOT
ATOM      1  C   LIG    1       -0.070   5.325   0.031  0.00  0.00    +0.099 A 
ATOM      2  C   LIG    1       -1.087   6.022  -0.664  0.00  0.00    +0.097 A 
ATOM      3  C   LIG    1       -1.078   7.440  -0.629  0.00  0.00    +0.006 A 
ATOM      4  C   LIG    1       -0.056   8.089   0.081  0.00  0.00    +0.053 A 
ATOM      5  C   LIG    1        0.897   7.322   0.723  0.00  0.00    +0.118 A 
ATOM      6  C   LIG    1       -2.085   8.149  -1.309  0.00  0.00    +0.011 A 
ATOM      7  C   LIG    1       -3.028   7.430  -1.988  0.00  0.00    +0.020 A 
ATOM      8  C   LIG    1       -2.982   6.037  -1.976  0.00  0.00    +0.111 A 
ATOM      9  N   LIG    1       -2.043   5.381  -1.335  0.00  0.00    -0.253 NA
ATOM     10  N   LIG    1        0.864   5.994   0.681  0.00  0.00    -0.230 NA
ENDROOT
BRANCH   1  13
ATOM     11  C   LIG    1       -1.221   1.748   0.017  0.00  0.00    +0.003 A 
ATOM     12  C   LIG    1       -1.247   3.128   0.031  0.00  0.00    +0.010 A 
ATOM     13  C   LIG    1       -0.050   3.845   0.023  0.00  0.00    +0.005 A 
ATOM     14  C   LIG    1        1.166   3.160   0.008  0.00  0.00    +0.042 A 
ATOM     15  C   LIG    1        1.178   1.781   0.000  0.00  0.00    +0.122 A 
ATOM     16  C   LIG    1       -0.013   1.076   0.008  0.00  0.00    +0.032 A 
BRANCH  15  17
ATOM     17  N   LIG    1        2.467   1.054  -0.016  0.00  0.00    +0.006 N 
ATOM     18  O   LIG    1        2.479  -0.164  -0.023  0.00  0.00    -0.130 OA
BRANCH  17  19
ATOM     19  O   LIG    1        3.516   1.673  -0.023  0.00  0.00    -0.396 OA
ATOM     20  H   LIG    1        3.506   2.610  -0.018  0.00  0.00    +0.329 HD
ENDBRANCH  17  19
ENDBRANCH  15  17
ENDBRANCH   1  13
BRANCH   5  21
ATOM     21  N   LIG    1        1.915   7.955   1.431  0.00  0.00    -0.343 N 
ATOM     22  H   LIG    1        1.950   8.923   1.468  0.00  0.00    +0.144 HD
ATOM     23  H   LIG    1        2.590   7.427   1.886  0.00  0.00    +0.144 HD
ENDBRANCH   5  21
TORSDOF 4
