REMARK  Name = ZINC66080172
REMARK                            x       y       z     vdW  Elec       q    Type
REMARK                         _______ _______ _______ _____ _____    ______ ____
ROOT
ATOM      1  C   LIG    1        1.493  -2.334  -2.470  0.00  0.00    -0.019 C 
ATOM      2  C   LIG    1        0.813  -1.702  -3.687  0.00  0.00    +0.010 C 
ATOM      3  C   LIG    1       -0.621  -2.226  -3.798  0.00  0.00    +0.001 C 
ATOM      4  C   LIG    1       -0.597  -3.747  -3.960  0.00  0.00    +0.000 C 
ATOM      5  C   LIG    1        0.084  -4.379  -2.744  0.00  0.00    +0.001 C 
ATOM      6  C   LIG    1        1.517  -3.855  -2.632  0.00  0.00    +0.010 C 
ENDROOT
BRANCH   1   7
ATOM      7  C   LIG    1        2.905  -1.818  -2.361  0.00  0.00    -0.042 A 
ATOM      8  C   LIG    1        3.971  -2.687  -2.502  0.00  0.00    +0.005 A 
ATOM      9  C   LIG    1        5.266  -2.215  -2.401  0.00  0.00    +0.022 A 
ATOM     10  C   LIG    1        5.497  -0.873  -2.159  0.00  0.00    +0.059 A 
ATOM     11 CL   LIG    1        7.123  -0.280  -2.031  0.00  0.00    -0.082 Cl
ATOM     12  C   LIG    1        4.429  -0.003  -2.017  0.00  0.00    +0.060 A 
ATOM     13 CL   LIG    1        4.716   1.682  -1.712  0.00  0.00    -0.082 Cl
ATOM     14  C   LIG    1        3.133  -0.476  -2.124  0.00  0.00    +0.025 A 
ENDBRANCH   1   7
BRANCH   1  15
ATOM     15  C   LIG    1        0.717  -1.968  -1.204  0.00  0.00    -0.071 C 
BRANCH  15  16
ATOM     16  N   LIG    1        1.386  -2.551  -0.034  0.00  0.00    +0.379 N 
ATOM     17  H   LIG    1        1.355  -3.558  -0.095  0.00  0.00    -0.086 HD
ATOM     18  H   LIG    1        2.347  -2.244  -0.008  0.00  0.00    -0.086 HD
BRANCH  16  20
ATOM     19  C   LIG    1        1.397  -2.722   2.409  0.00  0.00    -0.017 C 
ATOM     20  C   LIG    1        0.700  -2.115   1.190  0.00  0.00    -0.086 C 
ENDBRANCH  16  20
ENDBRANCH  15  16
ENDBRANCH   1  15
TORSDOF 4
