REMARK  Name = ZINC49823271
REMARK                            x       y       z     vdW  Elec       q    Type
REMARK                         _______ _______ _______ _____ _____    ______ ____
ROOT
ATOM      1  C   LIG    1        5.034 -10.883   7.077  0.00  0.00    +0.101 A 
ATOM      2  C   LIG    1        5.054 -12.292   7.071  0.00  0.00    +0.138 A 
ATOM      3  C   LIG    1        5.103 -12.994   8.263  0.00  0.00    +0.045 A 
ATOM      4  C   LIG    1        5.132 -12.321   9.473  0.00  0.00    +0.138 A 
ATOM      5  C   LIG    1        5.112 -10.912   9.501  0.00  0.00    +0.101 A 
ATOM      6  C   LIG    1        5.068 -10.191   8.298  0.00  0.00    +0.145 A 
ENDROOT
BRANCH   3   7
ATOM      7  C   LIG    1        5.124 -14.500   8.244  0.00  0.00    +0.064 C 
ATOM      8  C   LIG    1        3.711 -15.033   8.495  0.00  0.00    +0.062 C 
ATOM      9  C   LIG    1        3.358 -14.789   9.968  0.00  0.00    +0.204 C 
ATOM     10  O   LIG    1        4.238 -15.573  10.776  0.00  0.00    -0.484 OA
ATOM     11  C   LIG    1        5.569 -15.504  10.516  0.00  0.00    +0.129 A 
ATOM     12  C   LIG    1        6.458 -15.953  11.486  0.00  0.00    +0.091 A 
ATOM     13  C   LIG    1        7.820 -15.903  11.259  0.00  0.00    +0.120 A 
ATOM     14  C   LIG    1        8.302 -15.402  10.057  0.00  0.00    +0.046 A 
ATOM     15  C   LIG    1        7.419 -14.955   9.095  0.00  0.00    +0.011 A 
ATOM     16  C   LIG    1        6.053 -15.003   9.320  0.00  0.00    +0.002 A 
BRANCH   9  17
ATOM     17  C   LIG    1        1.931 -15.200  10.223  0.00  0.00    -0.007 A 
ATOM     18  C   LIG    1        1.635 -16.519  10.516  0.00  0.00    +0.011 A 
ATOM     19  C   LIG    1        0.328 -16.899  10.750  0.00  0.00    +0.046 A 
ATOM     20  C   LIG    1       -0.688 -15.956  10.692  0.00  0.00    +0.117 A 
ATOM     21  C   LIG    1       -0.388 -14.633  10.399  0.00  0.00    +0.046 A 
ATOM     22  C   LIG    1        0.921 -14.258  10.171  0.00  0.00    +0.011 A 
BRANCH  20  23
ATOM     23  O   LIG    1       -1.975 -16.327  10.921  0.00  0.00    -0.507 OA
ATOM     24  H   LIG    1       -2.242 -16.268  11.849  0.00  0.00    +0.292 HD
ENDBRANCH  20  23
ENDBRANCH   9  17
BRANCH  13  25
ATOM     25  O   LIG    1        8.686 -16.342  12.210  0.00  0.00    -0.507 OA
ATOM     26  H   LIG    1        8.965 -15.659  12.834  0.00  0.00    +0.292 HD
ENDBRANCH  13  25
ENDBRANCH   3   7
BRANCH   6  27
ATOM     27  O   LIG    1        5.055  -8.838   8.315  0.00  0.00    -0.505 OA
ATOM     28  H   LIG    1        4.168  -8.454   8.350  0.00  0.00    +0.292 HD
ENDBRANCH   6  27
BRANCH   5  29
ATOM     29  C   LIG    1        5.142 -10.204  10.780  0.00  0.00    +0.170 C 
ATOM     30  O   LIG    1        5.184 -10.829  11.819  0.00  0.00    -0.292 OA
BRANCH  29  31
ATOM     31  C   LIG    1        5.120  -8.697  10.808  0.00  0.00    +0.080 C 
BRANCH  31  32
ATOM     32  C   LIG    1        5.159  -8.213  12.258  0.00  0.00    +0.008 C 
BRANCH  32  33
ATOM     33  C   LIG    1        5.137  -6.684  12.287  0.00  0.00    +0.000 C 
BRANCH  33  34
ATOM     34  C   LIG    1        5.176  -6.199  13.738  0.00  0.00    +0.000 C 
BRANCH  34  35
ATOM     35  C   LIG    1        5.154  -4.670  13.765  0.00  0.00    +0.000 C 
BRANCH  35  36
ATOM     36  C   LIG    1        5.192  -4.186  15.216  0.00  0.00    +0.000 C 
BRANCH  36  37
ATOM     37  C   LIG    1        5.170  -2.656  15.245  0.00  0.00    -0.000 C 
BRANCH  37  38
ATOM     38  C   LIG    1        5.209  -2.172  16.695  0.00  0.00    -0.000 C 
BRANCH  38  39
ATOM     39  C   LIG    1        5.187  -0.642  16.724  0.00  0.00    -0.000 C 
BRANCH  39  40
ATOM     40  C   LIG    1        5.226  -0.159  18.174  0.00  0.00    -0.003 C 
ATOM     41  C   LIG    1        5.204   1.371  18.202  0.00  0.00    +0.004 C 
ENDBRANCH  39  40
ENDBRANCH  38  39
ENDBRANCH  37  38
ENDBRANCH  36  37
ENDBRANCH  35  36
ENDBRANCH  34  35
ENDBRANCH  33  34
ENDBRANCH  32  33
ENDBRANCH  31  32
ENDBRANCH  29  31
ENDBRANCH   5  29
BRANCH   4  42
ATOM     42  O   LIG    1        5.180 -13.018  10.632  0.00  0.00    -0.506 OA
ATOM     43  H   LIG    1        5.193 -13.955  10.615  0.00  0.00    +0.292 HD
ENDBRANCH   4  42
BRANCH   2  44
ATOM     44  O   LIG    1        5.026 -12.962   5.894  0.00  0.00    -0.506 OA
ATOM     45  H   LIG    1        5.900 -13.143   5.524  0.00  0.00    +0.292 HD
ENDBRANCH   2  44
BRANCH   1  46
ATOM     46  C   LIG    1        4.983 -10.144   5.817  0.00  0.00    +0.170 C 
ATOM     47  O   LIG    1        4.953 -10.744   4.762  0.00  0.00    -0.292 OA
BRANCH  46  48
ATOM     48  C   LIG    1        4.967  -8.637   5.827  0.00  0.00    +0.080 C 
BRANCH  48  49
ATOM     49  C   LIG    1        4.912  -8.118   4.388  0.00  0.00    +0.008 C 
BRANCH  49  50
ATOM     50  C   LIG    1        4.897  -6.588   4.398  0.00  0.00    +0.000 C 
BRANCH  50  51
ATOM     51  C   LIG    1        4.842  -6.069   2.960  0.00  0.00    +0.000 C 
BRANCH  51  52
ATOM     52  C   LIG    1        4.826  -4.539   2.970  0.00  0.00    +0.000 C 
BRANCH  52  53
ATOM     53  C   LIG    1        4.771  -4.021   1.532  0.00  0.00    +0.000 C 
BRANCH  53  54
ATOM     54  C   LIG    1        4.756  -2.491   1.542  0.00  0.00    -0.000 C 
BRANCH  54  55
ATOM     55  C   LIG    1        4.701  -1.972   0.103  0.00  0.00    -0.000 C 
BRANCH  55  56
ATOM     56  C   LIG    1        4.685  -0.442   0.113  0.00  0.00    -0.000 C 
BRANCH  56  58
ATOM     57  C   LIG    1        4.615   1.607  -1.315  0.00  0.00    +0.004 C 
ATOM     58  C   LIG    1        4.630   0.077  -1.325  0.00  0.00    -0.003 C 
ENDBRANCH  56  58
ENDBRANCH  55  56
ENDBRANCH  54  55
ENDBRANCH  53  54
ENDBRANCH  52  53
ENDBRANCH  51  52
ENDBRANCH  50  51
ENDBRANCH  49  50
ENDBRANCH  48  49
ENDBRANCH  46  48
ENDBRANCH   1  46
TORSDOF 29
