REMARK  Name = ZINC00073715
REMARK                            x       y       z     vdW  Elec       q    Type
REMARK                         _______ _______ _______ _____ _____    ______ ____
ROOT
ATOM      1  N   LIG    1        3.622  -0.651  -0.037  0.00  0.00    -0.269 N 
ATOM      2  H   LIG    1        4.452  -0.156  -0.121  0.00  0.00    +0.156 HD
ATOM      3  C   LIG    1        3.645  -1.995   0.057  0.00  0.00    +0.309 C 
ATOM      4  N   LIG    1        4.823  -2.644   0.143  0.00  0.00    -0.261 N 
ATOM      5  H   LIG    1        5.654  -2.144   0.137  0.00  0.00    +0.157 HD
ATOM      6  O   LIG    1        2.603  -2.622   0.065  0.00  0.00    -0.252 OA
ENDROOT
BRANCH   1  10
ATOM      7  C   LIG    1       -0.015   1.381   0.032  0.00  0.00    +0.000 A 
ATOM      8  C   LIG    1        0.140   0.219   0.765  0.00  0.00    +0.002 A 
ATOM      9  C   LIG    1        1.344  -0.457   0.744  0.00  0.00    +0.023 A 
ATOM     10  C   LIG    1        2.400   0.031  -0.014  0.00  0.00    +0.035 A 
ATOM     11  C   LIG    1        2.241   1.198  -0.750  0.00  0.00    +0.023 A 
ATOM     12  C   LIG    1        1.034   1.870  -0.725  0.00  0.00    +0.002 A 
ENDBRANCH   1  10
BRANCH   4  13
ATOM     13  C   LIG    1        4.847  -4.036   0.241  0.00  0.00    +0.113 A 
ATOM     14  C   LIG    1        5.921  -4.872   0.342  0.00  0.00    +0.167 A 
ATOM     15  N   LIG    1        5.655  -6.156   0.421  0.00  0.00    -0.148 NA
ATOM     16  N   LIG    1        4.425  -6.546   0.399  0.00  0.00    -0.109 NA
ATOM     17  S   LIG    1        3.560  -5.117   0.272  0.00  0.00    +0.052 S 
ENDBRANCH   4  13
TORSDOF 2
