REMARK  Name = ZINC20419503
REMARK                            x       y       z     vdW  Elec       q    Type
REMARK                         _______ _______ _______ _____ _____    ______ ____
ROOT
ATOM      1  C   LIG    1       -0.733   1.918   1.269  0.00  0.00    +0.166 C 
ENDROOT
BRANCH   1   2
ATOM      2  O   LIG    1        0.021   1.544   2.423  0.00  0.00    -0.387 OA
ATOM      3  H   LIG    1       -0.340   1.814   3.427  0.00  0.00    +0.210 HD
ENDBRANCH   1   2
BRANCH   1   4
ATOM      4  C   LIG    1       -0.017   1.425   0.010  0.00  0.00    +0.261 C 
BRANCH   4   5
ATOM      5  O   LIG    1        0.002  -0.004   0.002  0.00  0.00    -0.489 OA
BRANCH   5  11
ATOM      6  C   LIG    1        0.662  -2.007  -1.129  0.00  0.00    +0.059 A 
ATOM      7  C   LIG    1        1.287  -2.615  -2.224  0.00  0.00    +0.015 A 
ATOM      8  C   LIG    1        1.839  -1.837  -3.217  0.00  0.00    +0.001 A 
ATOM      9  C   LIG    1        1.780  -0.454  -3.138  0.00  0.00    +0.004 A 
ATOM     10  C   LIG    1        1.162   0.159  -2.067  0.00  0.00    +0.046 A 
ATOM     11  C   LIG    1        0.604  -0.606  -1.053  0.00  0.00    +0.131 A 
BRANCH   6  13
ATOM     12  C   LIG    1        0.134  -4.332  -0.152  0.00  0.00    +0.092 C 
ATOM     13  C   LIG    1        0.070  -2.829  -0.066  0.00  0.00    +0.164 C 
ATOM     14  O   LIG    1       -0.471  -2.298   0.881  0.00  0.00    -0.292 OA
ENDBRANCH   6  13
ENDBRANCH   5  11
ENDBRANCH   4   5
ENDBRANCH   1   4
BRANCH   1  15
ATOM     15  C   LIG    1       -0.865   3.442   1.217  0.00  0.00    +0.119 C 
BRANCH  15  16
ATOM     16  N   LIG    1       -1.552   3.915   2.425  0.00  0.00    -0.297 NA
ATOM     17  C   LIG    1       -2.945   3.449   2.456  0.00  0.00    +0.103 C 
ATOM     18  C   LIG    1       -3.601   3.895   3.765  0.00  0.00    +0.120 C 
ATOM     19  N   LIG    1       -3.537   5.360   3.867  0.00  0.00    -0.327 N 
ATOM     20  C   LIG    1       -2.144   5.826   3.837  0.00  0.00    +0.120 C 
ATOM     21  C   LIG    1       -1.488   5.380   2.528  0.00  0.00    +0.103 C 
BRANCH  19  22
ATOM     22  C   LIG    1       -4.192   5.811   5.018  0.00  0.00    +0.030 A 
ATOM     23  C   LIG    1       -3.511   6.588   5.945  0.00  0.00    +0.026 A 
ATOM     24  C   LIG    1       -4.161   7.036   7.079  0.00  0.00    +0.040 A 
ATOM     25  C   LIG    1       -5.487   6.702   7.295  0.00  0.00    +0.124 A 
ATOM     26  F   LIG    1       -6.119   7.138   8.407  0.00  0.00    -0.205 F 
ATOM     27  C   LIG    1       -6.166   5.923   6.374  0.00  0.00    +0.040 A 
ATOM     28  C   LIG    1       -5.522   5.477   5.237  0.00  0.00    +0.026 A 
ENDBRANCH  19  22
ENDBRANCH  15  16
ENDBRANCH   1  15
TORSDOF 8
