REMARK  Name = ZINC32254083
REMARK                            x       y       z     vdW  Elec       q    Type
REMARK                         _______ _______ _______ _____ _____    ______ ____
ROOT
ATOM      1  C   LIG    1       -0.013   1.076   0.008  0.00  0.00    +0.009 A 
ATOM      2  C   LIG    1       -1.216   1.751   0.017  0.00  0.00    +0.013 A 
ATOM      3  C   LIG    1       -1.236   3.134   0.030  0.00  0.00    +0.055 A 
ATOM      4  C   LIG    1       -0.052   3.848   0.022  0.00  0.00    +0.013 A 
ATOM      5  C   LIG    1        1.157   3.183   0.008  0.00  0.00    +0.009 A 
ATOM      6  C   LIG    1        1.184   1.790   0.000  0.00  0.00    -0.018 A 
ENDROOT
BRANCH   6   7
ATOM      7  C   LIG    1        2.481   1.070  -0.015  0.00  0.00    -0.015 A 
ATOM      8  C   LIG    1        2.526  -0.327  -0.016  0.00  0.00    +0.028 A 
ATOM      9  C   LIG    1        3.754  -0.957  -0.036  0.00  0.00    +0.111 A 
ATOM     10  N   LIG    1        4.873  -0.258  -0.043  0.00  0.00    -0.263 NA
ATOM     11  C   LIG    1        4.874   1.061  -0.037  0.00  0.00    +0.111 A 
ATOM     12  C   LIG    1        3.691   1.770  -0.023  0.00  0.00    +0.028 A 
ENDBRANCH   6   7
BRANCH   3  13
ATOM     13  C   LIG    1       -2.554   3.865   0.046  0.00  0.00    +0.417 C 
ATOM     14  F   LIG    1       -2.401   5.087   0.710  0.00  0.00    -0.166 F 
ATOM     15  F   LIG    1       -3.510   3.090   0.710  0.00  0.00    -0.166 F 
ATOM     16  F   LIG    1       -2.974   4.098  -1.268  0.00  0.00    -0.166 F 
ENDBRANCH   3  13
TORSDOF 2
