REMARK  Name = ZINC13755751
REMARK                            x       y       z     vdW  Elec       q    Type
REMARK                         _______ _______ _______ _____ _____    ______ ____
ROOT
ATOM      1  C   LIG    1        1.226  -2.187  -0.021  0.00  0.00    +0.036 C 
ENDROOT
BRANCH   1   2
ATOM      2  C   LIG    1        1.208  -0.680  -0.013  0.00  0.00    -0.047 A 
ATOM      3  C   LIG    1        0.002  -0.004   0.002  0.00  0.00    +0.007 A 
ATOM      4  C   LIG    1       -0.017   1.377   0.010  0.00  0.00    +0.046 A 
ATOM      5  C   LIG    1        1.176   2.086   0.002  0.00  0.00    +0.120 A 
ATOM      6  C   LIG    1        2.385   1.405  -0.013  0.00  0.00    +0.046 A 
ATOM      7  C   LIG    1        2.398   0.024  -0.021  0.00  0.00    +0.007 A 
BRANCH   5   8
ATOM      8  O   LIG    1        1.160   3.445   0.009  0.00  0.00    -0.495 OA
ATOM      9  C   LIG    1        2.426   4.108   0.001  0.00  0.00    +0.277 C 
ENDBRANCH   5   8
ENDBRANCH   1   2
BRANCH   1  10
ATOM     10  C   LIG    1        1.217  -2.690  -1.466  0.00  0.00    +0.023 C 
BRANCH  10  11
ATOM     11  C   LIG    1        1.235  -4.220  -1.474  0.00  0.00    +0.104 C 
BRANCH  11  13
ATOM     12  C   LIG    1        1.240  -6.025  -3.111  0.00  0.00    +0.213 C 
ATOM     13  N   LIG    1        1.227  -4.701  -2.857  0.00  0.00    -0.315 N 
ATOM     14  H   LIG    1        1.213  -4.067  -3.591  0.00  0.00    +0.149 HD
ATOM     15  O   LIG    1        1.259  -6.817  -2.193  0.00  0.00    -0.276 OA
BRANCH  12  17
ATOM     16  C   LIG    1        1.250  -8.050  -4.542  0.00  0.00    +0.013 C 
ATOM     17  C   LIG    1        1.232  -6.520  -4.534  0.00  0.00    +0.092 C 
ENDBRANCH  12  17
ENDBRANCH  11  13
ENDBRANCH  10  11
ENDBRANCH   1  10
TORSDOF 6
