REMARK  Name = ZINC17029224
REMARK                            x       y       z     vdW  Elec       q    Type
REMARK                         _______ _______ _______ _____ _____    ______ ____
ROOT
ATOM      1  N   LIG    1        4.541   0.954  -0.043  0.00  0.00    -0.188 N 
ATOM      2  C   LIG    1        5.192   1.122   1.128  0.00  0.00    +0.263 C 
ATOM      3  C   LIG    1        6.642   1.379   1.077  0.00  0.00    +0.097 C 
ATOM      4  C   LIG    1        7.264   1.431  -0.252  0.00  0.00    +0.218 C 
ATOM      5  N   LIG    1        6.498   1.246  -1.316  0.00  0.00    -0.127 NA
ATOM      6  C   LIG    1        7.390   1.563   2.237  0.00  0.00    +0.028 C 
ATOM      7  O   LIG    1        4.602   1.063   2.191  0.00  0.00    -0.269 OA
ATOM      8  C   LIG    1        5.193   1.013  -1.213  0.00  0.00    +0.340 C 
ATOM      9  O   LIG    1        4.555   0.849  -2.237  0.00  0.00    -0.250 OA
ENDROOT
BRANCH   1  18
ATOM     10  C   LIG    1        0.411   3.854  -0.194  0.00  0.00    +0.001 A 
ATOM     11  C   LIG    1        1.779   4.122  -0.203  0.00  0.00    +0.001 A 
ATOM     12  C   LIG    1        2.691   3.111  -0.152  0.00  0.00    +0.010 A 
ATOM     13  C   LIG    1        2.249   1.780  -0.089  0.00  0.00    +0.004 A 
ATOM     14  C   LIG    1        0.859   1.507  -0.079  0.00  0.00    -0.016 A 
ATOM     15  C   LIG    1        0.416   0.175  -0.015  0.00  0.00    +0.008 A 
ATOM     16  C   LIG    1        1.321  -0.840   0.038  0.00  0.00    +0.002 A 
ATOM     17  C   LIG    1        2.689  -0.584   0.030  0.00  0.00    +0.024 A 
ATOM     18  C   LIG    1        3.164   0.708  -0.034  0.00  0.00    +0.053 A 
ATOM     19  C   LIG    1       -0.052   2.576  -0.134  0.00  0.00    +0.008 A 
ENDBRANCH   1  18
BRANCH   6  20
ATOM     20  C   LIG    1        6.808   1.319   3.495  0.00  0.00    +0.001 A 
ATOM     21  C   LIG    1        6.029   0.231   3.857  0.00  0.00    +0.091 A 
ATOM     22  N   LIG    1        5.657   0.352   5.143  0.00  0.00    -0.360 N 
ATOM     23  C   LIG    1        6.164   1.512   5.694  0.00  0.00    +0.047 A 
ATOM     24  C   LIG    1        6.068   2.081   6.959  0.00  0.00    +0.026 A 
ATOM     25  C   LIG    1        6.709   3.272   7.229  0.00  0.00    +0.002 A 
ATOM     26  C   LIG    1        7.441   3.919   6.245  0.00  0.00    +0.001 A 
ATOM     27  C   LIG    1        7.544   3.372   4.983  0.00  0.00    +0.010 A 
ATOM     28  H   LIG    1        5.106  -0.289   5.619  0.00  0.00    +0.165 HD
ATOM     29  C   LIG    1        6.909   2.167   4.701  0.00  0.00    +0.007 A 
ENDBRANCH   6  20
BRANCH   4  30
ATOM     30  O   LIG    1        8.588   1.661  -0.387  0.00  0.00    -0.493 OA
ATOM     31  H   LIG    1        9.120   1.790   0.373  0.00  0.00    +0.294 HD
ENDBRANCH   4  30
TORSDOF 3
