REMARK  Name = ZINC00056546
REMARK                            x       y       z     vdW  Elec       q    Type
REMARK                         _______ _______ _______ _____ _____    ______ ____
ROOT
ATOM      1  C   LIG    1        0.718  -0.497  -1.257  0.00  0.00    +0.026 C 
ENDROOT
BRANCH   1   2
ATOM      2  C   LIG    1        2.165  -0.079  -1.208  0.00  0.00    -0.043 A 
ATOM      3  C   LIG    1        2.975  -0.515  -0.175  0.00  0.00    +0.007 A 
ATOM      4  C   LIG    1        4.302  -0.133  -0.128  0.00  0.00    +0.045 A 
ATOM      5  C   LIG    1        4.822   0.688  -1.118  0.00  0.00    +0.117 A 
ATOM      6  C   LIG    1        4.007   1.124  -2.154  0.00  0.00    +0.045 A 
ATOM      7  C   LIG    1        2.682   0.735  -2.199  0.00  0.00    +0.007 A 
BRANCH   5   8
ATOM      8  O   LIG    1        6.126   1.066  -1.074  0.00  0.00    -0.507 OA
ATOM      9  H   LIG    1        6.726   0.464  -1.534  0.00  0.00    +0.292 HD
ENDBRANCH   5   8
ENDBRANCH   1   2
BRANCH   1  11
ATOM     10  C   LIG    1       -0.019   1.526   0.010  0.00  0.00    +0.004 C 
ATOM     11  C   LIG    1        0.002  -0.004   0.002  0.00  0.00    +0.005 C 
ENDBRANCH   1  11
BRANCH   1  12
ATOM     12  C   LIG    1        0.630  -2.023  -1.329  0.00  0.00    +0.026 C 
BRANCH  12  13
ATOM     13  C   LIG    1        1.336  -2.509  -2.568  0.00  0.00    -0.043 A 
ATOM     14  C   LIG    1        0.912  -2.086  -3.814  0.00  0.00    +0.007 A 
ATOM     15  C   LIG    1        1.556  -2.530  -4.953  0.00  0.00    +0.045 A 
ATOM     16  C   LIG    1        2.630  -3.402  -4.845  0.00  0.00    +0.117 A 
ATOM     17  C   LIG    1        3.054  -3.825  -3.593  0.00  0.00    +0.045 A 
ATOM     18  C   LIG    1        2.409  -3.373  -2.458  0.00  0.00    +0.007 A 
BRANCH  16  19
ATOM     19  O   LIG    1        3.266  -3.841  -5.963  0.00  0.00    -0.507 OA
ATOM     20  H   LIG    1        4.003  -3.280  -6.242  0.00  0.00    +0.292 HD
ENDBRANCH  16  19
ENDBRANCH  12  13
BRANCH  12  21
ATOM     21  C   LIG    1       -0.839  -2.448  -1.378  0.00  0.00    +0.005 C 
ATOM     22  C   LIG    1       -0.931  -3.974  -1.324  0.00  0.00    +0.004 C 
ENDBRANCH  12  21
ENDBRANCH   1  12
TORSDOF 7
