REMARK  Name = ZINC13816329
REMARK                            x       y       z     vdW  Elec       q    Type
REMARK                         _______ _______ _______ _____ _____    ______ ____
ROOT
ATOM      1  C   LIG    1       -4.855  -6.119   7.346  0.00  0.00    +0.053 C 
ENDROOT
BRANCH   1   2
ATOM      2  C   LIG    1       -3.838  -5.927   8.443  0.00  0.00    -0.027 C 
ATOM      3  C   LIG    1       -3.576  -6.907   9.272  0.00  0.00    -0.031 C 
BRANCH   3   4
ATOM      4  C   LIG    1       -4.163  -8.274   9.033  0.00  0.00    +0.027 C 
BRANCH   4   5
ATOM      5  C   LIG    1       -3.047  -9.319   9.052  0.00  0.00    +0.015 C 
BRANCH   5   6
ATOM      6  C   LIG    1       -3.643 -10.707   8.810  0.00  0.00    +0.121 C 
BRANCH   6   7
ATOM      7  C   LIG    1       -2.543 -11.737   8.828  0.00  0.00    +0.307 C 
ATOM      8  O   LIG    1       -1.399 -11.396   9.016  0.00  0.00    -0.251 OA
BRANCH   7   9
ATOM      9  O   LIG    1       -2.834 -13.033   8.636  0.00  0.00    -0.467 OA
BRANCH   9  10
ATOM     10  C   LIG    1       -1.742 -13.955   8.666  0.00  0.00    +0.213 C 
BRANCH  10  11
ATOM     11  C   LIG    1       -2.265 -15.373   8.430  0.00  0.00    -0.045 C 
BRANCH  11  12
ATOM     12  N   LIG    1       -2.818 -15.471   7.073  0.00  0.00    +0.380 N 
ATOM     13  H   LIG    1       -2.097 -15.262   6.399  0.00  0.00    -0.090 HD
ATOM     14  H   LIG    1       -3.575 -14.812   6.970  0.00  0.00    -0.090 HD
ATOM     15  H   LIG    1       -3.163 -16.406   6.917  0.00  0.00    -0.090 HD
ENDBRANCH  11  12
ENDBRANCH  10  11
ENDBRANCH   9  10
ENDBRANCH   7   9
ENDBRANCH   6   7
ENDBRANCH   5   6
ENDBRANCH   4   5
ENDBRANCH   3   4
ENDBRANCH   1   2
BRANCH   1  17
ATOM     16  C   LIG    1       -6.151  -4.302   6.358  0.00  0.00    -0.027 C 
ATOM     17  C   LIG    1       -5.886  -5.022   7.419  0.00  0.00    -0.027 C 
BRANCH  16  18
ATOM     18  C   LIG    1       -5.560  -4.679   5.024  0.00  0.00    +0.053 C 
BRANCH  18  20
ATOM     19  C   LIG    1       -6.587  -4.121   2.880  0.00  0.00    -0.027 C 
ATOM     20  C   LIG    1       -6.661  -4.795   4.001  0.00  0.00    -0.027 C 
BRANCH  19  21
ATOM     21  C   LIG    1       -5.331  -3.362   2.539  0.00  0.00    +0.053 C 
BRANCH  21  23
ATOM     22  C   LIG    1       -4.643  -2.836   0.256  0.00  0.00    -0.031 C 
ATOM     23  C   LIG    1       -4.864  -3.756   1.161  0.00  0.00    -0.027 C 
BRANCH  22  24
ATOM     24  C   LIG    1       -4.696  -1.378   0.635  0.00  0.00    +0.027 C 
BRANCH  24  25
ATOM     25  C   LIG    1       -3.410  -0.685   0.180  0.00  0.00    +0.004 C 
BRANCH  25  26
ATOM     26  C   LIG    1       -3.464   0.794   0.565  0.00  0.00    +0.000 C 
BRANCH  26  28
ATOM     27  C   LIG    1       -2.231   2.967   0.494  0.00  0.00    +0.004 C 
ATOM     28  C   LIG    1       -2.177   1.487   0.110  0.00  0.00    -0.003 C 
ENDBRANCH  26  28
ENDBRANCH  25  26
ENDBRANCH  24  25
ENDBRANCH  22  24
ENDBRANCH  21  23
ENDBRANCH  19  21
ENDBRANCH  18  20
ENDBRANCH  16  18
ENDBRANCH   1  17
TORSDOF 18
