REMARK  Name = ZINC28825320
REMARK                            x       y       z     vdW  Elec       q    Type
REMARK                         _______ _______ _______ _____ _____    ______ ____
ROOT
ATOM      1  C   LIG    1        1.172   1.783   0.000  0.00  0.00    +0.001 A 
ATOM      2  C   LIG    1        1.155   3.167   0.007  0.00  0.00    +0.005 A 
ATOM      3  C   LIG    1       -0.048   3.849   0.022  0.00  0.00    -0.032 A 
ATOM      4  C   LIG    1       -1.240   3.154   0.030  0.00  0.00    +0.021 A 
ATOM      5  C   LIG    1       -1.230   1.759   0.017  0.00  0.00    +0.025 A 
ATOM      6  C   LIG    1       -0.013   1.076   0.008  0.00  0.00    +0.017 A 
ENDROOT
BRANCH   5   7
ATOM      7  C   LIG    1       -2.463   1.030   0.020  0.00  0.00    -0.066 C 
ATOM      8  C   LIG    1       -3.474   0.433   0.022  0.00  0.00    -0.099 C 
BRANCH   8   9
ATOM      9  C   LIG    1       -4.741  -0.315   0.024  0.00  0.00    +0.070 C 
BRANCH   9  10
ATOM     10  C   LIG    1       -5.914   0.668   0.035  0.00  0.00    -0.066 C 
BRANCH  10  11
ATOM     11  N   LIG    1       -7.178  -0.079   0.037  0.00  0.00    +0.380 N 
ATOM     12  H   LIG    1       -7.140  -0.810   0.859  0.00  0.00    -0.082 HD
ATOM     13  C   LIG    1       -7.352  -0.825  -1.216  0.00  0.00    -0.079 C 
ATOM     14  C   LIG    1       -8.602  -1.702  -1.121  0.00  0.00    -0.019 C 
ATOM     15  C   LIG    1       -9.823  -0.815  -0.859  0.00  0.00    -0.004 C 
ATOM     16  C   LIG    1       -9.596  -0.014   0.426  0.00  0.00    -0.019 C 
ATOM     17  C   LIG    1       -8.317   0.814   0.286  0.00  0.00    -0.079 C 
ENDBRANCH  10  11
ENDBRANCH   9  10
ENDBRANCH   8   9
ENDBRANCH   5   7
BRANCH   3  18
ATOM     18  C   LIG    1       -0.058   5.356   0.029  0.00  0.00    +0.119 C 
BRANCH  18  19
ATOM     19  N   LIG    1       -0.073   5.853  -1.353  0.00  0.00    -0.294 NA
ATOM     20  C   LIG    1        1.180   5.521  -2.046  0.00  0.00    +0.113 C 
ATOM     21  C   LIG    1        1.097   6.003  -3.497  0.00  0.00    +0.175 C 
ATOM     22  O   LIG    1        0.825   7.407  -3.513  0.00  0.00    -0.377 OA
ATOM     23  C   LIG    1       -0.389   7.766  -2.847  0.00  0.00    +0.175 C 
ATOM     24  C   LIG    1       -0.321   7.302  -1.390  0.00  0.00    +0.113 C 
ENDBRANCH  18  19
ENDBRANCH   3  18
TORSDOF 6
