REMARK  Name = ZINC40448363
REMARK                            x       y       z     vdW  Elec       q    Type
REMARK                         _______ _______ _______ _____ _____    ______ ____
ROOT
ATOM      1  C   LIG    1       -0.016   1.354   0.009  0.00  0.00    +0.002 A 
ATOM      2  C   LIG    1        1.144   2.118   0.003  0.00  0.00    +0.021 A 
ATOM      3  C   LIG    1        2.397   1.527  -0.013  0.00  0.00    +0.079 A 
ATOM      4  C   LIG    1        2.481   0.062  -0.022  0.00  0.00    +0.111 A 
ATOM      5  C   LIG    1        1.224  -0.704  -0.013  0.00  0.00    +0.035 A 
ATOM      6  C   LIG    1        1.585  -2.041  -0.024  0.00  0.00    +0.109 A 
ATOM      7 BR   LIG    1        0.400  -3.515  -0.020  0.00  0.00    -0.029 Br
ATOM      8  N   LIG    1        2.924  -2.104  -0.038  0.00  0.00    -0.269 N 
ATOM      9  H   LIG    1        3.442  -2.924  -0.047  0.00  0.00    +0.190 HD
ATOM     10  N   LIG    1        3.463  -0.813  -0.036  0.00  0.00    -0.172 NA
ATOM     11  C   LIG    1        0.002  -0.004   0.002  0.00  0.00    +0.013 A 
ENDROOT
BRANCH   3  12
ATOM     12  C   LIG    1        3.584   2.327  -0.021  0.00  0.00    +0.101 C 
ATOM     13  N   LIG    1        4.526   2.963  -0.027  0.00  0.00    -0.191 NA
ENDBRANCH   3  12
TORSDOF 1
