REMARK  Name = ZINC35920376
REMARK                            x       y       z     vdW  Elec       q    Type
REMARK                         _______ _______ _______ _____ _____    ______ ____
ROOT
ATOM      1  C   LIG    1       -0.301  -0.567  -1.462  0.00  0.00    +0.043 A 
ATOM      2  C   LIG    1       -0.227   0.819  -1.593  0.00  0.00    +0.037 A 
ATOM      3  C   LIG    1       -0.223   1.392  -2.855  0.00  0.00    +0.035 A 
ATOM      4  C   LIG    1       -0.293   0.589  -3.986  0.00  0.00    +0.027 A 
ATOM      5  C   LIG    1       -0.367  -0.785  -3.861  0.00  0.00    +0.048 A 
ATOM      6  C   LIG    1       -0.366  -1.371  -2.606  0.00  0.00    +0.130 A 
ENDROOT
BRANCH   1   9
ATOM      7  C   LIG    1       -1.989   0.336   0.982  0.00  0.00    +0.173 C 
ATOM      8  N   LIG    1       -1.048  -0.787   0.953  0.00  0.00    -0.267 N 
ATOM      9  C   LIG    1       -0.306  -1.187  -0.118  0.00  0.00    +0.072 A 
ATOM     10  C   LIG    1        0.434  -2.265   0.279  0.00  0.00    +0.049 A 
ATOM     11  C   LIG    1        0.131  -2.522   1.616  0.00  0.00    +0.135 A 
ATOM     12  N   LIG    1       -0.747  -1.640   2.022  0.00  0.00    -0.179 NA
ENDBRANCH   1   9
BRANCH   3  13
ATOM     13  N   LIG    1       -0.149   2.784  -2.989  0.00  0.00    -0.281 N 
ATOM     14  H   LIG    1       -0.587   3.223  -3.736  0.00  0.00    +0.155 HD
ATOM     15  C   LIG    1        0.529   3.514  -2.082  0.00  0.00    +0.248 C 
ATOM     16  O   LIG    1        1.154   2.958  -1.199  0.00  0.00    -0.270 OA
BRANCH  15  17
ATOM     17  C   LIG    1        0.514   4.990  -2.160  0.00  0.00    +0.040 A 
ATOM     18  C   LIG    1       -0.207   5.631  -3.169  0.00  0.00    +0.013 A 
ATOM     19  C   LIG    1       -0.219   7.009  -3.239  0.00  0.00    +0.004 A 
ATOM     20  C   LIG    1        0.481   7.759  -2.311  0.00  0.00    +0.045 A 
ATOM     21  C   LIG    1        1.202   7.130  -1.305  0.00  0.00    +0.121 A 
ATOM     22  C   LIG    1        1.215   5.748  -1.222  0.00  0.00    +0.058 A 
BRANCH  21  23
ATOM     23  O   LIG    1        1.889   7.872  -0.397  0.00  0.00    -0.495 OA
ATOM     24  C   LIG    1        1.826   9.293  -0.539  0.00  0.00    +0.277 C 
ENDBRANCH  21  23
ENDBRANCH  15  17
ENDBRANCH   3  13
BRANCH   6  25
ATOM     25  O   LIG    1       -0.433  -2.723  -2.485  0.00  0.00    -0.490 OA
BRANCH  25  26
ATOM     26  C   LIG    1       -0.620  -3.473  -3.687  0.00  0.00    +0.244 C 
BRANCH  26  27
ATOM     27  C   LIG    1       -0.785  -4.955  -3.343  0.00  0.00    +0.125 C 
BRANCH  27  28
ATOM     28  N   LIG    1        0.449  -5.453  -2.720  0.00  0.00    -0.295 NA
ATOM     29  C   LIG    1        1.528  -5.572  -3.712  0.00  0.00    +0.112 C 
ATOM     30  C   LIG    1        2.808  -6.036  -3.011  0.00  0.00    +0.175 C 
ATOM     31  O   LIG    1        2.555  -7.271  -2.335  0.00  0.00    -0.377 OA
ATOM     32  C   LIG    1        1.510  -7.190  -1.362  0.00  0.00    +0.175 C 
ATOM     33  C   LIG    1        0.217  -6.738  -2.046  0.00  0.00    +0.112 C 
ENDBRANCH  27  28
ENDBRANCH  26  27
ENDBRANCH  25  26
ENDBRANCH   6  25
TORSDOF 8
