REMARK  Name = ZINC53194796
REMARK                            x       y       z     vdW  Elec       q    Type
REMARK                         _______ _______ _______ _____ _____    ______ ____
ROOT
ATOM      1  N   LIG    1        1.650  -0.717  -0.117  0.00  0.00    -0.300 NA
ATOM      2  C   LIG    1        2.905  -0.222  -0.699  0.00  0.00    +0.103 C 
ATOM      3  C   LIG    1        2.920  -0.520  -2.202  0.00  0.00    +0.123 C 
ATOM      4  N   LIG    1        2.668  -1.957  -2.395  0.00  0.00    -0.294 N 
ATOM      5  C   LIG    1        3.485  -2.704  -3.164  0.00  0.00    +0.263 C 
ATOM      6  O   LIG    1        4.442  -2.192  -3.712  0.00  0.00    -0.268 OA
ATOM      7  C   LIG    1        1.502  -2.555  -1.728  0.00  0.00    +0.123 C 
ATOM      8  C   LIG    1        1.543  -2.176  -0.244  0.00  0.00    +0.103 C 
ENDROOT
BRANCH   5   9
ATOM      9  C   LIG    1        3.218  -4.140  -3.340  0.00  0.00    +0.103 A 
ATOM     10  C   LIG    1        4.157  -5.091  -3.582  0.00  0.00    +0.040 A 
ATOM     11  C   LIG    1        3.491  -6.337  -3.686  0.00  0.00    +0.000 A 
ATOM     12  C   LIG    1        3.931  -7.646  -3.924  0.00  0.00    +0.010 A 
ATOM     13  C   LIG    1        3.028  -8.667  -3.970  0.00  0.00    +0.001 A 
ATOM     14  C   LIG    1        1.673  -8.422  -3.784  0.00  0.00    +0.002 A 
ATOM     15  C   LIG    1        1.216  -7.145  -3.550  0.00  0.00    +0.026 A 
ATOM     16  C   LIG    1        2.118  -6.086  -3.497  0.00  0.00    +0.047 A 
ATOM     17  N   LIG    1        1.973  -4.736  -3.281  0.00  0.00    -0.351 N 
ATOM     18  H   LIG    1        1.135  -4.278  -3.116  0.00  0.00    +0.166 HD
ENDBRANCH   5   9
BRANCH   1  20
ATOM     19  C   LIG    1        1.386   1.223   1.354  0.00  0.00    +0.020 C 
ATOM     20  C   LIG    1        1.520  -0.299   1.285  0.00  0.00    +0.081 C 
ENDBRANCH   1  20
TORSDOF 2
