REMARK  Name = ZINC28896217
REMARK                            x       y       z     vdW  Elec       q    Type
REMARK                         _______ _______ _______ _____ _____    ______ ____
ROOT
ATOM      1  C   LIG    1       -1.354  -6.340  -0.009  0.00  0.00    +0.005 C 
ENDROOT
BRANCH   1   2
ATOM      2  C   LIG    1       -2.790  -6.869   0.003  0.00  0.00    +0.035 C 
BRANCH   2   8
ATOM      3  C   LIG    1       -2.777  -9.062  -1.201  0.00  0.00    +0.007 A 
ATOM      4  C   LIG    1       -2.752 -10.445  -1.211  0.00  0.00    +0.049 A 
ATOM      5  C   LIG    1       -2.731 -11.145  -0.016  0.00  0.00    +0.158 A 
ATOM      6  C   LIG    1       -2.729 -10.455   1.192  0.00  0.00    +0.158 A 
ATOM      7  C   LIG    1       -2.748  -9.069   1.195  0.00  0.00    +0.052 A 
ATOM      8  C   LIG    1       -2.769  -8.376  -0.001  0.00  0.00    -0.044 A 
BRANCH   5   9
ATOM      9  O   LIG    1       -2.713 -12.505  -0.023  0.00  0.00    -0.503 OA
ATOM     10  H   LIG    1       -2.697 -13.060   0.926  0.00  0.00    +0.292 HD
ENDBRANCH   5   9
BRANCH   6  11
ATOM     11  O   LIG    1       -2.708 -11.138   2.368  0.00  0.00    -0.503 OA
ATOM     12  H   LIG    1       -2.707 -10.591   3.322  0.00  0.00    +0.292 HD
ENDBRANCH   6  11
ENDBRANCH   2   8
ENDBRANCH   1   2
BRANCH   1  13
ATOM     13  C   LIG    1       -1.375  -4.810  -0.005  0.00  0.00    +0.005 C 
BRANCH  13  14
ATOM     14  C   LIG    1        0.060  -4.280  -0.017  0.00  0.00    +0.035 C 
BRANCH  14  15
ATOM     15  C   LIG    1        0.040  -2.773  -0.012  0.00  0.00    -0.044 A 
ATOM     16  C   LIG    1        0.042  -2.087   1.188  0.00  0.00    +0.007 A 
ATOM     17  C   LIG    1        0.023  -0.705   1.197  0.00  0.00    +0.049 A 
ATOM     18  C   LIG    1        0.002  -0.004   0.002  0.00  0.00    +0.158 A 
ATOM     19  C   LIG    1       -0.006  -0.695  -1.206  0.00  0.00    +0.158 A 
ATOM     20  C   LIG    1        0.019  -2.080  -1.208  0.00  0.00    +0.052 A 
BRANCH  18  21
ATOM     21  O   LIG    1       -0.016   1.356   0.009  0.00  0.00    -0.503 OA
ATOM     22  H   LIG    1       -0.033   1.911  -0.940  0.00  0.00    +0.292 HD
ENDBRANCH  18  21
BRANCH  19  23
ATOM     23  O   LIG    1       -0.032  -0.012  -2.382  0.00  0.00    -0.503 OA
ATOM     24  H   LIG    1       -0.038  -0.559  -3.336  0.00  0.00    +0.292 HD
ENDBRANCH  19  23
ENDBRANCH  14  15
ENDBRANCH  13  14
ENDBRANCH   1  13
TORSDOF 9
