REMARK  Name = ZINC28090831
REMARK                            x       y       z     vdW  Elec       q    Type
REMARK                         _______ _______ _______ _____ _____    ______ ____
ROOT
ATOM      1  N   LIG    1        0.943   1.966   1.504  0.00  0.00    -0.222 N 
ATOM      2  C   LIG    1        1.441   2.048   2.751  0.00  0.00    +0.255 C 
ATOM      3  C   LIG    1        2.787   2.655   2.682  0.00  0.00    +0.049 A 
ATOM      4  C   LIG    1        3.752   2.977   3.623  0.00  0.00    +0.014 A 
ATOM      5  C   LIG    1        4.942   3.559   3.214  0.00  0.00    +0.001 A 
ATOM      6  C   LIG    1        5.171   3.821   1.876  0.00  0.00    +0.001 A 
ATOM      7  C   LIG    1        4.215   3.504   0.924  0.00  0.00    +0.014 A 
ATOM      8  C   LIG    1        3.021   2.921   1.318  0.00  0.00    +0.049 A 
ATOM      9  O   LIG    1        0.879   1.681   3.764  0.00  0.00    -0.270 OA
ATOM     10  C   LIG    1        1.811   2.463   0.604  0.00  0.00    +0.255 C 
ATOM     11  O   LIG    1        1.630   2.523  -0.596  0.00  0.00    -0.270 OA
ENDROOT
BRANCH   1  12
ATOM     12  C   LIG    1       -0.373   1.416   1.171  0.00  0.00    +0.205 C 
BRANCH  12  14
ATOM     13  C   LIG    1       -0.151  -1.179   0.702  0.00  0.00    -0.119 C 
ATOM     14  C   LIG    1       -0.249  -0.028   0.910  0.00  0.00    -0.084 C 
BRANCH  13  15
ATOM     15  C   LIG    1       -0.027  -2.622   0.440  0.00  0.00    +0.012 C 
BRANCH  15  16
ATOM     16  N   LIG    1       -1.347  -3.174   0.106  0.00  0.00    +0.387 N 
ATOM     17  H   LIG    1       -2.049  -2.872   0.897  0.00  0.00    -0.080 HD
BRANCH  16  19
ATOM     18  C   LIG    1       -0.885  -3.029  -2.294  0.00  0.00    -0.017 C 
ATOM     19  C   LIG    1       -1.839  -2.630  -1.166  0.00  0.00    -0.081 C 
ENDBRANCH  16  19
BRANCH  16  20
ATOM     20  C   LIG    1       -1.310  -4.642   0.071  0.00  0.00    -0.081 C 
ATOM     21  C   LIG    1       -2.738  -5.189   0.111  0.00  0.00    -0.017 C 
ENDBRANCH  16  20
ENDBRANCH  15  16
ENDBRANCH  13  15
ENDBRANCH  12  14
ENDBRANCH   1  12
TORSDOF 6
