REMARK  Name = ZINC29348254
REMARK                            x       y       z     vdW  Elec       q    Type
REMARK                         _______ _______ _______ _____ _____    ______ ____
ROOT
ATOM      1  C   UNK A  0       -1.254   1.273   1.973  0.00  0.00    +0.004 A 
ATOM      2  C   UNK A  0       -0.190   2.089   2.297  0.00  0.00    +0.013 A 
ATOM      3  C   UNK A  0        1.114   1.602   2.198  0.00  0.00    +0.037 A 
ATOM      4  C   UNK A  0        1.333   0.292   1.771  0.00  0.00    +0.013 A 
ATOM      5  C   UNK A  0        0.261  -0.514   1.449  0.00  0.00    +0.004 A 
ATOM      6  C   UNK A  0       -1.030  -0.025   1.550  0.00  0.00    -0.047 A 
ENDROOT
BRANCH   3   7
ATOM      7  C   UNK A  0        2.259   2.471   2.544  0.00  0.00    +0.245 C 
ATOM      8  N   GLU A  1        3.518   1.999   2.447  0.00  0.00    -0.298 N 
ATOM      9  H   GLU A  1        3.672   1.088   2.151  0.00  0.00    +0.150 HD
ATOM     10  O   UNK A  0        2.065   3.612   2.916  0.00  0.00    -0.270 OA
BRANCH   8  11
ATOM     11  CA  GLU A  1        4.652   2.860   2.790  0.00  0.00    +0.182 C 
BRANCH  11  12
ATOM     12  C   GLU A  1        5.028   3.696   1.593  0.00  0.00    +0.325 C 
ATOM     13  O   GLU A  1        5.516   4.801   1.751  0.00  0.00    -0.249 OA
BRANCH  12  14
ATOM     14  OXT GLU A  1        4.844   3.265   0.468  0.00  0.00    -0.479 OA
ATOM     15  HXT GLU A  1        4.468   2.416   0.346  0.00  0.00    +0.295 HD
ENDBRANCH  12  14
ENDBRANCH  11  12
BRANCH  11  16
ATOM     16  CB  GLU A  1        5.844   1.994   3.202  0.00  0.00    +0.045 C 
BRANCH  16  17
ATOM     17  CG  GLU A  1        5.505   1.239   4.489  0.00  0.00    +0.123 C 
BRANCH  17  18
ATOM     18  CD  GLU A  1        6.679   0.386   4.895  0.00  0.00    +0.305 C 
ATOM     19  OE1 GLU A  1        7.693   0.382   4.217  0.00  0.00    -0.251 OA
BRANCH  18  20
ATOM     20  OE2 GLU A  1        6.615  -0.300   5.901  0.00  0.00    -0.481 OA
ATOM     21  HE2 GLU A  1        5.836  -0.297   6.421  0.00  0.00    +0.295 HD
ENDBRANCH  18  20
ENDBRANCH  17  18
ENDBRANCH  16  17
ENDBRANCH  11  16
ENDBRANCH   8  11
ENDBRANCH   3   7
BRANCH   6  22
ATOM     22  C   UNK A  0       -2.197  -0.911   1.197  0.00  0.00    +0.035 C 
BRANCH  22  23
ATOM     23  C   UNK A  0       -2.525  -0.754  -0.289  0.00  0.00    +0.005 C 
BRANCH  23  24
ATOM     24  C   UNK A  0       -3.710  -1.654  -0.648  0.00  0.00    +0.004 C 
BRANCH  24  25
ATOM     25  C   UNK A  0       -3.984  -1.562  -2.150  0.00  0.00    -0.004 C 
ATOM     26  C   UNK A  0       -4.545  -0.169  -2.509  0.00  0.00    +0.005 C 
ATOM     27  C   UNK A  0       -5.539  -0.495  -3.644  0.00  0.00    +0.019 C 
ATOM     28  C   UNK A  0       -5.960  -1.928  -3.403  0.00  0.00    +0.062 C 
ATOM     29  N   UNK A  0       -6.990  -2.624  -3.865  0.00  0.00    -0.286 NA
ATOM     30  H   UNK A  0       -7.621  -2.200  -4.468  0.00  0.00    +0.125 HD
ATOM     31  C   UNK A  0       -7.164  -3.895  -3.518  0.00  0.00    +0.193 C 
ATOM     32  N   UNK A  0       -6.328  -4.514  -2.699  0.00  0.00    -0.274 NA
ATOM     33  H   UNK A  0       -6.881  -4.835  -1.904  0.00  0.00    +0.126 HD
ATOM     34  C   UNK A  0       -5.276  -3.875  -2.197  0.00  0.00    +0.126 C 
ATOM     35  C   UNK A  0       -5.065  -2.540  -2.547  0.00  0.00    +0.040 C 
BRANCH  31  36
ATOM     36  N   UNK A  0       -8.250  -4.588  -4.024  0.00  0.00    -0.303 NA
ATOM     37  H   UNK A  0       -8.870  -4.146  -4.625  0.00  0.00    +0.121 HD
ATOM     38  H   UNK A  0       -8.391  -5.515  -3.778  0.00  0.00    +0.121 HD
ENDBRANCH  31  36
BRANCH  34  39
ATOM     39  N   UNK A  0       -4.402  -4.524  -1.340  0.00  0.00    -0.315 NA
ATOM     40  H   UNK A  0       -4.657  -5.367  -0.935  0.00  0.00    +0.120 HD
ATOM     41  H   UNK A  0       -3.534  -4.135  -1.146  0.00  0.00    +0.120 HD
ENDBRANCH  34  39
ENDBRANCH  24  25
ENDBRANCH  23  24
ENDBRANCH  22  23
ENDBRANCH   6  22
TORSDOF 14
