REMARK  Name = ZINC16904964
REMARK                            x       y       z     vdW  Elec       q    Type
REMARK                         _______ _______ _______ _____ _____    ______ ____
ROOT
ATOM      1  C   LIG    1        1.175   3.555   0.009  0.00  0.00    +0.028 C 
ATOM      2  C   LIG    1        2.137   4.239   0.678  0.00  0.00    +0.080 C 
ATOM      3  C   LIG    1        2.272   5.691   0.908  0.00  0.00    +0.261 C 
ATOM      4  N   LIG    1        3.325   6.085   1.604  0.00  0.00    -0.218 N 
ATOM      5  C   LIG    1        4.227   5.202   2.079  0.00  0.00    +0.286 C 
ATOM      6  O   LIG    1        5.231   5.423   2.728  0.00  0.00    -0.262 OA
ATOM      7  O   LIG    1        1.456   6.485   0.478  0.00  0.00    -0.269 OA
ATOM      8  S   LIG    1        3.586   3.629   1.529  0.00  0.00    -0.026 S 
ENDROOT
BRANCH   1  14
ATOM      9  C   LIG    1        0.280   1.373  -0.778  0.00  0.00    +0.011 A 
ATOM     10  C   LIG    1        0.443   0.028  -1.025  0.00  0.00    +0.046 A 
ATOM     11  C   LIG    1        1.660  -0.588  -0.754  0.00  0.00    +0.121 A 
ATOM     12  C   LIG    1        2.718   0.149  -0.235  0.00  0.00    +0.046 A 
ATOM     13  C   LIG    1        2.566   1.494   0.016  0.00  0.00    +0.011 A 
ATOM     14  C   LIG    1        1.343   2.120  -0.255  0.00  0.00    -0.024 A 
BRANCH  11  15
ATOM     15  O   LIG    1        1.815  -1.914  -0.999  0.00  0.00    -0.481 OA
BRANCH  15  16
ATOM     16  C   LIG    1        3.091  -2.484  -0.699  0.00  0.00    +0.349 C 
BRANCH  16  17
ATOM     17  C   LIG    1        3.076  -3.954  -1.033  0.00  0.00    +0.343 C 
ATOM     18  O   LIG    1        2.075  -4.461  -1.482  0.00  0.00    -0.247 OA
BRANCH  17  19
ATOM     19  O   LIG    1        4.173  -4.699  -0.831  0.00  0.00    -0.478 OA
ATOM     20  H   LIG    1        4.949  -4.306  -0.483  0.00  0.00    +0.295 HD
ENDBRANCH  17  19
ENDBRANCH  16  17
ENDBRANCH  15  16
ENDBRANCH  11  15
ENDBRANCH   1  14
BRANCH   4  21
ATOM     21  C   LIG    1        3.516   7.514   1.866  0.00  0.00    +0.237 C 
BRANCH  21  22
ATOM     22  C   LIG    1        2.832   7.884   3.157  0.00  0.00    +0.323 C 
ATOM     23  O   LIG    1        2.245   7.040   3.793  0.00  0.00    -0.249 OA
BRANCH  22  24
ATOM     24  O   LIG    1        2.875   9.150   3.601  0.00  0.00    -0.480 OA
ATOM     25  H   LIG    1        3.330   9.804   3.107  0.00  0.00    +0.295 HD
ENDBRANCH  22  24
ENDBRANCH  21  22
ENDBRANCH   4  21
TORSDOF 8
