REMARK  Name = ZINC66252790
REMARK                            x       y       z     vdW  Elec       q    Type
REMARK                         _______ _______ _______ _____ _____    ______ ____
ROOT
ATOM      1  C   LIG    1        1.447  -4.008  -2.482  0.00  0.00    -0.022 A 
ATOM      2  C   LIG    1        2.438  -4.795  -2.034  0.00  0.00    +0.087 A 
ATOM      3  N   LIG    1        2.101  -6.111  -2.204  0.00  0.00    -0.360 N 
ATOM      4  C   LIG    1        0.853  -6.204  -2.781  0.00  0.00    +0.047 A 
ATOM      5  C   LIG    1        0.054  -7.277  -3.162  0.00  0.00    +0.029 A 
ATOM      6  C   LIG    1       -1.187  -7.048  -3.715  0.00  0.00    +0.040 A 
ATOM      7  C   LIG    1       -1.647  -5.751  -3.910  0.00  0.00    +0.124 A 
ATOM      8  F   LIG    1       -2.863  -5.546  -4.462  0.00  0.00    -0.205 F 
ATOM      9  C   LIG    1       -0.869  -4.674  -3.544  0.00  0.00    +0.048 A 
ATOM     10  H   LIG    1        2.658  -6.865  -1.956  0.00  0.00    +0.165 HD
ATOM     11  C   LIG    1        0.387  -4.891  -2.974  0.00  0.00    +0.006 A 
ENDROOT
BRANCH   1  12
ATOM     12  C   LIG    1        1.427  -2.501  -2.474  0.00  0.00    +0.035 C 
BRANCH  12  13
ATOM     13  C   LIG    1        0.710  -2.008  -1.215  0.00  0.00    -0.014 C 
BRANCH  13  14
ATOM     14  C   LIG    1        0.690  -0.478  -1.207  0.00  0.00    -0.083 C 
BRANCH  14  16
ATOM     15  C   LIG    1       -0.018   1.465   0.010  0.00  0.00    -0.101 C 
ATOM     16  N   LIG    1        0.002  -0.004   0.002  0.00  0.00    +0.377 N 
ATOM     17  H   LIG    1       -0.945  -0.353   0.009  0.00  0.00    -0.086 HD
ATOM     18  H   LIG    1        0.490  -0.338   0.820  0.00  0.00    -0.086 HD
ENDBRANCH  14  16
ENDBRANCH  13  14
ENDBRANCH  12  13
ENDBRANCH   1  12
TORSDOF 4
