REMARK  Name = ZINC34327129
REMARK                            x       y       z     vdW  Elec       q    Type
REMARK                         _______ _______ _______ _____ _____    ______ ____
ROOT
ATOM      1  C   LIG    1        5.002  -2.740  -0.061  0.00  0.00    +0.078 C 
ATOM      2  C   LIG    1        5.018  -4.135  -0.074  0.00  0.00    +0.023 C 
ATOM      3  C   LIG    1        6.235  -4.797  -0.090  0.00  0.00    +0.005 C 
ATOM      4  C   LIG    1        7.399  -4.046  -0.092  0.00  0.00    +0.034 C 
ATOM      5  C   LIG    1        7.315  -2.656  -0.078  0.00  0.00    +0.119 C 
ATOM      6  N   LIG    1        6.140  -2.050  -0.069  0.00  0.00    -0.295 NA
ATOM      7  H   LIG    1        6.107  -1.080  -0.063  0.00  0.00    +0.124 HD
ENDROOT
BRANCH   5   8
ATOM      8  N   LIG    1        8.480  -1.898  -0.079  0.00  0.00    -0.316 NA
ATOM      9  H   LIG    1        8.428  -0.929  -0.070  0.00  0.00    +0.120 HD
ATOM     10  H   LIG    1        9.345  -2.337  -0.090  0.00  0.00    +0.120 HD
ENDBRANCH   5   8
BRANCH   1  12
ATOM     11  C   LIG    1        3.692  -0.681  -0.037  0.00  0.00    +0.005 C 
ATOM     12  C   LIG    1        3.715  -2.024  -0.045  0.00  0.00    -0.008 C 
BRANCH  11  16
ATOM     13  C   LIG    1       -0.017   1.380   0.010  0.00  0.00    +0.000 A 
ATOM     14  C   LIG    1        1.168   2.095   0.002  0.00  0.00    +0.001 A 
ATOM     15  C   LIG    1        2.377   1.432  -0.013  0.00  0.00    +0.008 A 
ATOM     16  C   LIG    1        2.404   0.034  -0.021  0.00  0.00    -0.025 A 
ATOM     17  C   LIG    1        1.204  -0.681  -0.013  0.00  0.00    +0.008 A 
ATOM     18  C   LIG    1        0.002  -0.004   0.002  0.00  0.00    +0.001 A 
ENDBRANCH  11  16
ENDBRANCH   1  12
TORSDOF 3
