REMARK  Name = ZINC00049416
REMARK                            x       y       z     vdW  Elec       q    Type
REMARK                         _______ _______ _______ _____ _____    ______ ____
ROOT
ATOM      1  N   LIG    1        5.418  -1.666  -1.547  0.00  0.00    -0.289 N 
ATOM      2  C   LIG    1        5.436  -3.016  -1.454  0.00  0.00    +0.262 A 
ATOM      3  C   LIG    1        6.748  -3.679  -1.431  0.00  0.00    +0.065 A 
ATOM      4  C   LIG    1        6.870  -5.064  -1.338  0.00  0.00    +0.015 A 
ATOM      5  C   LIG    1        8.124  -5.633  -1.322  0.00  0.00    +0.001 A 
ATOM      6  C   LIG    1        9.262  -4.840  -1.397  0.00  0.00    +0.002 A 
ATOM      7  C   LIG    1        9.166  -3.480  -1.488  0.00  0.00    +0.028 A 
ATOM      8  C   LIG    1        7.907  -2.872  -1.508  0.00  0.00    +0.079 A 
ATOM      9  N   LIG    1        7.772  -1.535  -1.598  0.00  0.00    -0.226 NA
ATOM     10  O   LIG    1        4.403  -3.658  -1.391  0.00  0.00    -0.267 OA
ATOM     11  C   LIG    1        6.592  -0.961  -1.622  0.00  0.00    +0.180 A 
ENDROOT
BRANCH  11  12
ATOM     12  C   LIG    1        6.526   0.501  -1.728  0.00  0.00    +0.170 A 
ATOM     13  C   LIG    1        7.582   1.338  -1.940  0.00  0.00    +0.053 A 
ATOM     14  C   LIG    1        7.063   2.644  -1.974  0.00  0.00    +0.042 A 
ATOM     15  C   LIG    1        5.731   2.546  -1.775  0.00  0.00    +0.196 A 
ATOM     16  O   LIG    1        5.411   1.253  -1.627  0.00  0.00    -0.460 OA
ENDBRANCH  11  12
BRANCH   1  17
ATOM     17  C   LIG    1        4.138  -0.954  -1.573  0.00  0.00    +0.131 C 
BRANCH  17  18
ATOM     18  C   LIG    1        3.787  -0.484  -0.160  0.00  0.00    +0.057 C 
BRANCH  18  22
ATOM     19  C   LIG    1        0.055   1.592  -0.238  0.00  0.00    +0.000 A 
ATOM     20  C   LIG    1        1.235   2.286  -0.424  0.00  0.00    +0.000 A 
ATOM     21  C   LIG    1        2.443   1.614  -0.400  0.00  0.00    +0.004 A 
ATOM     22  C   LIG    1        2.470   0.249  -0.187  0.00  0.00    -0.046 A 
ATOM     23  C   LIG    1        1.290  -0.445  -0.000  0.00  0.00    +0.004 A 
ATOM     24  C   LIG    1        0.082   0.226  -0.025  0.00  0.00    +0.000 A 
ENDBRANCH  18  22
ENDBRANCH  17  18
ENDBRANCH   1  17
TORSDOF 4
