REMARK  Name = ZINC14727551
REMARK                            x       y       z     vdW  Elec       q    Type
REMARK                         _______ _______ _______ _____ _____    ______ ____
ROOT
ATOM      1  C   LIG    1       -1.830   7.306  -1.861  0.00  0.00    +0.040 A 
ATOM      2  C   LIG    1       -2.120   7.705  -0.562  0.00  0.00    +0.131 A 
ATOM      3  C   LIG    1       -1.303   7.325   0.495  0.00  0.00    +0.041 A 
ATOM      4  C   LIG    1       -0.186   6.542   0.265  0.00  0.00    +0.142 A 
ATOM      5  C   LIG    1        0.107   6.130  -1.048  0.00  0.00    +0.101 A 
ATOM      6  C   LIG    1        1.284   5.287  -1.285  0.00  0.00    +0.174 C 
ATOM      7  C   LIG    1        2.267   5.154  -0.135  0.00  0.00    +0.129 C 
ATOM      8  C   LIG    1        1.444   5.033   1.156  0.00  0.00    +0.211 C 
ATOM      9  O   LIG    1        1.464   4.725  -2.345  0.00  0.00    -0.292 OA
ATOM     10  O   LIG    1        0.614   6.185   1.298  0.00  0.00    -0.483 OA
ATOM     11  C   LIG    1       -0.720   6.521  -2.113  0.00  0.00    +0.138 A 
ENDROOT
BRANCH   8  12
ATOM     12  C   LIG    1        2.374   4.933   2.338  0.00  0.00    -0.000 A 
ATOM     13  C   LIG    1        2.879   6.081   2.917  0.00  0.00    +0.053 A 
ATOM     14  C   LIG    1        3.731   5.992   4.009  0.00  0.00    +0.121 A 
ATOM     15  C   LIG    1        4.085   4.749   4.511  0.00  0.00    +0.090 A 
ATOM     16  C   LIG    1        3.582   3.598   3.924  0.00  0.00    +0.121 A 
ATOM     17  C   LIG    1        2.726   3.693   2.836  0.00  0.00    +0.053 A 
BRANCH  14  18
ATOM     18  O   LIG    1        4.223   7.122   4.582  0.00  0.00    -0.507 OA
ATOM     19  H   LIG    1        5.058   7.425   4.200  0.00  0.00    +0.292 HD
ENDBRANCH  14  18
BRANCH  16  20
ATOM     20  O   LIG    1        3.927   2.378   4.414  0.00  0.00    -0.507 OA
ATOM     21  H   LIG    1        4.719   2.001   4.009  0.00  0.00    +0.292 HD
ENDBRANCH  16  20
ENDBRANCH   8  12
BRANCH   2  22
ATOM     22  O   LIG    1       -3.213   8.473  -0.323  0.00  0.00    -0.506 OA
ATOM     23  H   LIG    1       -4.016   7.967  -0.139  0.00  0.00    +0.292 HD
ENDBRANCH   2  22
BRANCH  11  24
ATOM     24  O   LIG    1       -0.432   6.131  -3.380  0.00  0.00    -0.506 OA
ATOM     25  H   LIG    1       -0.838   5.291  -3.635  0.00  0.00    +0.292 HD
ENDBRANCH  11  24
BRANCH   1  26
ATOM     26  C   LIG    1       -2.726   7.729  -2.996  0.00  0.00    +0.069 C 
BRANCH  26  30
ATOM     27  C   LIG    1       -5.426   8.530  -3.114  0.00  0.00    +0.038 C 
ATOM     28  C   LIG    1       -5.068   7.069  -3.201  0.00  0.00    -0.079 C 
ATOM     29  C   LIG    1       -6.155   6.030  -3.299  0.00  0.00    +0.038 C 
ATOM     30  C   LIG    1       -3.810   6.701  -3.191  0.00  0.00    -0.023 C 
ENDBRANCH  26  30
ENDBRANCH   1  26
BRANCH   3  31
ATOM     31  C   LIG    1       -1.634   7.768   1.897  0.00  0.00    +0.069 C 
BRANCH  31  32
ATOM     32  C   LIG    1       -2.527   6.745   2.550  0.00  0.00    -0.023 C 
ATOM     33  C   LIG    1       -2.165   6.181   3.675  0.00  0.00    -0.079 C 
ATOM     34  C   LIG    1       -3.101   5.233   4.379  0.00  0.00    +0.038 C 
ATOM     35  C   LIG    1       -0.811   6.481   4.266  0.00  0.00    +0.038 C 
ENDBRANCH  31  32
ENDBRANCH   3  31
TORSDOF 9
