REMARK  Name = ZINC27751733
REMARK                            x       y       z     vdW  Elec       q    Type
REMARK                         _______ _______ _______ _____ _____    ______ ____
ROOT
ATOM      1  C   LIG    1        2.996  -1.972  -0.036  0.00  0.00    +0.114 A 
ATOM      2  N   LIG    1        1.644  -1.975  -0.024  0.00  0.00    -0.225 NA
ATOM      3  C   LIG    1        1.234  -0.656  -0.013  0.00  0.00    +0.172 A 
ATOM      4  C   LIG    1        0.002  -0.004   0.002  0.00  0.00    +0.280 A 
ATOM      5  O   LIG    1       -1.154  -0.711   0.008  0.00  0.00    -0.265 OA
ATOM      6  N   LIG    1       -0.016   1.324   0.009  0.00  0.00    -0.293 N 
ATOM      7  C   LIG    1        1.111   2.024   0.002  0.00  0.00    +0.195 A 
ATOM      8  N   LIG    1        2.300   1.448  -0.012  0.00  0.00    -0.197 NA
ATOM      9  H   LIG    1       -0.986   1.843   0.020  0.00  0.00    +0.172 HD
ATOM     10  C   LIG    1        2.408   0.116  -0.020  0.00  0.00    +0.167 A 
ATOM     11  N   LIG    1        3.442  -0.746  -0.034  0.00  0.00    -0.326 N 
ATOM     12  H   LIG    1        4.474  -0.366  -0.042  0.00  0.00    +0.169 HD
ENDROOT
BRANCH   7  13
ATOM     13  N   LIG    1        1.039   3.408   0.009  0.00  0.00    -0.329 N 
ATOM     14  H   LIG    1        1.961   4.008   0.004  0.00  0.00    +0.145 HD
ATOM     15  H   LIG    1        0.059   3.908   0.021  0.00  0.00    +0.145 HD
ENDBRANCH   7  13
BRANCH   1  16
ATOM     16  C   LIG    1        3.862  -3.205  -0.051  0.00  0.00    +0.110 C 
BRANCH  16  21
ATOM     17  C   LIG    1        4.443  -3.674  -2.446  0.00  0.00    +0.011 A 
ATOM     18  C   LIG    1        5.314  -3.596  -3.482  0.00  0.00    +0.045 A 
ATOM     19  S   LIG    1        6.704  -2.762  -2.733  0.00  0.00    -0.105 S 
ATOM     20  C   LIG    1        6.027  -2.567  -1.093  0.00  0.00    +0.049 A 
ATOM     21  C   LIG    1        4.806  -3.142  -1.223  0.00  0.00    -0.033 A 
ENDBRANCH  16  21
ENDBRANCH   1  16
TORSDOF 3
