REMARK  Name = ZINC15017853
REMARK                            x       y       z     vdW  Elec       q    Type
REMARK                         _______ _______ _______ _____ _____    ______ ____
ROOT
ATOM      1  C   LIG    1       -1.219   1.752   0.017  0.00  0.00    -0.047 A 
ATOM      2  C   LIG    1       -0.013   1.076   0.008  0.00  0.00    +0.005 A 
ATOM      3  C   LIG    1        1.173   1.782   0.000  0.00  0.00    +0.023 A 
ATOM      4  C   LIG    1        1.155   3.174   0.010  0.00  0.00    +0.033 A 
ATOM      5  C   LIG    1       -0.056   3.849   0.028  0.00  0.00    +0.003 A 
ATOM      6  C   LIG    1       -0.114   5.356   0.046  0.00  0.00    +0.155 C 
ATOM      7  C   LIG    1        1.196   5.934  -0.485  0.00  0.00    +0.047 C 
ATOM      8  C   LIG    1        2.367   5.312   0.280  0.00  0.00    +0.106 C 
ATOM      9  C   LIG    1        1.212   7.452  -0.332  0.00  0.00    +0.011 C 
ATOM     10  C   LIG    1        0.942   7.823   1.129  0.00  0.00    +0.028 C 
ATOM     11  C   LIG    1       -0.394   7.206   1.556  0.00  0.00    +0.160 C 
ATOM     12  O   LIG    1       -0.328   5.789   1.391  0.00  0.00    -0.372 OA
ATOM     13  N   LIG    1        2.369   3.869  -0.003  0.00  0.00    -0.336 N 
ATOM     14  H   LIG    1        3.199   3.406  -0.197  0.00  0.00    +0.147 HD
ATOM     15  C   LIG    1       -1.241   3.133   0.032  0.00  0.00    +0.011 A 
ENDROOT
BRANCH   8  16
ATOM     16  C   LIG    1        3.663   5.925  -0.182  0.00  0.00    -0.027 A 
ATOM     17  C   LIG    1        4.236   5.516  -1.372  0.00  0.00    +0.005 A 
ATOM     18  C   LIG    1        5.423   6.081  -1.798  0.00  0.00    +0.000 A 
ATOM     19  C   LIG    1        6.042   7.050  -1.030  0.00  0.00    +0.000 A 
ATOM     20  C   LIG    1        5.472   7.456   0.162  0.00  0.00    +0.000 A 
ATOM     21  C   LIG    1        4.283   6.893   0.586  0.00  0.00    +0.005 A 
ENDBRANCH   8  16
BRANCH   1  23
ATOM     22  C   LIG    1       -2.946   0.709   1.460  0.00  0.00    +0.009 C 
ATOM     23  C   LIG    1       -2.514   0.979   0.018  0.00  0.00    +0.032 C 
ENDBRANCH   1  23
TORSDOF 2
