REMARK  Name = ZINC53259707
REMARK                            x       y       z     vdW  Elec       q    Type
REMARK                         _______ _______ _______ _____ _____    ______ ____
ROOT
ATOM      1  CA  PHE A  3        4.171  -0.963   1.399  0.00  0.00    +0.163 C 
ENDROOT
BRANCH   1   2
ATOM      2  C   PHE A  3        5.543  -1.588   1.383  0.00  0.00    +0.237 C 
ATOM      3  N   PRO A  4        6.577  -0.931   0.823  0.00  0.00    -0.288 N 
ATOM      4  CD  PRO A  4        6.509   0.403   0.197  0.00  0.00    +0.109 C 
ATOM      5  CG  PRO A  4        7.954   0.956   0.285  0.00  0.00    +0.021 C 
ATOM      6  CB  PRO A  4        8.793  -0.326   0.040  0.00  0.00    +0.033 C 
ATOM      7  CA  PRO A  4        7.960  -1.421   0.739  0.00  0.00    +0.162 C 
ATOM      8  O   PHE A  3        5.715  -2.683   1.875  0.00  0.00    -0.274 OA
BRANCH   7   9
ATOM      9  C   PRO A  4        8.499  -1.674   2.123  0.00  0.00    +0.234 C 
ATOM     10  N   GLY A  5        9.757  -2.131   2.284  0.00  0.00    -0.303 N 
ATOM     11  H   GLY A  5       10.315  -2.296   1.508  0.00  0.00    +0.149 HD
ATOM     12  O   PRO A  4        7.801  -1.467   3.093  0.00  0.00    -0.274 OA
BRANCH  10  13
ATOM     13  CA  GLY A  5       10.281  -2.377   3.629  0.00  0.00    +0.224 C 
BRANCH  13  14
ATOM     14  C   GLY A  5       11.698  -2.879   3.533  0.00  0.00    +0.322 C 
ATOM     15  O   GLY A  5       12.222  -3.019   2.441  0.00  0.00    -0.249 OA
BRANCH  14  16
ATOM     16  OXT GLY A  5       12.321  -3.146   4.546  0.00  0.00    -0.480 OA
ATOM     17  HXT GLY A  5       11.918  -3.039   5.385  0.00  0.00    +0.295 HD
ENDBRANCH  14  16
ENDBRANCH  13  14
ENDBRANCH  10  13
ENDBRANCH   7   9
ENDBRANCH   1   2
BRANCH   1  18
ATOM     18  N   PHE A  3        3.229  -1.870   2.059  0.00  0.00    -0.302 N 
ATOM     19  H   PHE A  3        3.406  -2.823   2.078  0.00  0.00    +0.150 HD
ATOM     20  C   PRO A  2        2.116  -1.379   2.640  0.00  0.00    +0.234 C 
ATOM     21  O   PRO A  2        1.895  -0.187   2.616  0.00  0.00    -0.274 OA
BRANCH  20  22
ATOM     22  CA  PRO A  2        1.147  -2.312   3.320  0.00  0.00    +0.162 C 
ATOM     23  CB  PRO A  2        0.573  -3.311   2.293  0.00  0.00    +0.033 C 
ATOM     24  CG  PRO A  2       -0.910  -3.444   2.729  0.00  0.00    +0.021 C 
ATOM     25  CD  PRO A  2       -1.224  -2.005   3.208  0.00  0.00    +0.108 C 
ATOM     26  N   PRO A  2        0.017  -1.546   3.867  0.00  0.00    -0.289 N 
ATOM     27  C   TYR A  1        0.101  -0.588   4.811  0.00  0.00    +0.233 C 
ATOM     28  O   TYR A  1        1.179  -0.294   5.283  0.00  0.00    -0.274 OA
BRANCH  27  29
ATOM     29  CA  TYR A  1       -1.145   0.118   5.281  0.00  0.00    +0.142 C 
BRANCH  29  30
ATOM     30  N   TYR A  1       -0.776   1.391   5.915  0.00  0.00    -0.320 NA
ATOM     31  H1  TYR A  1       -0.172   1.238   6.708  0.00  0.00    +0.119 HD
ATOM     32  H2  TYR A  1       -1.597   1.913   6.181  0.00  0.00    +0.119 HD
ENDBRANCH  29  30
BRANCH  29  33
ATOM     33  CB  TYR A  1       -1.878  -0.763   6.294  0.00  0.00    +0.063 C 
BRANCH  33  34
ATOM     34  CG  TYR A  1       -3.184  -0.113   6.672  0.00  0.00    -0.045 A 
ATOM     35  CD2 TYR A  1       -3.235   0.766   7.738  0.00  0.00    +0.007 A 
ATOM     36  CE2 TYR A  1       -4.431   1.363   8.086  0.00  0.00    +0.045 A 
ATOM     37  CZ  TYR A  1       -5.582   1.080   7.365  0.00  0.00    +0.117 A 
ATOM     38  CE1 TYR A  1       -5.529   0.199   6.295  0.00  0.00    +0.045 A 
ATOM     39  CD1 TYR A  1       -4.329  -0.392   5.948  0.00  0.00    +0.007 A 
BRANCH  37  40
ATOM     40  OH  TYR A  1       -6.760   1.666   7.706  0.00  0.00    -0.507 OA
ATOM     41  HH  TYR A  1       -6.925   2.508   7.260  0.00  0.00    +0.292 HD
ENDBRANCH  37  40
ENDBRANCH  33  34
ENDBRANCH  29  33
ENDBRANCH  27  29
ENDBRANCH  20  22
ENDBRANCH   1  18
BRANCH   1  42
ATOM     42  CB  PHE A  3        3.711  -0.707  -0.038  0.00  0.00    +0.067 C 
BRANCH  42  46
ATOM     43  CZ  PHE A  3       -0.017   1.378   0.010  0.00  0.00    +0.000 A 
ATOM     44  CE1 PHE A  3        1.171   2.086   0.002  0.00  0.00    +0.000 A 
ATOM     45  CD1 PHE A  3        2.377   1.411  -0.013  0.00  0.00    +0.004 A 
ATOM     46  CG  PHE A  3        2.396   0.029  -0.020  0.00  0.00    -0.045 A 
ATOM     47  CD2 PHE A  3        1.208  -0.679  -0.012  0.00  0.00    +0.004 A 
ATOM     48  CE2 PHE A  3        0.002  -0.004   0.002  0.00  0.00    +0.000 A 
ENDBRANCH  42  46
ENDBRANCH   1  42
TORSDOF 14
