REMARK  Name = ZINC23466472
REMARK                            x       y       z     vdW  Elec       q    Type
REMARK                         _______ _______ _______ _____ _____    ______ ____
ROOT
ATOM      1  N   LIG    1        1.681   6.080  -1.042  0.00  0.00    -0.295 NA
ATOM      2  C   LIG    1        2.462   5.557   0.088  0.00  0.00    +0.103 C 
ATOM      3  C   LIG    1        2.523   4.031  -0.001  0.00  0.00    +0.120 C 
ATOM      4  N   LIG    1        1.159   3.486   0.009  0.00  0.00    -0.327 N 
ATOM      5  C   LIG    1        0.378   4.009  -1.121  0.00  0.00    +0.120 C 
ATOM      6  C   LIG    1        0.316   5.535  -1.032  0.00  0.00    +0.103 C 
ENDROOT
BRANCH   4   7
ATOM      7  C   LIG    1        1.177   2.087   0.002  0.00  0.00    +0.030 A 
ATOM      8  C   LIG    1       -0.017   1.377   0.010  0.00  0.00    +0.027 A 
ATOM      9  C   LIG    1        0.002  -0.004   0.002  0.00  0.00    +0.047 A 
ATOM     10  C   LIG    1        1.212  -0.681  -0.014  0.00  0.00    +0.117 A 
ATOM     11  C   LIG    1        2.405   0.027  -0.021  0.00  0.00    +0.047 A 
ATOM     12  C   LIG    1        2.388   1.408  -0.012  0.00  0.00    +0.027 A 
BRANCH  10  13
ATOM     13  O   LIG    1        1.230  -2.041  -0.022  0.00  0.00    -0.507 OA
ATOM     14  H   LIG    1        2.189  -2.579  -0.034  0.00  0.00    +0.292 HD
ENDBRANCH  10  13
ENDBRANCH   4   7
BRANCH   1  15
ATOM     15  C   LIG    1        1.662   7.549  -1.035  0.00  0.00    +0.119 C 
BRANCH  15  19
ATOM     16  C   LIG    1       -0.016   8.970  -4.697  0.00  0.00    +0.000 A 
ATOM     17  C   LIG    1       -0.835   8.724  -3.611  0.00  0.00    +0.000 A 
ATOM     18  C   LIG    1       -0.292   8.264  -2.426  0.00  0.00    +0.005 A 
ATOM     19  C   LIG    1        1.070   8.050  -2.327  0.00  0.00    -0.033 A 
ATOM     20  C   LIG    1        1.890   8.302  -3.411  0.00  0.00    +0.005 A 
ATOM     21  C   LIG    1        1.347   8.757  -4.598  0.00  0.00    +0.000 A 
ENDBRANCH  15  19
ENDBRANCH   1  15
TORSDOF 4
