REMARK  Name = ZINC71295455
REMARK                            x       y       z     vdW  Elec       q    Type
REMARK                         _______ _______ _______ _____ _____    ______ ____
ROOT
ATOM      1  C   LIG    1       -0.019   1.526   0.010  0.00  0.00    +0.000 C 
ATOM      2  C   LIG    1        1.416   2.056  -0.000  0.00  0.00    +0.001 C 
ATOM      3  C   LIG    1        2.133   1.563  -1.259  0.00  0.00    +0.008 C 
ATOM      4  C   LIG    1        2.153   0.033  -1.267  0.00  0.00    -0.013 C 
ATOM      5  C   LIG    1        2.873  -0.463  -2.523  0.00  0.00    +0.010 C 
ATOM      6  C   LIG    1        2.864  -1.993  -2.546  0.00  0.00    +0.020 C 
ATOM      7  C   LIG    1        3.611  -2.523  -1.318  0.00  0.00    +0.108 C 
ATOM      8  N   LIG    1        3.015  -1.935  -0.111  0.00  0.00    -0.301 N 
ATOM      9  C   LIG    1        2.589  -2.721   0.897  0.00  0.00    +0.219 C 
ATOM     10  O   LIG    1        2.099  -2.223   1.889  0.00  0.00    -0.275 OA
ATOM     11  C   LIG    1        0.719  -0.497  -1.257  0.00  0.00    +0.008 C 
ATOM     12  C   LIG    1        2.892  -0.473  -0.025  0.00  0.00    +0.114 C 
ATOM     13  C   LIG    1        0.002  -0.004   0.002  0.00  0.00    +0.001 C 
ENDROOT
BRANCH   9  14
ATOM     14  C   LIG    1        2.722  -4.218   0.793  0.00  0.00    +0.075 C 
ATOM     15  C   LIG    1        1.588  -4.883  -0.005  0.00  0.00    +0.013 C 
ATOM     16  C   LIG    1        1.614  -6.007   1.045  0.00  0.00    +0.001 C 
ATOM     17  C   LIG    1        2.190  -4.971   2.025  0.00  0.00    +0.013 C 
ENDBRANCH   9  14
TORSDOF 1
