REMARK  Name = ZINC14278029
REMARK                            x       y       z     vdW  Elec       q    Type
REMARK                         _______ _______ _______ _____ _____    ______ ____
ROOT
ATOM      1  C   LIG    1       -6.750   1.675  -3.197  0.00  0.00    +0.000 C 
ENDROOT
BRANCH   1   2
ATOM      2  C   LIG    1       -8.038   2.497  -3.277  0.00  0.00    -0.000 C 
BRANCH   2   3
ATOM      3  C   LIG    1       -8.986   1.861  -4.296  0.00  0.00    -0.000 C 
BRANCH   3   4
ATOM      4  C   LIG    1      -10.275   2.682  -4.375  0.00  0.00    -0.000 C 
BRANCH   4   5
ATOM      5  C   LIG    1      -11.223   2.047  -5.394  0.00  0.00    -0.000 C 
BRANCH   5   6
ATOM      6  C   LIG    1      -12.511   2.868  -5.474  0.00  0.00    -0.000 C 
BRANCH   6   7
ATOM      7  C   LIG    1      -13.459   2.232  -6.493  0.00  0.00    -0.000 C 
BRANCH   7   8
ATOM      8  C   LIG    1      -14.747   3.054  -6.573  0.00  0.00    -0.000 C 
BRANCH   8  10
ATOM      9  C   LIG    1      -16.983   3.239  -7.671  0.00  0.00    +0.004 C 
ATOM     10  C   LIG    1      -15.695   2.418  -7.592  0.00  0.00    -0.003 C 
ENDBRANCH   8  10
ENDBRANCH   7   8
ENDBRANCH   6   7
ENDBRANCH   5   6
ENDBRANCH   4   5
ENDBRANCH   3   4
ENDBRANCH   2   3
ENDBRANCH   1   2
BRANCH   1  11
ATOM     11  C   LIG    1       -5.802   2.311  -2.178  0.00  0.00    +0.000 C 
BRANCH  11  12
ATOM     12  C   LIG    1       -4.514   1.490  -2.099  0.00  0.00    +0.000 C 
BRANCH  12  13
ATOM     13  C   LIG    1       -3.566   2.125  -1.080  0.00  0.00    +0.002 C 
BRANCH  13  14
ATOM     14  C   LIG    1       -2.277   1.304  -1.000  0.00  0.00    +0.026 C 
BRANCH  14  15
ATOM     15  C   LIG    1       -1.329   1.940   0.019  0.00  0.00    +0.165 C 
ATOM     16 BR   LIG    1       -2.127   1.831   1.812  0.00  0.00    -0.076 Br
BRANCH  15  17
ATOM     17  C   LIG    1       -0.014   1.204   0.009  0.00  0.00    +0.318 C 
ATOM     18  O   LIG    1        0.002  -0.004   0.002  0.00  0.00    -0.250 OA
BRANCH  17  19
ATOM     19  O   LIG    1        1.139   1.891   0.001  0.00  0.00    -0.480 OA
ATOM     20  H   LIG    1        1.126   2.828   0.006  0.00  0.00    +0.295 HD
ENDBRANCH  17  19
ENDBRANCH  15  17
ENDBRANCH  14  15
ENDBRANCH  13  14
ENDBRANCH  12  13
ENDBRANCH  11  12
ENDBRANCH   1  11
TORSDOF 15
