REMARK  Name = ZINC36349281
REMARK                            x       y       z     vdW  Elec       q    Type
REMARK                         _______ _______ _______ _____ _____    ______ ____
ROOT
ATOM      1  C   LIG    1        2.224  -3.195   4.244  0.00  0.00    +0.069 C 
ATOM      2  C   LIG    1        1.520  -3.666   5.290  0.00  0.00    +0.013 C 
ENDROOT
BRANCH   2   3
ATOM      3  C   LIG    1        1.995  -3.430   6.663  0.00  0.00    -0.021 A 
ATOM      4  C   LIG    1        3.137  -2.654   6.888  0.00  0.00    +0.008 A 
ATOM      5  C   LIG    1        3.575  -2.437   8.177  0.00  0.00    +0.001 A 
ATOM      6  C   LIG    1        2.889  -2.985   9.247  0.00  0.00    +0.000 A 
ATOM      7  C   LIG    1        1.759  -3.754   9.033  0.00  0.00    +0.004 A 
ATOM      8  C   LIG    1        1.305  -3.975   7.749  0.00  0.00    -0.036 A 
BRANCH   8   9
ATOM      9  C   LIG    1        0.070  -4.808   7.518  0.00  0.00    +0.070 C 
BRANCH   9  10
ATOM     10  C   LIG    1        0.468  -6.240   7.272  0.00  0.00    -0.042 A 
ATOM     11  C   LIG    1        0.588  -6.705   5.964  0.00  0.00    +0.004 A 
ATOM     12  C   LIG    1        0.945  -7.992   5.707  0.00  0.00    +0.009 A 
ATOM     13  C   LIG    1        1.199  -8.870   6.775  0.00  0.00    -0.018 A 
ATOM     14  C   LIG    1        1.571 -10.206   6.550  0.00  0.00    +0.008 A 
ATOM     15  C   LIG    1        1.809 -11.027   7.609  0.00  0.00    +0.001 A 
ATOM     16  C   LIG    1        1.690 -10.562   8.918  0.00  0.00    +0.001 A 
ATOM     17  C   LIG    1        1.332  -9.275   9.174  0.00  0.00    +0.008 A 
ATOM     18  C   LIG    1        1.078  -8.397   8.106  0.00  0.00    -0.018 A 
ATOM     19  C   LIG    1        0.711  -7.059   8.332  0.00  0.00    +0.012 A 
ENDBRANCH   9  10
ENDBRANCH   8   9
ENDBRANCH   2   3
BRANCH   1  21
ATOM     20  N   LIG    1        2.432  -2.974   1.861  0.00  0.00    -0.091 NA
ATOM     21  C   LIG    1        1.750  -3.430   2.875  0.00  0.00    +0.232 C 
BRANCH  20  22
ATOM     22  S   LIG    1        1.897  -3.239   0.317  0.00  0.00    +0.105 S 
ATOM     23  O   LIG    1        1.979  -4.640   0.093  0.00  0.00    -0.146 OA
ATOM     24  O   LIG    1        0.682  -2.516   0.177  0.00  0.00    -0.146 OA
BRANCH  22  31
ATOM     25  C   LIG    1        3.225  -1.109  -0.768  0.00  0.00    +0.147 A 
ATOM     26  C   LIG    1        4.145  -0.520  -1.623  0.00  0.00    +0.049 A 
ATOM     27  C   LIG    1        4.889  -1.304  -2.482  0.00  0.00    +0.019 A 
ATOM     28  C   LIG    1        4.718  -2.677  -2.490  0.00  0.00    +0.020 A 
ATOM     29 BR   LIG    1        5.739  -3.749  -3.667  0.00  0.00    -0.050 Br
ATOM     30  C   LIG    1        3.801  -3.267  -1.639  0.00  0.00    +0.048 A 
ATOM     31  C   LIG    1        3.059  -2.487  -0.774  0.00  0.00    +0.155 A 
BRANCH  25  33
ATOM     32  C   LIG    1        2.714   1.071   0.029  0.00  0.00    +0.277 C 
ATOM     33  O   LIG    1        2.491  -0.339   0.078  0.00  0.00    -0.493 OA
ENDBRANCH  25  33
ENDBRANCH  22  31
ENDBRANCH  20  22
BRANCH  21  34
ATOM     34  O   LIG    1        0.605  -4.121   2.664  0.00  0.00    -0.492 OA
ATOM     35  H   LIG    1        0.302  -4.271   1.790  0.00  0.00    +0.294 HD
ENDBRANCH  21  34
ENDBRANCH   1  21
TORSDOF 8
