REMARK  Name = ZINC34401307
REMARK                            x       y       z     vdW  Elec       q    Type
REMARK                         _______ _______ _______ _____ _____    ______ ____
ROOT
ATOM      1  C   LIG    1       -0.102  -1.373  -4.600  0.00  0.00    +0.087 A 
ATOM      2  C   LIG    1        0.374  -1.824  -5.825  0.00  0.00    +0.091 A 
ATOM      3  C   LIG    1       -0.599  -1.989  -6.893  0.00  0.00    -0.021 A 
ATOM      4  C   LIG    1       -1.863  -1.675  -6.542  0.00  0.00    -0.004 A 
ATOM      5  C   LIG    1       -3.081  -1.738  -7.413  0.00  0.00    +0.043 C 
ATOM      6  C   LIG    1       -2.623  -1.853  -8.874  0.00  0.00    +0.005 C 
ATOM      7  C   LIG    1       -1.553  -2.944  -8.974  0.00  0.00    +0.005 C 
ATOM      8  C   LIG    1       -0.264  -2.472  -8.297  0.00  0.00    +0.037 C 
ATOM      9  S   LIG    1       -1.752  -1.185  -4.846  0.00  0.00    -0.077 S 
ENDROOT
BRANCH   1  12
ATOM     10  N   LIG    1        0.688  -0.476  -1.203  0.00  0.00    -0.286 N 
ATOM     11  C   LIG    1       -0.013  -0.705  -2.332  0.00  0.00    +0.307 C 
ATOM     12  N   LIG    1        0.618  -1.139  -3.441  0.00  0.00    -0.263 N 
ATOM     13  H   LIG    1        1.576  -1.288  -3.426  0.00  0.00    +0.157 HD
ATOM     14  O   LIG    1       -1.214  -0.518  -2.349  0.00  0.00    -0.252 OA
BRANCH  10  16
ATOM     15  C   LIG    1       -0.019   1.526   0.010  0.00  0.00    +0.024 C 
ATOM     16  C   LIG    1        0.002  -0.004   0.002  0.00  0.00    +0.106 C 
ENDBRANCH  10  16
BRANCH  10  17
ATOM     17  C   LIG    1        2.135  -0.701  -1.182  0.00  0.00    +0.106 C 
ATOM     18  C   LIG    1        2.421  -2.145  -0.763  0.00  0.00    +0.024 C 
ENDBRANCH  10  17
ENDBRANCH   1  12
BRANCH   2  19
ATOM     19  C   LIG    1        1.748  -2.110  -6.025  0.00  0.00    +0.339 C 
ATOM     20  O   LIG    1        2.544  -1.962  -5.106  0.00  0.00    -0.245 OA
BRANCH  19  21
ATOM     21  O   LIG    1        2.138  -2.506  -7.116  0.00  0.00    -0.477 OA
ATOM     22  H   LIG    1        1.529  -2.620  -7.819  0.00  0.00    +0.295 HD
ENDBRANCH  19  21
ENDBRANCH   2  19
TORSDOF 5
