REMARK  Name = ZINC72116552
REMARK                            x       y       z     vdW  Elec       q    Type
REMARK                         _______ _______ _______ _____ _____    ______ ____
ROOT
ATOM      1  C   LIG    1       -1.127  -0.797   0.007  0.00  0.00    +0.132 A 
ATOM      2  C   LIG    1       -2.419  -0.223  -0.038  0.00  0.00    +0.044 A 
ATOM      3  C   LIG    1       -2.612   1.164  -0.088  0.00  0.00    +0.062 A 
ATOM      4  C   LIG    1       -3.880   1.669  -0.130  0.00  0.00    +0.163 A 
ATOM      5  C   LIG    1       -4.992   0.815  -0.123  0.00  0.00    +0.164 A 
ATOM      6  C   LIG    1       -4.829  -0.552  -0.074  0.00  0.00    +0.078 A 
ATOM      7  C   LIG    1       -3.538  -1.091  -0.031  0.00  0.00    +0.080 A 
ATOM      8  N   LIG    1       -3.325  -2.416   0.018  0.00  0.00    -0.235 NA
ATOM      9  C   LIG    1       -2.104  -2.893   0.057  0.00  0.00    +0.223 A 
ATOM     10  N   LIG    1       -1.029  -2.120   0.048  0.00  0.00    -0.220 NA
ENDROOT
BRANCH   1  12
ATOM     11  C   LIG    1        0.591   0.440   1.268  0.00  0.00    +0.130 C 
ATOM     12  N   LIG    1        0.002  -0.004   0.002  0.00  0.00    -0.321 N 
ATOM     13  C   LIG    1        0.612   0.395  -1.269  0.00  0.00    +0.130 C 
ENDBRANCH   1  12
BRANCH   5  14
ATOM     14  O   LIG    1       -6.244   1.341  -0.164  0.00  0.00    -0.491 OA
ATOM     15  C   LIG    1       -7.336   0.420  -0.154  0.00  0.00    +0.277 C 
ENDBRANCH   5  14
BRANCH   4  16
ATOM     16  O   LIG    1       -4.066   3.015  -0.179  0.00  0.00    -0.488 OA
BRANCH  16  17
ATOM     17  C   LIG    1       -2.894   3.832  -0.183  0.00  0.00    +0.235 C 
BRANCH  17  18
ATOM     18  C   LIG    1       -3.300   5.306  -0.241  0.00  0.00    +0.096 C 
BRANCH  18  19
ATOM     19  C   LIG    1       -2.064   6.168  -0.246  0.00  0.00    +0.045 A 
ATOM     20  C   LIG    1       -1.890   7.099  -1.268  0.00  0.00    +0.024 A 
ATOM     21  C   LIG    1       -0.776   7.888  -1.288  0.00  0.00    +0.012 A 
ATOM     22  C   LIG    1        0.170   7.729  -0.258  0.00  0.00    +0.000 A 
ATOM     23  C   LIG    1        1.339   8.506  -0.212  0.00  0.00    +0.010 A 
ATOM     24  C   LIG    1        2.230   8.322   0.801  0.00  0.00    +0.001 A 
ATOM     25  C   LIG    1        1.996   7.373   1.794  0.00  0.00    +0.002 A 
ATOM     26  C   LIG    1        0.874   6.603   1.781  0.00  0.00    +0.028 A 
ATOM     27  C   LIG    1       -0.069   6.764   0.751  0.00  0.00    +0.071 A 
ATOM     28  N   LIG    1       -1.184   6.026   0.715  0.00  0.00    -0.251 NA
ENDBRANCH  18  19
ENDBRANCH  17  18
ENDBRANCH  16  17
ENDBRANCH   4  16
TORSDOF 6
