REMARK  Name = ZINC37381509
REMARK                            x       y       z     vdW  Elec       q    Type
REMARK                         _______ _______ _______ _____ _____    ______ ____
ROOT
ATOM      1  C   LIG    1        3.699  -0.689  -0.037  0.00  0.00    -0.018 A 
ATOM      2  C   LIG    1        4.896   0.024  -0.040  0.00  0.00    +0.009 A 
ATOM      3  C   LIG    1        6.099  -0.652  -0.055  0.00  0.00    +0.004 A 
ATOM      4  C   LIG    1        6.118  -2.035  -0.068  0.00  0.00    -0.046 A 
ATOM      5  C   LIG    1        4.932  -2.748  -0.066  0.00  0.00    +0.004 A 
ATOM      6  C   LIG    1        3.724  -2.082  -0.045  0.00  0.00    +0.009 A 
ENDROOT
BRANCH   1  10
ATOM      7  C   LIG    1       -0.017   1.379   0.010  0.00  0.00    +0.000 A 
ATOM      8  C   LIG    1        1.169   2.092   0.002  0.00  0.00    +0.001 A 
ATOM      9  C   LIG    1        2.377   1.426  -0.013  0.00  0.00    +0.008 A 
ATOM     10  C   LIG    1        2.402   0.033  -0.021  0.00  0.00    -0.018 A 
ATOM     11  C   LIG    1        1.205  -0.680  -0.013  0.00  0.00    +0.008 A 
ATOM     12  C   LIG    1        0.002  -0.004   0.002  0.00  0.00    +0.001 A 
ENDBRANCH   1  10
BRANCH   4  13
ATOM     13  C   LIG    1        7.434  -2.768  -0.085  0.00  0.00    +0.003 C 
ATOM     14  C   LIG    1        7.398  -4.282  -0.305  0.00  0.00    -0.009 C 
ATOM     15  C   LIG    1        7.729  -3.717   1.078  0.00  0.00    -0.067 C 
BRANCH  15  16
ATOM     16  N   LIG    1        9.122  -3.817   1.535  0.00  0.00    +0.380 N 
ATOM     17  H   LIG    1        9.703  -4.138   0.775  0.00  0.00    -0.090 HD
ATOM     18  H   LIG    1        9.178  -4.472   2.301  0.00  0.00    -0.090 HD
ATOM     19  H   LIG    1        9.441  -2.911   1.843  0.00  0.00    -0.090 HD
ENDBRANCH  15  16
ENDBRANCH   4  13
TORSDOF 3
