REMARK  Name = ZINC28370627
REMARK                            x       y       z     vdW  Elec       q    Type
REMARK                         _______ _______ _______ _____ _____    ______ ____
ROOT
ATOM      1  C   LIG    1       -2.938   3.007   1.667  0.00  0.00    +0.196 A 
ATOM      2  N   LIG    1       -3.305   3.202   2.925  0.00  0.00    -0.212 NA
ATOM      3  C   LIG    1       -4.431   3.836   3.214  0.00  0.00    +0.152 A 
ATOM      4  C   LIG    1       -5.235   4.289   2.185  0.00  0.00    +0.102 A 
ATOM      5  C   LIG    1       -4.825   4.064   0.872  0.00  0.00    +0.253 A 
ATOM      6  O   LIG    1       -5.583   4.491  -0.168  0.00  0.00    -0.268 OA
ATOM      7  N   LIG    1       -3.682   3.425   0.653  0.00  0.00    -0.295 N 
ATOM      8  H   LIG    1       -3.354   3.245  -0.381  0.00  0.00    +0.172 HD
ENDROOT
BRANCH   3   9
ATOM      9  C   LIG    1       -4.834   4.057   4.649  0.00  0.00    +0.434 C 
ATOM     10  F   LIG    1       -5.586   5.232   4.747  0.00  0.00    -0.164 F 
ATOM     11  F   LIG    1       -3.688   4.170   5.443  0.00  0.00    -0.164 F 
ATOM     12  F   LIG    1       -5.602   2.974   5.090  0.00  0.00    -0.164 F 
ENDBRANCH   3   9
BRANCH   1  13
ATOM     13  N   LIG    1       -1.752   2.344   1.404  0.00  0.00    -0.311 N 
ATOM     14  H   LIG    1       -1.124   1.991   2.236  0.00  0.00    +0.149 HD
BRANCH  13  15
ATOM     15  C   LIG    1       -1.332   2.114   0.020  0.00  0.00    +0.139 C 
BRANCH  15  22
ATOM     16  C   LIG    1        1.171   2.086   0.002  0.00  0.00    +0.006 A 
ATOM     17  C   LIG    1        2.377   1.412  -0.013  0.00  0.00    +0.020 A 
ATOM     18  C   LIG    1        2.397   0.029  -0.021  0.00  0.00    +0.041 A 
ATOM     19 CL   LIG    1        3.912  -0.818  -0.039  0.00  0.00    -0.084 Cl
ATOM     20  C   LIG    1        1.208  -0.679  -0.013  0.00  0.00    +0.020 A 
ATOM     21  C   LIG    1        0.002  -0.004   0.002  0.00  0.00    +0.006 A 
ATOM     22  C   LIG    1       -0.017   1.378   0.010  0.00  0.00    -0.030 A 
ENDBRANCH  15  22
ENDBRANCH  13  15
ENDBRANCH   1  13
TORSDOF 4
