REMARK  Name = ZINC49021287
REMARK                            x       y       z     vdW  Elec       q    Type
REMARK                         _______ _______ _______ _____ _____    ______ ____
ROOT
ATOM      1  C   LIG    1        0.616   0.959   0.810  0.00  0.00    +0.028 C 
ATOM      2  C   LIG    1        0.337  -0.517   0.520  0.00  0.00    +0.073 C 
ATOM      3  C   LIG    1       -1.176  -0.769   0.516  0.00  0.00    +0.050 C 
ATOM      4  C   LIG    1       -1.432  -2.232   0.156  0.00  0.00    +0.115 C 
ATOM      5  C   LIG    1       -0.610  -3.142   1.030  0.00  0.00    -0.006 A 
ATOM      6  C   LIG    1       -0.997  -4.464   1.173  0.00  0.00    +0.007 A 
ATOM      7  C   LIG    1       -0.262  -5.324   1.965  0.00  0.00    +0.000 A 
ATOM      8  C   LIG    1        0.867  -4.869   2.623  0.00  0.00    +0.002 A 
ATOM      9  C   LIG    1        1.259  -3.553   2.488  0.00  0.00    +0.023 A 
ATOM     10  C   LIG    1        0.520  -2.685   1.691  0.00  0.00    +0.035 A 
ATOM     11  N   LIG    1        0.930  -1.352   1.573  0.00  0.00    -0.322 N 
ENDROOT
BRANCH   4  12
ATOM     12  N   LIG    1       -1.069  -2.457  -1.246  0.00  0.00    -0.264 N 
ATOM     13  C   LIG    1       -1.853  -1.974  -2.230  0.00  0.00    +0.217 C 
ATOM     14  C   LIG    1       -3.049  -1.122  -1.892  0.00  0.00    +0.109 C 
ATOM     15  O   LIG    1       -1.595  -2.224  -3.388  0.00  0.00    -0.276 OA
BRANCH  12  16
ATOM     16  C   LIG    1        0.090  -3.173  -1.562  0.00  0.00    +0.037 A 
ATOM     17  C   LIG    1        0.901  -3.668  -0.549  0.00  0.00    +0.023 A 
ATOM     18  C   LIG    1        2.045  -4.375  -0.864  0.00  0.00    +0.002 A 
ATOM     19  C   LIG    1        2.383  -4.590  -2.188  0.00  0.00    +0.000 A 
ATOM     20  C   LIG    1        1.579  -4.098  -3.199  0.00  0.00    +0.002 A 
ATOM     21  C   LIG    1        0.431  -3.395  -2.890  0.00  0.00    +0.023 A 
ENDBRANCH  12  16
ENDBRANCH   4  12
BRANCH  11  22
ATOM     22  C   LIG    1        1.934  -0.798   2.486  0.00  0.00    +0.140 C 
BRANCH  22  23
ATOM     23  C   LIG    1        3.308  -0.988   1.896  0.00  0.00    -0.030 A 
ATOM     24  C   LIG    1        4.057  -2.099   2.235  0.00  0.00    +0.005 A 
ATOM     25  C   LIG    1        5.318  -2.273   1.695  0.00  0.00    +0.000 A 
ATOM     26  C   LIG    1        5.828  -1.337   0.815  0.00  0.00    +0.000 A 
ATOM     27  C   LIG    1        5.078  -0.227   0.476  0.00  0.00    +0.000 A 
ATOM     28  C   LIG    1        3.816  -0.054   1.013  0.00  0.00    +0.005 A 
ENDBRANCH  22  23
ENDBRANCH  11  22
TORSDOF 4
