REMARK  Name = ZINC28474872
REMARK                            x       y       z     vdW  Elec       q    Type
REMARK                         _______ _______ _______ _____ _____    ______ ____
ROOT
ATOM      1  C   LIG    1        1.970  -2.655  -1.282  0.00  0.00    +0.272 C 
ENDROOT
BRANCH   1   2
ATOM      2  P   LIG    1        1.282  -1.938  -2.811  0.00  0.00    +0.371 P 
ATOM      3  O   LIG    1       -0.192  -2.374  -2.966  0.00  0.00    -0.255 OA
BRANCH   2   4
ATOM      4  O   LIG    1        2.131  -2.458  -4.077  0.00  0.00    -0.322 OA
ATOM      5  H   LIG    1        1.819  -2.116  -4.926  0.00  0.00    +0.220 HD
ENDBRANCH   2   4
BRANCH   2   6
ATOM      6  O   LIG    1        1.358  -0.397  -2.737  0.00  0.00    -0.322 OA
ATOM      7  H   LIG    1        0.847  -0.084  -1.975  0.00  0.00    +0.220 HD
ENDBRANCH   2   6
ENDBRANCH   1   2
BRANCH   1   8
ATOM      8  P   LIG    1        1.880  -4.473  -1.369  0.00  0.00    +0.371 P 
ATOM      9  O   LIG    1        2.566  -5.091  -0.104  0.00  0.00    -0.255 OA
BRANCH   8  10
ATOM     10  O   LIG    1        2.617  -4.972  -2.659  0.00  0.00    -0.322 OA
ATOM     11  H   LIG    1        3.546  -4.695  -2.628  0.00  0.00    +0.220 HD
ENDBRANCH   8  10
BRANCH   8  12
ATOM     12  O   LIG    1        0.379  -4.920  -1.420  0.00  0.00    -0.322 OA
ATOM     13  H   LIG    1       -0.077  -4.611  -0.621  0.00  0.00    +0.220 HD
ENDBRANCH   8  12
ENDBRANCH   1   8
BRANCH   1  14
ATOM     14  O   LIG    1        3.334  -2.252  -1.139  0.00  0.00    -0.367 OA
ATOM     15  H   LIG    1        3.457  -1.294  -1.087  0.00  0.00    +0.212 HD
ENDBRANCH   1  14
BRANCH   1  16
ATOM     16  C   LIG    1        1.164  -2.161  -0.080  0.00  0.00    +0.115 C 
BRANCH  16  21
ATOM     17  C   LIG    1       -0.037   1.412  -0.077  0.00  0.00    +0.003 A 
ATOM     18  C   LIG    1        1.185   2.066  -0.032  0.00  0.00    +0.020 A 
ATOM     19  C   LIG    1        2.347   1.319  -0.003  0.00  0.00    +0.111 A 
ATOM     20  N   LIG    1        2.303   0.001  -0.019  0.00  0.00    -0.260 NA
ATOM     21  C   LIG    1        1.159  -0.654  -0.062  0.00  0.00    +0.045 A 
ATOM     22  C   LIG    1       -0.044   0.026  -0.092  0.00  0.00    +0.023 A 
ENDBRANCH  16  21
ENDBRANCH   1  16
TORSDOF 9
