REMARK  Name = ZINC26575654
REMARK                            x       y       z     vdW  Elec       q    Type
REMARK                         _______ _______ _______ _____ _____    ______ ____
ROOT
ATOM      1  C   LIG    1        1.320  -0.391  -0.066  0.00  0.00    +0.074 A 
ATOM      2  C   LIG    1        2.061   0.777  -0.157  0.00  0.00    +0.097 A 
ATOM      3  N   LIG    1        1.212   1.810  -0.035  0.00  0.00    -0.227 NA
ATOM      4  C   LIG    1       -0.010   1.358   0.127  0.00  0.00    +0.139 A 
ATOM      5  N   LIG    1        0.012  -0.008   0.113  0.00  0.00    -0.337 N 
ATOM      6  H   LIG    1       -0.775  -0.769   0.213  0.00  0.00    +0.167 HD
ENDROOT
BRANCH   1  13
ATOM      7  C   LIG    1        2.959  -2.145   0.593  0.00  0.00    +0.013 A 
ATOM      8  C   LIG    1        3.432  -3.438   0.518  0.00  0.00    +0.039 A 
ATOM      9  C   LIG    1        2.799  -4.365  -0.296  0.00  0.00    +0.123 A 
ATOM     10  F   LIG    1        3.270  -5.629  -0.369  0.00  0.00    -0.205 F 
ATOM     11  C   LIG    1        1.685  -3.999  -1.035  0.00  0.00    +0.039 A 
ATOM     12  C   LIG    1        1.200  -2.710  -0.964  0.00  0.00    +0.013 A 
ATOM     13  C   LIG    1        1.834  -1.772  -0.146  0.00  0.00    +0.001 A 
ENDBRANCH   1  13
BRANCH   4  14
ATOM     14  C   LIG    1       -1.218   2.193   0.291  0.00  0.00    +0.017 A 
ATOM     15  C   LIG    1       -2.470   1.594   0.443  0.00  0.00    +0.012 A 
ATOM     16  C   LIG    1       -3.593   2.379   0.602  0.00  0.00    +0.016 A 
ATOM     17  C   LIG    1       -3.482   3.759   0.598  0.00  0.00    +0.018 A 
ATOM     18 BR   LIG    1       -5.028   4.828   0.807  0.00  0.00    -0.050 Br
ATOM     19  C   LIG    1       -2.245   4.360   0.442  0.00  0.00    +0.016 A 
ATOM     20  C   LIG    1       -1.114   3.585   0.288  0.00  0.00    +0.012 A 
ENDBRANCH   4  14
BRANCH   2  21
ATOM     21  C   LIG    1        3.525   0.868  -0.355  0.00  0.00    +0.005 A 
ATOM     22  C   LIG    1        4.290   1.800   0.357  0.00  0.00    +0.030 A 
ATOM     23  C   LIG    1        5.652   1.848   0.146  0.00  0.00    +0.111 A 
ATOM     24  N   LIG    1        6.232   1.038  -0.720  0.00  0.00    -0.263 NA
ATOM     25  C   LIG    1        5.548   0.150  -1.415  0.00  0.00    +0.111 A 
ATOM     26  C   LIG    1        4.182   0.030  -1.262  0.00  0.00    +0.030 A 
ENDBRANCH   2  21
TORSDOF 3
