REMARK  Name = ZINC49793405
REMARK                            x       y       z     vdW  Elec       q    Type
REMARK                         _______ _______ _______ _____ _____    ______ ____
ROOT
ATOM      1  N   LIG    1        2.260  -4.531  -2.472  0.00  0.00    -0.246 NA
ATOM      2  C   LIG    1        2.865  -4.666  -1.288  0.00  0.00    +0.094 A 
ATOM      3  C   LIG    1        4.253  -4.894  -1.239  0.00  0.00    +0.058 A 
ATOM      4  C   LIG    1        4.872  -5.032  -0.020  0.00  0.00    +0.075 A 
ATOM      5  C   LIG    1        4.077  -4.940   1.210  0.00  0.00    +0.090 A 
ATOM      6  N   LIG    1        4.671  -5.074   2.387  0.00  0.00    -0.243 NA
ATOM      7  C   LIG    1        5.979  -5.291   2.481  0.00  0.00    +0.096 A 
ATOM      8  C   LIG    1        6.596  -5.434   3.808  0.00  0.00    +0.013 A 
ATOM      9  C   LIG    1        5.835  -5.345   4.975  0.00  0.00    +0.011 A 
ATOM     10  C   LIG    1        6.450  -5.485   6.199  0.00  0.00    +0.003 A 
ATOM     11  C   LIG    1        7.818  -5.711   6.283  0.00  0.00    +0.030 A 
ATOM     12  C   LIG    1        8.583  -5.801   5.156  0.00  0.00    +0.126 A 
ATOM     13  C   LIG    1        7.986  -5.664   3.898  0.00  0.00    +0.033 A 
ATOM     14  C   LIG    1        8.775  -5.755   2.670  0.00  0.00    +0.043 A 
ATOM     15  C   LIG    1        8.162  -5.616   1.443  0.00  0.00    +0.052 A 
ATOM     16  C   LIG    1        6.793  -5.389   1.331  0.00  0.00    +0.075 A 
ATOM     17  C   LIG    1        2.684  -4.710   1.115  0.00  0.00    +0.061 A 
ATOM     18  N   LIG    1        6.231  -5.257   0.076  0.00  0.00    -0.306 N 
ATOM     19  C   LIG    1        2.104  -4.573  -0.098  0.00  0.00    +0.144 A 
ENDROOT
BRANCH   1  23
ATOM     20  C   LIG    1       -0.676  -1.670  -2.977  0.00  0.00    +0.000 A 
ATOM     21  C   LIG    1        0.554  -1.309  -2.453  0.00  0.00    +0.002 A 
ATOM     22  C   LIG    1        1.539  -2.257  -2.281  0.00  0.00    +0.028 A 
ATOM     23  C   LIG    1        1.293  -3.589  -2.638  0.00  0.00    +0.065 A 
ATOM     24  C   LIG    1        0.046  -3.945  -3.167  0.00  0.00    +0.028 A 
ATOM     25  C   LIG    1       -0.928  -2.984  -3.332  0.00  0.00    +0.002 A 
ENDBRANCH   1  23
BRANCH  18  26
ATOM     26  C   LIG    1        7.021  -5.350  -1.072  0.00  0.00    +0.047 A 
ATOM     27  C   LIG    1        7.468  -4.197  -1.706  0.00  0.00    +0.026 A 
ATOM     28  C   LIG    1        8.249  -4.293  -2.841  0.00  0.00    +0.002 A 
ATOM     29  C   LIG    1        8.586  -5.535  -3.347  0.00  0.00    +0.000 A 
ATOM     30  C   LIG    1        8.143  -6.685  -2.719  0.00  0.00    +0.002 A 
ATOM     31  C   LIG    1        7.367  -6.597  -1.580  0.00  0.00    +0.026 A 
ENDBRANCH  18  26
BRANCH  12  32
ATOM     32  S   LIG    1       10.317  -6.089   5.285  0.00  0.00    +0.110 S 
ATOM     33  O   LIG    1       10.961  -5.231   4.302  0.00  0.00    -0.142 OA
ATOM     34  O   LIG    1       10.534  -7.499   5.001  0.00  0.00    -0.142 OA
BRANCH  32  35
ATOM     35  O   LIG    1       10.702  -5.742   6.644  0.00  0.00    -0.250 OA
ATOM     36  H   LIG    1       10.254  -6.334   7.268  0.00  0.00    +0.245 HD
ENDBRANCH  32  35
ENDBRANCH  12  32
BRANCH  19  37
ATOM     37  S   LIG    1        0.370  -4.280  -0.201  0.00  0.00    +0.112 S 
ATOM     38  O   LIG    1       -0.189  -4.590   1.106  0.00  0.00    -0.142 OA
ATOM     39  O   LIG    1       -0.147  -5.163  -1.235  0.00  0.00    -0.142 OA
BRANCH  37  40
ATOM     40  O   LIG    1        0.198  -2.878  -0.548  0.00  0.00    -0.250 OA
ATOM     41  H   LIG    1        0.582  -2.712  -1.423  0.00  0.00    +0.245 HD
ENDBRANCH  37  40
ENDBRANCH  19  37
BRANCH  14  42
ATOM     42  N   LIG    1       10.139  -5.981   2.739  0.00  0.00    -0.314 N 
ATOM     43  H   LIG    1       10.754  -5.231   2.756  0.00  0.00    +0.152 HD
BRANCH  42  44
ATOM     44  C   LIG    1       10.628  -7.288   2.786  0.00  0.00    +0.031 A 
ATOM     45  C   LIG    1        9.748  -8.363   2.769  0.00  0.00    +0.023 A 
ATOM     46  C   LIG    1       10.236  -9.654   2.815  0.00  0.00    +0.002 A 
ATOM     47  C   LIG    1       11.599  -9.878   2.879  0.00  0.00    +0.000 A 
ATOM     48  C   LIG    1       12.478  -8.810   2.897  0.00  0.00    +0.002 A 
ATOM     49  C   LIG    1       11.998  -7.517   2.845  0.00  0.00    +0.023 A 
ENDBRANCH  42  44
ENDBRANCH  14  42
TORSDOF 8
