REMARK  Name = ZINC28644284
REMARK                            x       y       z     vdW  Elec       q    Type
REMARK                         _______ _______ _______ _____ _____    ______ ____
ROOT
ATOM      1  C   LIG    1        3.747   8.666  -2.703  0.00  0.00    +0.011 C 
ATOM      2  C   LIG    1        3.409   7.591  -1.669  0.00  0.00    -0.025 C 
ATOM      3  C   LIG    1        3.407   6.152  -2.190  0.00  0.00    +0.011 C 
ATOM      4  C   LIG    1        2.388   7.949  -0.587  0.00  0.00    +0.018 C 
ATOM      5  C   LIG    1        1.699   6.796   0.166  0.00  0.00    +0.113 C 
ATOM      6  N   LIG    1        2.768   5.793   0.383  0.00  0.00    -0.288 N 
ATOM      7  C   LIG    1        2.672   4.452   0.297  0.00  0.00    +0.237 C 
ATOM      8  O   LIG    1        3.624   3.756   0.584  0.00  0.00    -0.274 OA
ATOM      9  C   LIG    1        3.966   6.600   0.710  0.00  0.00    +0.166 C 
ATOM     10  C   LIG    1        3.884   7.820  -0.233  0.00  0.00    +0.030 C 
ENDROOT
BRANCH   9  11
ATOM     11  C   LIG    1        3.924   7.044   2.149  0.00  0.00    +0.234 C 
ATOM     12  N   LIG    1        5.053   7.456   2.761  0.00  0.00    -0.304 N 
ATOM     13  H   LIG    1        6.004   7.468   2.209  0.00  0.00    +0.149 HD
ATOM     14  O   LIG    1        2.875   7.032   2.758  0.00  0.00    -0.274 OA
BRANCH  12  15
ATOM     15  C   LIG    1        5.012   7.888   4.160  0.00  0.00    +0.149 C 
BRANCH  15  16
ATOM     16  C   LIG    1        4.618   9.341   4.226  0.00  0.00    +0.237 C 
ATOM     17  O   LIG    1        4.657  10.023   3.230  0.00  0.00    -0.285 OA
BRANCH  16  18
ATOM     18  C   LIG    1        4.180   9.937   5.520  0.00  0.00    +0.279 C 
ATOM     19  N   LIG    1        3.827  11.236   5.579  0.00  0.00    -0.323 N 
ATOM     20  H   LIG    1        3.863  11.857   4.672  0.00  0.00    +0.145 HD
ATOM     21  H   LIG    1        3.504  11.676   6.534  0.00  0.00    +0.145 HD
ATOM     22  O   LIG    1        4.140   9.251   6.521  0.00  0.00    -0.267 OA
ENDBRANCH  16  18
ENDBRANCH  15  16
BRANCH  15  23
ATOM     23  C   LIG    1        6.394   7.705   4.791  0.00  0.00    +0.034 C 
BRANCH  23  24
ATOM     24  C   LIG    1        6.740   6.215   4.837  0.00  0.00    -0.009 C 
ATOM     25  C   LIG    1        6.231   5.504   6.102  0.00  0.00    +0.003 C 
ATOM     26  C   LIG    1        7.566   4.740   6.113  0.00  0.00    +0.001 C 
ATOM     27  C   LIG    1        8.164   5.929   5.344  0.00  0.00    +0.003 C 
ENDBRANCH  23  24
ENDBRANCH  15  23
ENDBRANCH  12  15
ENDBRANCH   9  11
BRANCH   7  28
ATOM     28  C   LIG    1        1.383   3.816  -0.156  0.00  0.00    +0.166 C 
BRANCH  28  29
ATOM     29  N   LIG    1        0.250   4.588   0.360  0.00  0.00    -0.288 N 
ATOM     30  H   LIG    1        0.368   5.197   1.268  0.00  0.00    +0.151 HD
ATOM     31  C   LIG    1       -0.936   4.551  -0.278  0.00  0.00    +0.301 C 
ATOM     32  N   LIG    1       -1.979   5.261   0.197  0.00  0.00    -0.295 N 
ATOM     33  H   LIG    1       -1.861   5.871   1.105  0.00  0.00    +0.151 HD
ATOM     34  O   LIG    1       -1.068   3.873  -1.279  0.00  0.00    -0.253 OA
BRANCH  32  35
ATOM     35  C   LIG    1       -3.269   5.222  -0.497  0.00  0.00    +0.028 C 
ATOM     36  C   LIG    1       -3.094   5.733  -1.929  0.00  0.00    +0.031 C 
ATOM     37  C   LIG    1       -4.273   6.109   0.242  0.00  0.00    +0.031 C 
ATOM     38  C   LIG    1       -3.786   3.782  -0.529  0.00  0.00    +0.031 C 
ENDBRANCH  32  35
ENDBRANCH  28  29
BRANCH  28  39
ATOM     39  C   LIG    1        1.308   2.382   0.375  0.00  0.00    -0.011 C 
ATOM     40  C   LIG    1        1.507   2.390   1.892  0.00  0.00    +0.013 C 
ATOM     41  C   LIG    1        2.403   1.538  -0.279  0.00  0.00    +0.013 C 
ATOM     42  C   LIG    1       -0.062   1.787   0.043  0.00  0.00    +0.013 C 
ENDBRANCH  28  39
ENDBRANCH   7  28
TORSDOF 10
