REMARK  Name = ZINC43176689
REMARK                            x       y       z     vdW  Elec       q    Type
REMARK                         _______ _______ _______ _____ _____    ______ ____
ROOT
ATOM      1  C   LIG    1       -1.232  -1.040   0.150  0.00  0.00    +0.034 C 
ATOM      2  C   LIG    1       -0.860  -2.391   0.134  0.00  0.00    +0.031 C 
ATOM      3  C   LIG    1       -1.858  -3.342   0.038  0.00  0.00    +0.089 C 
ATOM      4  C   LIG    1       -3.194  -2.934  -0.039  0.00  0.00    +0.139 C 
ATOM      5  N   LIG    1       -4.202  -3.893  -0.130  0.00  0.00    -0.299 NA
ATOM      6  H   LIG    1       -5.124  -3.659   0.062  0.00  0.00    +0.123 HD
ATOM      7  C   LIG    1       -3.846  -5.264  -0.520  0.00  0.00    +0.098 C 
ATOM      8  C   LIG    1       -2.604  -5.686   0.278  0.00  0.00    +0.100 C 
ATOM      9  N   LIG    1       -3.505  -1.647  -0.022  0.00  0.00    -0.299 NA
ATOM     10  H   LIG    1       -4.438  -1.387  -0.078  0.00  0.00    +0.123 HD
ATOM     11  N   LIG    1       -1.538  -4.706   0.016  0.00  0.00    -0.291 NA
ATOM     12  C   LIG    1       -2.583  -0.710   0.074  0.00  0.00    +0.090 C 
ENDROOT
BRANCH   1  18
ATOM     13  C   LIG    1       -0.587   1.365   0.273  0.00  0.00    +0.005 A 
ATOM     14  C   LIG    1        0.367   2.352   0.368  0.00  0.00    +0.013 A 
ATOM     15  C   LIG    1        1.720   2.010   0.443  0.00  0.00    +0.037 A 
ATOM     16  C   LIG    1        2.103   0.666   0.423  0.00  0.00    +0.013 A 
ATOM     17  C   LIG    1        1.147  -0.319   0.328  0.00  0.00    +0.005 A 
ATOM     18  C   LIG    1       -0.204   0.023   0.252  0.00  0.00    -0.043 A 
BRANCH  15  19
ATOM     19  C   LIG    1        2.744   3.069   0.545  0.00  0.00    +0.247 C 
ATOM     20  N   LIG    1        4.044   2.738   0.681  0.00  0.00    -0.296 N 
ATOM     21  C   LIG    1        5.175   3.683   0.684  0.00  0.00    +0.108 C 
ATOM     22  C   LIG    1        6.398   2.839   0.247  0.00  0.00    +0.021 C 
ATOM     23  C   LIG    1        6.104   1.482   0.941  0.00  0.00    +0.022 C 
ATOM     24  C   LIG    1        4.567   1.375   0.859  0.00  0.00    +0.060 C 
ATOM     25  O   LIG    1        2.416   4.239   0.505  0.00  0.00    -0.270 OA
BRANCH  24  26
ATOM     26  C   LIG    1        4.015   0.770   2.150  0.00  0.00    -0.056 C 
BRANCH  26  27
ATOM     27  N   LIG    1        4.388   1.620   3.288  0.00  0.00    +0.381 N 
ATOM     28  H   LIG    1        5.371   1.843   3.249  0.00  0.00    -0.082 HD
ATOM     29  C   LIG    1        3.578   2.865   3.285  0.00  0.00    -0.079 C 
ATOM     30  C   LIG    1        3.658   3.345   4.756  0.00  0.00    -0.020 C 
ATOM     31  C   LIG    1        3.611   2.021   5.554  0.00  0.00    -0.020 C 
ATOM     32  C   LIG    1        4.071   0.937   4.561  0.00  0.00    -0.079 C 
ENDBRANCH  26  27
ENDBRANCH  24  26
ENDBRANCH  15  19
ENDBRANCH   1  18
BRANCH  11  33
ATOM     33  C   LIG    1       -0.169  -5.148  -0.262  0.00  0.00    +0.123 C 
BRANCH  33  34
ATOM     34  C   LIG    1        0.559  -5.377   1.037  0.00  0.00    +0.005 A 
ATOM     35  C   LIG    1        1.468  -4.442   1.494  0.00  0.00    +0.046 A 
ATOM     36  C   LIG    1        2.137  -4.652   2.688  0.00  0.00    +0.124 A 
ATOM     37  F   LIG    1        3.026  -3.738   3.134  0.00  0.00    -0.205 F 
ATOM     38  C   LIG    1        1.894  -5.799   3.425  0.00  0.00    +0.041 A 
ATOM     39  C   LIG    1        0.985  -6.734   2.968  0.00  0.00    +0.041 A 
ATOM     40  C   LIG    1        0.312  -6.521   1.777  0.00  0.00    +0.128 A 
ATOM     41  F   LIG    1       -0.581  -7.433   1.333  0.00  0.00    -0.205 F 
ENDBRANCH  33  34
ENDBRANCH  11  33
TORSDOF 6
