REMARK  Name = ZINC26771662
REMARK                            x       y       z     vdW  Elec       q    Type
REMARK                         _______ _______ _______ _____ _____    ______ ____
ROOT
ATOM      1  N   LIG    1        0.730   8.468   1.022  0.00  0.00    -0.291 N 
ATOM      2  C   LIG    1       -0.474   8.164   1.776  0.00  0.00    +0.203 C 
ATOM      3  C   LIG    1       -1.087   6.867   1.358  0.00  0.00    +0.234 C 
ATOM      4  N   LIG    1       -0.582   6.062   0.421  0.00  0.00    -0.276 N 
ATOM      5  C   LIG    1        0.685   6.324  -0.259  0.00  0.00    +0.167 C 
ATOM      6  C   LIG    1        1.686   5.215   0.097  0.00  0.00    +0.069 C 
ATOM      7  C   LIG    1        0.994   3.881  -0.021  0.00  0.00    -0.015 A 
ATOM      8  C   LIG    1        1.592   2.565  -0.124  0.00  0.00    +0.003 A 
ATOM      9  C   LIG    1        2.920   2.127  -0.148  0.00  0.00    +0.010 A 
ATOM     10  C   LIG    1        3.124   0.774  -0.258  0.00  0.00    +0.001 A 
ATOM     11  C   LIG    1        2.073  -0.125  -0.342  0.00  0.00    +0.002 A 
ATOM     12  C   LIG    1        0.750   0.281  -0.320  0.00  0.00    +0.026 A 
ATOM     13  C   LIG    1        0.512   1.649  -0.208  0.00  0.00    +0.047 A 
ATOM     14  N   LIG    1       -0.642   2.376  -0.152  0.00  0.00    -0.356 N 
ATOM     15  H   LIG    1       -1.616   1.866  -0.194  0.00  0.00    +0.166 HD
ATOM     16  C   LIG    1       -0.345   3.709  -0.046  0.00  0.00    +0.046 A 
ATOM     17  C   LIG    1       -1.335   4.849   0.035  0.00  0.00    +0.154 C 
ATOM     18  O   LIG    1       -2.111   6.521   1.909  0.00  0.00    -0.274 OA
ATOM     19  C   LIG    1        1.257   7.654   0.109  0.00  0.00    +0.237 C 
ATOM     20  O   LIG    1        2.266   8.016  -0.459  0.00  0.00    -0.274 OA
ENDROOT
BRANCH  17  21
ATOM     21  C   LIG    1       -1.990   5.058  -1.305  0.00  0.00    -0.021 A 
ATOM     22  C   LIG    1       -3.369   5.075  -1.405  0.00  0.00    +0.006 A 
ATOM     23  C   LIG    1       -3.970   5.271  -2.634  0.00  0.00    +0.004 A 
ATOM     24  C   LIG    1       -3.193   5.439  -3.765  0.00  0.00    -0.050 A 
ATOM     25  C   LIG    1       -3.849   5.647  -5.106  0.00  0.00    +0.044 C 
ATOM     26  C   LIG    1       -1.815   5.416  -3.666  0.00  0.00    +0.004 A 
ATOM     27  C   LIG    1       -1.213   5.225  -2.436  0.00  0.00    +0.006 A 
ENDBRANCH  17  21
BRANCH   1  28
ATOM     28  C   LIG    1        1.404   9.742   1.282  0.00  0.00    +0.108 C 
BRANCH  28  29
ATOM     29  C   LIG    1        2.438   9.556   2.395  0.00  0.00    +0.019 C 
BRANCH  29  31
ATOM     30  C   LIG    1        4.175  10.700   3.779  0.00  0.00    +0.004 C 
ATOM     31  C   LIG    1        3.141  10.887   2.666  0.00  0.00    -0.002 C 
ENDBRANCH  29  31
ENDBRANCH  28  29
ENDBRANCH   1  28
TORSDOF 4
