REMARK  Name = ZINC27657184
REMARK                            x       y       z     vdW  Elec       q    Type
REMARK                         _______ _______ _______ _____ _____    ______ ____
ROOT
ATOM      1  C   LIG    1       -1.421   3.644   0.114  0.00  0.00    +0.070 C 
ATOM      2  C   LIG    1       -1.216   2.326  -0.157  0.00  0.00    +0.049 C 
ATOM      3  N   LIG    1       -2.282   1.461  -0.267  0.00  0.00    -0.317 N 
ATOM      4  H   LIG    1       -2.153   0.489  -0.767  0.00  0.00    +0.152 HD
ATOM      5  C   LIG    1       -3.503   1.808   0.246  0.00  0.00    +0.014 C 
ATOM      6  C   LIG    1       -4.537   0.739   0.491  0.00  0.00    +0.061 C 
ATOM      7  C   LIG    1       -3.795   3.087   0.530  0.00  0.00    +0.043 C 
ATOM      8  C   LIG    1       -2.807   4.194   0.298  0.00  0.00    +0.096 C 
ENDROOT
BRANCH   8   9
ATOM      9  C   LIG    1       -3.204   4.960  -0.938  0.00  0.00    -0.017 A 
ATOM     10  C   LIG    1       -3.255   4.319  -2.162  0.00  0.00    +0.006 A 
ATOM     11  C   LIG    1       -3.618   5.022  -3.295  0.00  0.00    +0.000 A 
ATOM     12  C   LIG    1       -3.933   6.365  -3.205  0.00  0.00    +0.001 A 
ATOM     13  C   LIG    1       -3.883   7.007  -1.982  0.00  0.00    +0.020 A 
ATOM     14  C   LIG    1       -3.524   6.303  -0.847  0.00  0.00    +0.045 A 
ATOM     15 CL   LIG    1       -3.468   7.106   0.692  0.00  0.00    -0.083 Cl
ENDBRANCH   8   9
BRANCH   2  16
ATOM     16  C   LIG    1        0.159   1.822  -0.341  0.00  0.00    -0.003 A 
ATOM     17  C   LIG    1        0.914   2.234  -1.443  0.00  0.00    +0.012 A 
ATOM     18  C   LIG    1        2.195   1.757  -1.614  0.00  0.00    +0.027 A 
ATOM     19  C   LIG    1        2.736   0.867  -0.692  0.00  0.00    +0.048 A 
ATOM     20  C   LIG    1        1.987   0.455   0.405  0.00  0.00    +0.027 A 
ATOM     21  C   LIG    1        0.706   0.927   0.583  0.00  0.00    +0.012 A 
BRANCH  19  22
ATOM     22  N   LIG    1        4.036   0.385  -0.869  0.00  0.00    -0.296 N 
ATOM     23  C   LIG    1        5.106   0.625  -0.056  0.00  0.00    +0.112 A 
ATOM     24  C   LIG    1        5.069   1.466   1.194  0.00  0.00    +0.086 C 
ATOM     25  N   LIG    1        6.162   0.019  -0.516  0.00  0.00    -0.231 NA
ATOM     26  C   LIG    1        5.847  -0.642  -1.659  0.00  0.00    +0.108 A 
ATOM     27  C   LIG    1        6.562  -1.432  -2.558  0.00  0.00    +0.140 A 
ATOM     28  N   LIG    1        5.961  -1.952  -3.608  0.00  0.00    -0.261 NA
ATOM     29  C   LIG    1        4.678  -1.756  -3.859  0.00  0.00    +0.113 A 
ATOM     30  C   LIG    1        3.895  -0.988  -3.023  0.00  0.00    +0.048 A 
ATOM     31  C   LIG    1        4.478  -0.415  -1.899  0.00  0.00    +0.076 A 
ENDBRANCH  19  22
ENDBRANCH   2  16
BRANCH   7  32
ATOM     32  C   LIG    1       -5.069   3.401   1.063  0.00  0.00    +0.248 C 
ATOM     33  N   LIG    1       -6.154   3.391   0.265  0.00  0.00    -0.267 N 
ATOM     34  H   LIG    1       -6.041   3.215  -0.815  0.00  0.00    +0.157 HD
ATOM     35  O   LIG    1       -5.183   3.681   2.243  0.00  0.00    -0.270 OA
BRANCH  33  36
ATOM     36  C   LIG    1       -7.420   3.603   0.807  0.00  0.00    +0.125 A 
ATOM     37  C   LIG    1       -8.545   3.481  -0.002  0.00  0.00    +0.044 A 
ATOM     38  C   LIG    1       -9.796   3.689   0.551  0.00  0.00    +0.005 A 
ATOM     39  C   LIG    1       -9.879   4.024   1.896  0.00  0.00    +0.020 A 
ATOM     40  C   LIG    1       -8.720   4.134   2.638  0.00  0.00    +0.113 A 
ATOM     41  N   LIG    1       -7.540   3.924   2.085  0.00  0.00    -0.240 NA
ENDBRANCH  33  36
ENDBRANCH   7  32
BRANCH   1  42
ATOM     42  C   LIG    1       -0.316   4.507   0.224  0.00  0.00    +0.338 C 
ATOM     43  O   LIG    1        0.815   4.055   0.190  0.00  0.00    -0.245 OA
BRANCH  42  44
ATOM     44  O   LIG    1       -0.508   5.836   0.367  0.00  0.00    -0.462 OA
BRANCH  44  46
ATOM     45  C   LIG    1        0.245   8.117   0.628  0.00  0.00    +0.048 C 
ATOM     46  C   LIG    1        0.660   6.652   0.473  0.00  0.00    +0.229 C 
ENDBRANCH  44  46
ENDBRANCH  42  44
ENDBRANCH   1  42
TORSDOF 8
