REMARK  Name = ZINC27638621
REMARK                            x       y       z     vdW  Elec       q    Type
REMARK                         _______ _______ _______ _____ _____    ______ ____
ROOT
ATOM      1  C   LIG    1       -0.148  -4.282   2.662  0.00  0.00    +0.164 A 
ATOM      2  N   LIG    1        1.135  -3.981   2.814  0.00  0.00    -0.234 NA
ATOM      3  C   LIG    1        1.903  -4.641   3.644  0.00  0.00    +0.087 A 
ATOM      4  C   LIG    1        1.346  -5.691   4.387  0.00  0.00    +0.047 A 
ATOM      5  S   LIG    1       -0.344  -5.643   3.804  0.00  0.00    -0.062 S 
ENDROOT
BRANCH   1  11
ATOM      6  C   LIG    1       -0.801   1.635   0.626  0.00  0.00    +0.105 C 
ATOM      7  N   LIG    1       -0.656   0.179   0.497  0.00  0.00    -0.302 NA
ATOM      8  C   LIG    1       -1.968  -0.478   0.438  0.00  0.00    +0.103 C 
ATOM      9  C   LIG    1       -1.778  -1.966   0.122  0.00  0.00    +0.123 C 
ATOM     10  N   LIG    1       -0.840  -2.535   1.102  0.00  0.00    -0.293 N 
ATOM     11  C   LIG    1       -1.149  -3.655   1.786  0.00  0.00    +0.272 C 
ATOM     12  O   LIG    1       -2.257  -4.147   1.678  0.00  0.00    -0.268 OA
ATOM     13  C   LIG    1        0.444  -1.850   1.316  0.00  0.00    +0.123 C 
ATOM     14  C   LIG    1        0.166  -0.367   1.585  0.00  0.00    +0.103 C 
ENDBRANCH   1  11
BRANCH   3  15
ATOM     15  C   LIG    1        3.334  -4.284   3.795  0.00  0.00    +0.002 A 
ATOM     16  C   LIG    1        4.299  -5.287   3.880  0.00  0.00    +0.013 A 
ATOM     17  C   LIG    1        5.629  -4.952   4.020  0.00  0.00    +0.046 A 
ATOM     18  C   LIG    1        6.008  -3.618   4.076  0.00  0.00    +0.120 A 
ATOM     19  C   LIG    1        5.050  -2.616   3.992  0.00  0.00    +0.046 A 
ATOM     20  C   LIG    1        3.719  -2.945   3.846  0.00  0.00    +0.013 A 
BRANCH  18  21
ATOM     21  O   LIG    1        7.320  -3.291   4.214  0.00  0.00    -0.495 OA
ATOM     22  C   LIG    1        7.640  -1.899   4.264  0.00  0.00    +0.277 C 
ENDBRANCH  18  21
ENDBRANCH   3  15
BRANCH   4  23
ATOM     23  C   LIG    1        1.976  -6.585   5.377  0.00  0.00    -0.009 A 
ATOM     24  C   LIG    1        2.712  -6.048   6.437  0.00  0.00    +0.012 A 
ATOM     25  C   LIG    1        3.299  -6.886   7.359  0.00  0.00    +0.046 A 
ATOM     26  C   LIG    1        3.161  -8.263   7.237  0.00  0.00    +0.120 A 
ATOM     27  C   LIG    1        2.431  -8.801   6.184  0.00  0.00    +0.046 A 
ATOM     28  C   LIG    1        1.835  -7.970   5.261  0.00  0.00    +0.012 A 
BRANCH  26  29
ATOM     29  O   LIG    1        3.743  -9.086   8.148  0.00  0.00    -0.495 OA
ATOM     30  C   LIG    1        3.561 -10.491   7.962  0.00  0.00    +0.277 C 
ENDBRANCH  26  29
ENDBRANCH   4  23
TORSDOF 5
