REMARK  Name = ZINC28263624
REMARK                            x       y       z     vdW  Elec       q    Type
REMARK                         _______ _______ _______ _____ _____    ______ ____
ROOT
ATOM      1  C   LIG    1       -0.917   4.166   4.926  0.00  0.00    +0.165 C 
ENDROOT
BRANCH   1   2
ATOM      2  N   LIG    1       -0.169   5.421   5.024  0.00  0.00    -0.270 N 
ATOM      3  H   LIG    1        0.418   5.780   4.166  0.00  0.00    +0.153 HD
ATOM      4  C   LIG    1       -0.200   6.137   6.165  0.00  0.00    +0.401 C 
ATOM      5  O   LIG    1       -0.849   5.741   7.114  0.00  0.00    -0.226 OA
BRANCH   4   6
ATOM      6  O   LIG    1        0.488   7.291   6.255  0.00  0.00    -0.446 OA
BRANCH   6   7
ATOM      7  C   LIG    1        0.409   8.009   7.515  0.00  0.00    +0.269 C 
BRANCH   7   8
ATOM      8  C   LIG    1        1.236   9.267   7.429  0.00  0.00    -0.010 A 
ATOM      9  C   LIG    1        2.568   9.244   7.797  0.00  0.00    +0.007 A 
ATOM     10  C   LIG    1        3.327  10.396   7.714  0.00  0.00    +0.000 A 
ATOM     11  C   LIG    1        2.752  11.573   7.271  0.00  0.00    +0.000 A 
ATOM     12  C   LIG    1        1.419  11.597   6.909  0.00  0.00    +0.000 A 
ATOM     13  C   LIG    1        0.660  10.443   6.987  0.00  0.00    +0.007 A 
ENDBRANCH   7   8
ENDBRANCH   6   7
ENDBRANCH   4   6
ENDBRANCH   1   2
BRANCH   1  14
ATOM     14  C   LIG    1       -0.281   3.281   3.885  0.00  0.00    +0.234 C 
ATOM     15  N   LIG    1       -0.804   2.067   3.622  0.00  0.00    -0.304 N 
ATOM     16  H   LIG    1       -1.694   1.722   4.168  0.00  0.00    +0.149 HD
ATOM     17  O   LIG    1        0.701   3.663   3.284  0.00  0.00    -0.274 OA
BRANCH  15  18
ATOM     18  C   LIG    1       -0.185   1.208   2.610  0.00  0.00    +0.152 C 
BRANCH  18  19
ATOM     19  C   LIG    1       -0.718   1.572   1.248  0.00  0.00    +0.184 C 
ATOM     20  O   LIG    1       -1.710   2.253   1.150  0.00  0.00    -0.293 OA
BRANCH  19  21
ATOM     21  C   LIG    1       -0.013   1.086   0.008  0.00  0.00    +0.289 C 
ATOM     22  F   LIG    1       -0.689   1.549  -1.125  0.00  0.00    -0.241 F 
ENDBRANCH  19  21
ENDBRANCH  18  19
BRANCH  18  23
ATOM     23  C   LIG    1       -0.516  -0.256   2.912  0.00  0.00    +0.150 C 
BRANCH  23  24
ATOM     24  C   LIG    1        0.122  -0.655   4.218  0.00  0.00    +0.309 C 
ATOM     25  O   LIG    1        0.774   0.148   4.842  0.00  0.00    -0.251 OA
BRANCH  24  26
ATOM     26  O   LIG    1       -0.035  -1.903   4.687  0.00  0.00    -0.468 OA
ATOM     27  C   LIG    1        0.608  -2.218   5.950  0.00  0.00    +0.280 C 
ENDBRANCH  24  26
ENDBRANCH  23  24
ENDBRANCH  18  23
ENDBRANCH  15  18
ENDBRANCH   1  14
BRANCH   1  29
ATOM     28  C   LIG    1       -3.010   5.362   5.585  0.00  0.00    +0.009 C 
ATOM     29  C   LIG    1       -2.364   4.464   4.527  0.00  0.00    +0.012 C 
ATOM     30  C   LIG    1       -2.383   5.176   3.173  0.00  0.00    +0.009 C 
ENDBRANCH   1  29
TORSDOF 12
