REMARK  Name = ZINC18182210
REMARK                            x       y       z     vdW  Elec       q    Type
REMARK                         _______ _______ _______ _____ _____    ______ ____
ROOT
ATOM      1  C   LIG    1       -0.017   1.375   0.010  0.00  0.00    +0.002 A 
ATOM      2  C   LIG    1        1.170   2.089   0.002  0.00  0.00    +0.002 A 
ATOM      3  C   LIG    1        2.380   1.426  -0.013  0.00  0.00    +0.028 A 
ATOM      4  C   LIG    1        2.412   0.036  -0.021  0.00  0.00    +0.066 A 
ATOM      5  C   LIG    1        1.215  -0.684  -0.014  0.00  0.00    +0.066 A 
ATOM      6  N   LIG    1        1.226  -2.076  -0.022  0.00  0.00    -0.316 N 
ATOM      7  H   LIG    1        0.389  -2.566  -0.017  0.00  0.00    +0.169 HD
ATOM      8  C   LIG    1        2.398  -2.743  -0.036  0.00  0.00    +0.314 A 
ATOM      9  O   LIG    1        2.412  -3.957  -0.042  0.00  0.00    -0.262 OA
ATOM     10  C   LIG    1        3.676  -1.974  -0.043  0.00  0.00    +0.314 A 
ATOM     11  O   LIG    1        4.742  -2.556  -0.055  0.00  0.00    -0.262 OA
ATOM     12  N   LIG    1        3.636  -0.626  -0.036  0.00  0.00    -0.316 N 
ATOM     13  H   LIG    1        4.462  -0.117  -0.042  0.00  0.00    +0.169 HD
ATOM     14  C   LIG    1        0.002  -0.004   0.002  0.00  0.00    +0.028 A 
ENDROOT
TORSDOF 0
