REMARK  Name = ZINC22028288
REMARK                            x       y       z     vdW  Elec       q    Type
REMARK                         _______ _______ _______ _____ _____    ______ ____
ROOT
ATOM      1  C   LIG    1       -0.018   1.465   0.010  0.00  0.00    -0.066 C 
ATOM      2  C   LIG    1        1.418   1.994  -0.001  0.00  0.00    +0.065 C 
ATOM      3  N   LIG    1        2.109   1.503  -1.201  0.00  0.00    -0.305 NA
ATOM      4  C   LIG    1        2.115   0.034  -1.236  0.00  0.00    +0.079 C 
ATOM      5  CA  LIG    1        0.674  -0.480  -1.214  0.00  0.00    +0.053 C 
ATOM      6  N   LIG    1        0.002  -0.004   0.002  0.00  0.00    +0.390 N 
ATOM      7  H1  LIG    1       -0.944  -0.353   0.022  0.00  0.00    -0.085 HD
ATOM      8  H2  LIG    1        0.500  -0.338   0.814  0.00  0.00    -0.085 HD
ENDROOT
BRANCH   5   9
ATOM      9  C   LIG    1        0.677  -1.987  -1.230  0.00  0.00    +0.292 C 
ATOM     10  O   LIG    1        0.336  -2.607  -0.238  0.00  0.00    -0.253 OA
BRANCH   9  11
ATOM     11  OXT LIG    1        1.022  -2.585  -2.235  0.00  0.00    -0.482 OA
ATOM     12  HXT LIG    1        1.284  -2.108  -2.997  0.00  0.00    +0.295 HD
ENDBRANCH   9  11
ENDBRANCH   5   9
BRANCH   3  13
ATOM     13  C   LIG    1        3.475   2.037  -1.277  0.00  0.00    +0.085 C 
BRANCH  13  14
ATOM     14  C   LIG    1        3.420   3.552  -1.483  0.00  0.00    +0.027 C 
BRANCH  14  15
ATOM     15  C   LIG    1        4.843   4.109  -1.563  0.00  0.00    +0.128 C 
BRANCH  15  16
ATOM     16  P   LIG    1        4.777   5.914  -1.808  0.00  0.00    +0.328 P 
ATOM     17  O   LIG    1        3.921   6.233  -3.054  0.00  0.00    -0.259 OA
BRANCH  16  18
ATOM     18  O   LIG    1        6.269   6.481  -2.022  0.00  0.00    -0.324 OA
ATOM     19  H   LIG    1        6.310   7.437  -2.159  0.00  0.00    +0.220 HD
ENDBRANCH  16  18
BRANCH  16  20
ATOM     20  O   LIG    1        4.147   6.580  -0.565  0.00  0.00    -0.324 OA
ATOM     21  H   LIG    1        3.248   6.238  -0.436  0.00  0.00    +0.220 HD
ENDBRANCH  16  20
ENDBRANCH  15  16
ENDBRANCH  14  15
ENDBRANCH  13  14
ENDBRANCH   3  13
TORSDOF 8
