REMARK  Name = ZINC33353700
REMARK                            x       y       z     vdW  Elec       q    Type
REMARK                         _______ _______ _______ _____ _____    ______ ____
ROOT
ATOM      1  C   LIG    1       -2.397  -0.357   0.137  0.00  0.00    +0.203 C 
ATOM      2  C   LIG    1       -3.472  -0.852  -0.791  0.00  0.00    +0.041 C 
ATOM      3  C   LIG    1       -3.989   0.243  -1.412  0.00  0.00    +0.027 C 
ATOM      4  N   LIG    1       -3.380   1.383  -0.990  0.00  0.00    -0.242 N 
ATOM      5  C   LIG    1       -5.101   0.122  -2.434  0.00  0.00    +0.058 C 
ATOM      6  C   LIG    1       -5.007  -1.265  -3.079  0.00  0.00    -0.023 C 
ATOM      7  C   LIG    1       -6.177  -1.455  -4.046  0.00  0.00    +0.011 C 
ATOM      8  C   LIG    1       -3.692  -1.375  -3.853  0.00  0.00    +0.011 C 
ATOM      9  C   LIG    1       -5.055  -2.354  -2.006  0.00  0.00    +0.086 C 
ATOM     10  C   LIG    1       -3.915  -2.161  -1.030  0.00  0.00    +0.163 C 
ATOM     11  O   LIG    1       -3.400  -3.109  -0.472  0.00  0.00    -0.292 OA
ATOM     12  C   LIG    1       -2.420   1.147  -0.074  0.00  0.00    +0.248 C 
ATOM     13  O   LIG    1       -1.717   1.969   0.472  0.00  0.00    -0.273 OA
ENDROOT
BRANCH   1  16
ATOM     14  C   LIG    1       -0.089   1.192  -1.268  0.00  0.00    +0.065 C 
ATOM     15  C   LIG    1       -0.057  -0.258  -0.858  0.00  0.00    +0.040 A 
ATOM     16  C   LIG    1       -1.057  -0.927  -0.249  0.00  0.00    +0.067 A 
ATOM     17  C   LIG    1       -0.628  -2.258  -0.037  0.00  0.00    +0.277 A 
ATOM     18  N   LIG    1        0.625  -2.366  -0.522  0.00  0.00    -0.219 N 
ATOM     19  O   LIG    1       -1.275  -3.146   0.489  0.00  0.00    -0.265 OA
ATOM     20  N   LIG    1        0.989  -1.117  -1.043  0.00  0.00    -0.294 N 
ATOM     21  H   LIG    1        1.836  -0.900  -1.462  0.00  0.00    +0.187 HD
BRANCH  18  22
ATOM     22  C   LIG    1        1.418  -3.518  -0.511  0.00  0.00    +0.067 A 
ATOM     23  C   LIG    1        0.924  -4.698   0.031  0.00  0.00    +0.028 A 
ATOM     24  C   LIG    1        1.710  -5.834   0.039  0.00  0.00    +0.002 A 
ATOM     25  C   LIG    1        2.986  -5.798  -0.491  0.00  0.00    +0.000 A 
ATOM     26  C   LIG    1        3.481  -4.625  -1.031  0.00  0.00    +0.002 A 
ATOM     27  C   LIG    1        2.699  -3.487  -1.048  0.00  0.00    +0.028 A 
ENDBRANCH  18  22
ENDBRANCH   1  16
BRANCH   4  28
ATOM     28  C   LIG    1       -3.713   2.662  -1.457  0.00  0.00    +0.042 A 
ATOM     29  C   LIG    1       -3.451   3.011  -2.776  0.00  0.00    +0.024 A 
ATOM     30  C   LIG    1       -3.780   4.272  -3.233  0.00  0.00    +0.003 A 
ATOM     31  C   LIG    1       -4.369   5.187  -2.380  0.00  0.00    +0.020 A 
ATOM     32  C   LIG    1       -4.630   4.843  -1.065  0.00  0.00    +0.043 A 
ATOM     33 CL   LIG    1       -5.368   5.995   0.003  0.00  0.00    -0.083 Cl
ATOM     34  C   LIG    1       -4.309   3.580  -0.604  0.00  0.00    +0.043 A 
ENDBRANCH   4  28
BRANCH   1  35
ATOM     35  C   LIG    1       -2.732  -0.704   1.589  0.00  0.00    +0.412 C 
ATOM     36  F   LIG    1       -2.786  -2.094   1.736  0.00  0.00    -0.169 F 
ATOM     37  F   LIG    1       -3.971  -0.150   1.927  0.00  0.00    -0.169 F 
ATOM     38  F   LIG    1       -1.743  -0.184   2.432  0.00  0.00    -0.169 F 
ENDBRANCH   1  35
TORSDOF 4
