REMARK  Name = ZINC29327528
REMARK                            x       y       z     vdW  Elec       q    Type
REMARK                         _______ _______ _______ _____ _____    ______ ____
ROOT
ATOM      1  C   LIG    1       -0.883   1.511   8.769  0.00  0.00    +0.023 C 
ATOM      2  C   LIG    1       -0.067   2.498   9.629  0.00  0.00    +0.120 C 
ATOM      3  C   LIG    1        0.949   3.117   8.636  0.00  0.00    +0.063 C 
ATOM      4  C   LIG    1        1.327   1.912   7.739  0.00  0.00    +0.120 C 
ATOM      5  C   LIG    1        0.003   1.138   7.568  0.00  0.00    +0.023 C 
ENDROOT
BRANCH   2   6
ATOM      6  O   LIG    1       -0.918   3.509  10.173  0.00  0.00    -0.391 OA
ATOM      7  H   LIG    1       -0.495   4.298  10.813  0.00  0.00    +0.210 HD
ENDBRANCH   2   6
BRANCH   4   8
ATOM      8  O   LIG    1        1.809   2.364   6.472  0.00  0.00    -0.391 OA
ATOM      9  H   LIG    1        2.123   1.634   5.711  0.00  0.00    +0.210 HD
ENDBRANCH   4   8
BRANCH   1  10
ATOM     10  C   LIG    1       -1.216   0.259   9.583  0.00  0.00    +0.009 C 
BRANCH  10  11
ATOM     11  C   LIG    1       -2.196   0.622  10.700  0.00  0.00    +0.032 C 
BRANCH  11  12
ATOM     12  C   LIG    1       -2.529  -0.630  11.514  0.00  0.00    +0.115 C 
BRANCH  12  13
ATOM     13  O   LIG    1       -1.352  -1.092  12.180  0.00  0.00    -0.392 OA
ATOM     14  H   LIG    1       -0.468  -1.383  11.594  0.00  0.00    +0.210 HD
ENDBRANCH  12  13
BRANCH  12  15
ATOM     15  C   LIG    1       -3.603  -0.293  12.551  0.00  0.00    +0.036 C 
BRANCH  15  16
ATOM     16  C   LIG    1       -4.026  -1.570  13.280  0.00  0.00    +0.037 C 
BRANCH  16  19
ATOM     17  C   LIG    1       -7.389  -0.970  14.886  0.00  0.00    +0.001 A 
ATOM     18  C   LIG    1       -6.419  -1.274  13.949  0.00  0.00    +0.003 A 
ATOM     19  C   LIG    1       -5.083  -1.239  14.301  0.00  0.00    -0.047 A 
ATOM     20  C   LIG    1       -4.717  -0.905  15.592  0.00  0.00    +0.016 A 
ATOM     21  C   LIG    1       -5.686  -0.597  16.528  0.00  0.00    +0.055 A 
ATOM     22  C   LIG    1       -7.023  -0.632  16.175  0.00  0.00    +0.012 A 
BRANCH  21  23
ATOM     23  C   LIG    1       -5.287  -0.229  17.933  0.00  0.00    +0.417 C 
ATOM     24  F   LIG    1       -4.477   0.912  17.904  0.00  0.00    -0.166 F 
ATOM     25  F   LIG    1       -4.580  -1.289  18.510  0.00  0.00    -0.166 F 
ATOM     26  F   LIG    1       -6.434   0.033  18.690  0.00  0.00    -0.166 F 
ENDBRANCH  21  23
ENDBRANCH  16  19
ENDBRANCH  15  16
ENDBRANCH  12  15
ENDBRANCH  11  12
ENDBRANCH  10  11
ENDBRANCH   1  10
BRANCH   5  27
ATOM     27  C   LIG    1       -0.681   1.552   6.263  0.00  0.00    +0.006 C 
BRANCH  27  28
ATOM     28  C   LIG    1       -1.956   0.728   6.072  0.00  0.00    +0.000 C 
BRANCH  28  29
ATOM     29  C   LIG    1       -2.572   1.050   4.709  0.00  0.00    +0.000 C 
BRANCH  29  30
ATOM     30  C   LIG    1       -3.847   0.227   4.518  0.00  0.00    +0.001 C 
BRANCH  30  31
ATOM     31  C   LIG    1       -4.463   0.548   3.155  0.00  0.00    +0.011 C 
BRANCH  31  32
ATOM     32  C   LIG    1       -5.738  -0.276   2.964  0.00  0.00    +0.120 C 
BRANCH  32  33
ATOM     33  C   LIG    1       -6.344   0.042   1.622  0.00  0.00    +0.305 C 
ATOM     34  O   LIG    1       -5.812   0.844   0.893  0.00  0.00    -0.251 OA
BRANCH  33  35
ATOM     35  O   LIG    1       -7.477  -0.568   1.236  0.00  0.00    -0.481 OA
ATOM     36  H   LIG    1       -7.890  -1.190   1.802  0.00  0.00    +0.295 HD
ENDBRANCH  33  35
ENDBRANCH  32  33
ENDBRANCH  31  32
ENDBRANCH  30  31
ENDBRANCH  29  30
ENDBRANCH  28  29
ENDBRANCH  27  28
ENDBRANCH   5  27
TORSDOF 18
