REMARK  Name = ZINC45291807
REMARK                            x       y       z     vdW  Elec       q    Type
REMARK                         _______ _______ _______ _____ _____    ______ ____
ROOT
ATOM      1  C   LIG    1        1.374  -6.396  -0.047  0.00  0.00    +0.139 A 
ATOM      2  N   LIG    1        2.511  -7.155  -0.051  0.00  0.00    -0.338 N 
ATOM      3  C   LIG    1        2.115  -8.479  -0.058  0.00  0.00    +0.067 A 
ATOM      4  C   LIG    1        2.798  -9.686  -0.065  0.00  0.00    +0.028 A 
ATOM      5  C   LIG    1        2.101 -10.879  -0.070  0.00  0.00    +0.003 A 
ATOM      6  C   LIG    1        0.718 -10.888  -0.070  0.00  0.00    +0.015 A 
ATOM      7  C   LIG    1        0.006  -9.691  -0.064  0.00  0.00    +0.064 A 
ATOM      8  C   LIG    1        0.709  -8.465  -0.058  0.00  0.00    +0.102 A 
ATOM      9  H   LIG    1        3.424  -6.826  -0.050  0.00  0.00    +0.167 HD
ATOM     10  N   LIG    1        0.320  -7.178  -0.045  0.00  0.00    -0.227 NA
ENDROOT
BRANCH   1  14
ATOM     11  C   LIG    1        1.267  -2.147  -0.022  0.00  0.00    +0.000 A 
ATOM     12  C   LIG    1        0.076  -2.874  -0.020  0.00  0.00    +0.011 A 
ATOM     13  C   LIG    1        0.110  -4.250  -0.029  0.00  0.00    +0.012 A 
ATOM     14  C   LIG    1        1.337  -4.918  -0.038  0.00  0.00    +0.017 A 
ATOM     15  C   LIG    1        2.528  -4.189  -0.040  0.00  0.00    +0.012 A 
ATOM     16  C   LIG    1        2.492  -2.813  -0.038  0.00  0.00    +0.011 A 
BRANCH  11  21
ATOM     17  C   LIG    1       -0.017   1.380   0.010  0.00  0.00    +0.004 A 
ATOM     18  C   LIG    1        1.194   2.059   0.002  0.00  0.00    +0.020 A 
ATOM     19  C   LIG    1        2.375   1.340  -0.013  0.00  0.00    +0.111 A 
ATOM     20  N   LIG    1        2.365   0.022  -0.020  0.00  0.00    -0.255 NA
ATOM     21  C   LIG    1        1.229  -0.664  -0.013  0.00  0.00    +0.071 A 
ATOM     22  C   LIG    1        0.002  -0.004   0.002  0.00  0.00    +0.028 A 
ENDBRANCH  11  21
ENDBRANCH   1  14
BRANCH   7  23
ATOM     23  C   LIG    1       -1.467  -9.702  -0.064  0.00  0.00    +0.244 C 
ATOM     24  N   LIG    1       -2.132 -10.875  -0.070  0.00  0.00    -0.325 N 
ATOM     25  H   LIG    1       -3.102 -10.883  -0.071  0.00  0.00    +0.145 HD
ATOM     26  H   LIG    1       -1.640 -11.711  -0.075  0.00  0.00    +0.145 HD
ATOM     27  O   LIG    1       -2.084  -8.654  -0.059  0.00  0.00    -0.270 OA
ENDBRANCH   7  23
TORSDOF 3
