REMARK  Name = ZINC27190953
REMARK                            x       y       z     vdW  Elec       q    Type
REMARK                         _______ _______ _______ _____ _____    ______ ____
ROOT
ATOM      1  C   LIG    1        0.037   1.161   2.544  0.00  0.00    +0.176 C 
ATOM      2  C   LIG    1       -0.729   1.579   1.267  0.00  0.00    +0.042 C 
ATOM      3  C   LIG    1       -0.013   1.086   0.008  0.00  0.00    +0.012 C 
ATOM      4  C   LIG    1       -0.666   3.122   1.376  0.00  0.00    +0.130 C 
ATOM      5  C   LIG    1        0.547   3.373   2.246  0.00  0.00    +0.237 C 
ATOM      6  N   LIG    1        0.904   2.301   2.862  0.00  0.00    -0.277 N 
ATOM      7  H   LIG    1        1.774   2.317   3.535  0.00  0.00    +0.304 HD
ENDROOT
BRANCH   5   8
ATOM      8  N   LIG    1        1.181   4.582   2.362  0.00  0.00    -0.254 N 
ATOM      9  H   LIG    1        0.813   5.453   1.800  0.00  0.00    +0.288 HD
ATOM     10  H   LIG    1        2.059   4.682   3.018  0.00  0.00    +0.288 HD
ENDBRANCH   5   8
BRANCH   1  12
ATOM     11  C   LIG    1        1.527  -0.558   3.576  0.00  0.00    +0.008 C 
ATOM     12  C   LIG    1        0.877  -0.089   2.273  0.00  0.00    +0.046 C 
ENDBRANCH   1  12
TORSDOF 2
