REMARK  Name = ZINC18825339
REMARK                            x       y       z     vdW  Elec       q    Type
REMARK                         _______ _______ _______ _____ _____    ______ ____
ROOT
ATOM      1  C   LIG    1        3.561   0.728   0.367  0.00  0.00    +0.047 C 
ATOM      2  C   LIG    1        2.076   0.717   0.110  0.00  0.00    -0.013 A 
ATOM      3  C   LIG    1        1.259   1.819  -0.048  0.00  0.00    +0.044 A 
ATOM      4  N   LIG    1       -0.027   1.369  -0.264  0.00  0.00    -0.358 N 
ATOM      5  C   LIG    1       -0.035   0.026  -0.245  0.00  0.00    +0.026 A 
ATOM      6  C   LIG    1       -1.248  -0.848  -0.443  0.00  0.00    +0.064 C 
ATOM      7  H   LIG    1       -0.844   2.090  -0.416  0.00  0.00    +0.166 HD
ATOM      8  C   LIG    1        1.252  -0.423  -0.015  0.00  0.00    +0.060 A 
ENDROOT
BRANCH   3   9
ATOM      9  C   LIG    1        1.669   3.169   0.003  0.00  0.00    +0.039 C 
ATOM     10  C   LIG    1        0.822   4.128   0.521  0.00  0.00    +0.048 C 
ATOM     11  C   LIG    1        1.016   5.596   0.521  0.00  0.00    +0.011 A 
ATOM     12  C   LIG    1        2.020   6.424   0.030  0.00  0.00    +0.048 A 
ATOM     13  C   LIG    1        1.912   7.794   0.179  0.00  0.00    +0.124 A 
ATOM     14  F   LIG    1        2.887   8.603  -0.290  0.00  0.00    -0.205 F 
ATOM     15  C   LIG    1        0.803   8.338   0.810  0.00  0.00    +0.040 A 
ATOM     16  C   LIG    1       -0.200   7.523   1.294  0.00  0.00    +0.027 A 
ATOM     17  C   LIG    1       -0.108   6.143   1.153  0.00  0.00    +0.042 A 
ATOM     18  N   LIG    1       -0.959   5.114   1.542  0.00  0.00    -0.281 N 
ATOM     19  H   LIG    1       -1.900   5.346   2.062  0.00  0.00    +0.155 HD
ATOM     20  C   LIG    1       -0.465   3.913   1.197  0.00  0.00    +0.249 C 
ATOM     21  O   LIG    1       -0.991   2.835   1.409  0.00  0.00    -0.270 OA
ENDBRANCH   3   9
BRANCH   8  22
ATOM     22  C   LIG    1        1.685  -1.829   0.081  0.00  0.00    +0.246 C 
ATOM     23  N   LIG    1        1.683  -2.454   1.275  0.00  0.00    -0.309 N 
ATOM     24  H   LIG    1        1.359  -1.915   2.178  0.00  0.00    +0.149 HD
ATOM     25  O   LIG    1        2.043  -2.425  -0.917  0.00  0.00    -0.270 OA
BRANCH  23  26
ATOM     26  C   LIG    1        2.112  -3.852   1.371  0.00  0.00    +0.137 C 
BRANCH  26  27
ATOM     27  C   LIG    1        2.015  -4.316   2.825  0.00  0.00    +0.145 C 
BRANCH  27  28
ATOM     28  O   LIG    1        0.646  -4.312   3.236  0.00  0.00    -0.389 OA
ATOM     29  H   LIG    1        0.378  -4.619   4.258  0.00  0.00    +0.210 HD
ENDBRANCH  27  28
BRANCH  27  30
ATOM     30  C   LIG    1        2.580  -5.733   2.947  0.00  0.00    +0.117 C 
BRANCH  30  31
ATOM     31  N   LIG    1        2.487  -6.179   4.344  0.00  0.00    -0.296 NA
ATOM     32  C   LIG    1        3.367  -5.383   5.211  0.00  0.00    +0.112 C 
ATOM     33  C   LIG    1        3.195  -5.840   6.662  0.00  0.00    +0.175 C 
ATOM     34  O   LIG    1        3.469  -7.241   6.751  0.00  0.00    -0.377 OA
ATOM     35  C   LIG    1        2.630  -8.046   5.919  0.00  0.00    +0.175 C 
ATOM     36  C   LIG    1        2.796  -7.611   4.461  0.00  0.00    +0.112 C 
ENDBRANCH  30  31
ENDBRANCH  27  30
ENDBRANCH  26  27
ENDBRANCH  23  26
ENDBRANCH   8  22
TORSDOF 7
