REMARK  Name = ZINC13829457
REMARK                            x       y       z     vdW  Elec       q    Type
REMARK                         _______ _______ _______ _____ _____    ______ ____
ROOT
ATOM      1  C   LIG    1        4.167  -1.529  -2.280  0.00  0.00    +0.167 A 
ATOM      2  N   LIG    1        5.244  -0.769  -2.254  0.00  0.00    -0.206 NA
ATOM      3  C   LIG    1        6.264  -1.044  -1.433  0.00  0.00    +0.184 A 
ATOM      4  C   LIG    1        6.168  -2.176  -0.585  0.00  0.00    +0.147 A 
ATOM      5  N   LIG    1        7.165  -2.475   0.242  0.00  0.00    -0.247 NA
ATOM      6  C   LIG    1        8.238  -1.714   0.267  0.00  0.00    +0.131 A 
ATOM      7  C   LIG    1        8.338  -0.598  -0.566  0.00  0.00    +0.133 A 
ATOM      8  C   LIG    1        4.949  -2.983  -0.657  0.00  0.00    +0.151 A 
ATOM      9  N   LIG    1        7.363  -0.285  -1.392  0.00  0.00    -0.233 NA
ATOM     10  N   LIG    1        4.008  -2.602  -1.509  0.00  0.00    -0.210 NA
ENDROOT
BRANCH   1  15
ATOM     11  C   LIG    1        1.032  -0.488  -4.959  0.00  0.00    +0.023 A 
ATOM     12  C   LIG    1        2.220   0.217  -4.985  0.00  0.00    +0.040 A 
ATOM     13  C   LIG    1        3.244  -0.115  -4.117  0.00  0.00    +0.134 A 
ATOM     14  F   LIG    1        4.405   0.574  -4.143  0.00  0.00    -0.205 F 
ATOM     15  C   LIG    1        3.074  -1.167  -3.213  0.00  0.00    +0.056 A 
ATOM     16  C   LIG    1        1.873  -1.874  -3.193  0.00  0.00    +0.034 A 
ATOM     17  C   LIG    1        0.859  -1.532  -4.065  0.00  0.00    +0.042 A 
ATOM     18 CL   LIG    1       -0.638  -2.411  -4.040  0.00  0.00    -0.084 Cl
ENDBRANCH   1  15
BRANCH   8  19
ATOM     19  N   LIG    1        4.784  -4.098   0.137  0.00  0.00    -0.324 N 
ATOM     20  H   LIG    1        5.514  -4.409   0.695  0.00  0.00    +0.148 HD
BRANCH  19  21
ATOM     21  C   LIG    1        3.568  -4.779   0.138  0.00  0.00    +0.074 C 
ATOM     22  C   LIG    1        2.367  -4.099  -0.064  0.00  0.00    +0.037 C 
ATOM     23  C   LIG    1        1.185  -4.809  -0.055  0.00  0.00    +0.082 C 
ATOM     24  N   LIG    1        1.181  -6.114   0.141  0.00  0.00    -0.316 NA
ATOM     25  H   LIG    1        0.335  -6.588   0.142  0.00  0.00    +0.122 HD
ATOM     26  C   LIG    1        2.296  -6.794   0.335  0.00  0.00    +0.082 C 
ATOM     27  C   LIG    1        3.520  -6.159   0.335  0.00  0.00    +0.037 C 
ENDBRANCH  19  21
ENDBRANCH   8  19
TORSDOF 3
