REMARK  Name = ZINC13782162
REMARK                            x       y       z     vdW  Elec       q    Type
REMARK                         _______ _______ _______ _____ _____    ______ ____
ROOT
ATOM      1  C   LIG    1       -0.803  -0.455   5.817  0.00  0.00    +0.044 C 
ATOM      2  C   LIG    1       -0.023   0.124   4.665  0.00  0.00    -0.047 A 
ATOM      3  C   LIG    1        1.322   0.406   4.813  0.00  0.00    +0.003 A 
ATOM      4  C   LIG    1        2.037   0.937   3.756  0.00  0.00    +0.001 A 
ATOM      5  C   LIG    1        1.408   1.183   2.550  0.00  0.00    +0.004 A 
ATOM      6  C   LIG    1        0.062   0.907   2.404  0.00  0.00    -0.043 A 
ATOM      7  C   LIG    1       -0.653   0.374   3.460  0.00  0.00    -0.044 A 
ATOM      8  C   LIG    1       -2.120   0.067   3.299  0.00  0.00    +0.044 C 
ENDROOT
BRANCH   6   9
ATOM      9  C   LIG    1       -0.625   1.179   1.090  0.00  0.00    +0.002 C 
ATOM     10  C   LIG    1       -0.624   2.686   0.816  0.00  0.00    +0.004 C 
ATOM     11  C   LIG    1       -1.270   2.949  -0.547  0.00  0.00    -0.019 C 
ATOM     12  C   LIG    1       -0.505   2.178  -1.626  0.00  0.00    -0.083 C 
ATOM     13  N   LIG    1       -0.541   0.734  -1.325  0.00  0.00    +0.379 N 
ATOM     14  H   LIG    1       -1.518   0.423  -1.277  0.00  0.00    -0.086 HD
ATOM     15  H   LIG    1       -0.055   0.222  -2.071  0.00  0.00    -0.086 HD
ATOM     16  C   LIG    1        0.121   0.460  -0.036  0.00  0.00    -0.074 C 
ENDBRANCH   6   9
TORSDOF 1
