REMARK  Name = ZINC26577576
REMARK                            x       y       z     vdW  Elec       q    Type
REMARK                         _______ _______ _______ _____ _____    ______ ____
ROOT
ATOM      1  C   LIG    1        0.561  -1.835  -1.453  0.00  0.00    +0.285 C 
ATOM      2  C   LIG    1        1.296  -2.329  -2.507  0.00  0.00    +0.072 C 
ATOM      3  C   LIG    1        1.808  -3.758  -2.510  0.00  0.00    +0.142 C 
ATOM      4  C   LIG    1        2.605  -4.175  -3.733  0.00  0.00    +0.082 C 
ATOM      5  C   LIG    1        2.792  -3.224  -4.728  0.00  0.00    +0.083 C 
ATOM      6  N   LIG    1        2.297  -1.990  -4.628  0.00  0.00    -0.251 NA
ATOM      7  C   LIG    1        1.593  -1.537  -3.619  0.00  0.00    +0.050 C 
ATOM      8  C   LIG    1        1.096  -0.115  -3.656  0.00  0.00    +0.066 C 
ENDROOT
BRANCH   5   9
ATOM      9  C   LIG    1        3.563  -3.592  -5.937  0.00  0.00    +0.001 A 
ATOM     10  C   LIG    1        3.131  -4.639  -6.752  0.00  0.00    +0.010 A 
ATOM     11  C   LIG    1        3.855  -4.977  -7.877  0.00  0.00    +0.001 A 
ATOM     12  C   LIG    1        5.007  -4.280  -8.197  0.00  0.00    +0.000 A 
ATOM     13  C   LIG    1        5.441  -3.242  -7.393  0.00  0.00    +0.001 A 
ATOM     14  C   LIG    1        4.723  -2.890  -6.268  0.00  0.00    +0.010 A 
ENDBRANCH   5   9
BRANCH   1  15
ATOM     15  O   LIG    1        0.175  -2.657  -0.457  0.00  0.00    -0.480 OA
ATOM     16  H   LIG    1       -0.325  -2.320   0.260  0.00  0.00    +0.295 HD
ENDBRANCH   1  15
BRANCH   3  17
ATOM     17  C   LIG    1        2.663  -3.942  -1.325  0.00  0.00    -0.084 C 
ATOM     18  C   LIG    1        3.344  -4.089  -0.381  0.00  0.00    -0.065 C 
BRANCH  18  19
ATOM     19  C   LIG    1        4.175  -4.268   0.772  0.00  0.00    +0.025 A 
ATOM     20  C   LIG    1        4.378  -3.211   1.660  0.00  0.00    +0.017 A 
ATOM     21  C   LIG    1        5.179  -3.390   2.769  0.00  0.00    +0.001 A 
ATOM     22  C   LIG    1        5.781  -4.614   3.001  0.00  0.00    +0.000 A 
ATOM     23  C   LIG    1        5.584  -5.666   2.124  0.00  0.00    +0.001 A 
ATOM     24  C   LIG    1        4.780  -5.501   1.014  0.00  0.00    +0.017 A 
ENDBRANCH  18  19
ENDBRANCH   3  17
BRANCH   4  25
ATOM     25  C   LIG    1        3.132  -5.468  -3.853  0.00  0.00    +0.339 C 
ATOM     26  O   LIG    1        3.858  -5.745  -4.791  0.00  0.00    -0.245 OA
BRANCH  25  27
ATOM     27  O   LIG    1        2.834  -6.407  -2.929  0.00  0.00    -0.457 OA
BRANCH  27  28
ATOM     28  C   LIG    1        3.405  -7.704  -3.114  0.00  0.00    +0.268 C 
BRANCH  28  29
ATOM     29  C   LIG    1        2.965  -8.611  -1.994  0.00  0.00    -0.010 A 
ATOM     30  C   LIG    1        3.715  -8.694  -0.836  0.00  0.00    +0.007 A 
ATOM     31  C   LIG    1        3.311  -9.526   0.191  0.00  0.00    +0.000 A 
ATOM     32  C   LIG    1        2.157 -10.276   0.060  0.00  0.00    +0.000 A 
ATOM     33  C   LIG    1        1.407 -10.193  -1.097  0.00  0.00    +0.000 A 
ATOM     34  C   LIG    1        1.808  -9.357  -2.123  0.00  0.00    +0.007 A 
ENDBRANCH  28  29
ENDBRANCH  27  28
ENDBRANCH  25  27
ENDBRANCH   4  25
BRANCH   1  35
ATOM     35  O   LIG    1        0.228  -0.529  -1.418  0.00  0.00    -0.464 OA
BRANCH  35  37
ATOM     36  C   LIG    1       -0.816   1.413  -0.428  0.00  0.00    +0.048 C 
ATOM     37  C   LIG    1       -0.535  -0.085  -0.294  0.00  0.00    +0.229 C 
ENDBRANCH  35  37
ENDBRANCH   1  35
TORSDOF 10
