REMARK  Name = ZINC26469133
REMARK                            x       y       z     vdW  Elec       q    Type
REMARK                         _______ _______ _______ _____ _____    ______ ____
ROOT
ATOM      1  S   LIG    1        0.025   0.172   2.726  0.00  0.00    +0.075 S 
ATOM      2  O   LIG    1        0.076  -0.809   3.753  0.00  0.00    -0.150 OA
ATOM      3  O   LIG    1       -1.014   1.137   2.644  0.00  0.00    -0.150 OA
ENDROOT
BRANCH   1  11
ATOM      4  C   LIG    1       -0.018   1.503   0.010  0.00  0.00    +0.046 C 
ATOM      5  C   LIG    1        0.002  -0.004   0.002  0.00  0.00    -0.024 A 
ATOM      6  C   LIG    1        0.006  -0.689  -1.199  0.00  0.00    +0.006 A 
ATOM      7  C   LIG    1        0.025  -2.070  -1.207  0.00  0.00    +0.015 A 
ATOM      8  C   LIG    1        0.041  -2.769  -0.013  0.00  0.00    +0.020 A 
ATOM      9 BR   LIG    1        0.066  -4.660  -0.024  0.00  0.00    -0.050 Br
ATOM     10  C   LIG    1        0.037  -2.084   1.188  0.00  0.00    +0.044 A 
ATOM     11  C   LIG    1        0.023  -0.701   1.195  0.00  0.00    +0.113 A 
ENDBRANCH   1  11
BRANCH   1  12
ATOM     12  N   LIG    1        1.449   1.015   2.806  0.00  0.00    -0.183 N 
ATOM     13  H   LIG    1        2.097   0.957   2.068  0.00  0.00    +0.177 HD
BRANCH  12  14
ATOM     14  C   LIG    1        1.726   1.799   3.910  0.00  0.00    +0.240 A 
ATOM     15  C   LIG    1        2.847   2.543   4.103  0.00  0.00    +0.035 A 
ATOM     16  C   LIG    1        4.009   2.658   3.150  0.00  0.00    +0.051 C 
ATOM     17  C   LIG    1        2.734   3.185   5.343  0.00  0.00    +0.085 A 
ATOM     18  C   LIG    1        3.754   4.110   5.956  0.00  0.00    +0.069 C 
ATOM     19  N   LIG    1        1.593   2.842   5.878  0.00  0.00    -0.081 NA
ATOM     20  O   LIG    1        0.933   1.966   4.982  0.00  0.00    -0.338 OA
ENDBRANCH  12  14
ENDBRANCH   1  12
TORSDOF 3
