REMARK  Name = ZINC19791747
REMARK                            x       y       z     vdW  Elec       q    Type
REMARK                         _______ _______ _______ _____ _____    ______ ____
ROOT
ATOM      1  C   LIG    1        1.908  -3.639  -0.105  0.00  0.00    +0.117 C 
ATOM      2  C   LIG    1        2.330  -4.301  -1.213  0.00  0.00    +0.129 C 
ATOM      3 CL   LIG    1        1.821  -4.013  -2.848  0.00  0.00    -0.076 Cl
ATOM      4  C   LIG    1        3.300  -5.306  -0.762  0.00  0.00    +0.271 C 
ATOM      5  N   LIG    1        3.427  -5.219   0.573  0.00  0.00    -0.200 N 
ATOM      6  O   LIG    1        3.892  -6.089  -1.479  0.00  0.00    -0.268 OA
ATOM      7  C   LIG    1        2.632  -4.241   1.045  0.00  0.00    +0.273 C 
ATOM      8  O   LIG    1        2.524  -3.910   2.207  0.00  0.00    -0.268 OA
ENDROOT
BRANCH   5   9
ATOM      9  C   LIG    1        4.268  -6.022   1.357  0.00  0.00    +0.046 A 
ATOM     10  C   LIG    1        4.312  -5.846   2.733  0.00  0.00    +0.025 A 
ATOM     11  C   LIG    1        5.141  -6.638   3.504  0.00  0.00    +0.023 A 
ATOM     12  C   LIG    1        5.926  -7.607   2.905  0.00  0.00    +0.059 A 
ATOM     13 CL   LIG    1        6.967  -8.601   3.876  0.00  0.00    -0.082 Cl
ATOM     14  C   LIG    1        5.884  -7.785   1.532  0.00  0.00    +0.061 A 
ATOM     15 CL   LIG    1        6.870  -9.002   0.785  0.00  0.00    -0.082 Cl
ATOM     16  C   LIG    1        5.052  -6.998   0.758  0.00  0.00    +0.045 A 
ENDBRANCH   5   9
BRANCH   1  21
ATOM     17  C   LIG    1       -1.982  -0.369   1.881  0.00  0.00    +0.105 C 
ATOM     18  N   LIG    1       -0.995  -0.935   0.952  0.00  0.00    -0.302 NA
ATOM     19  C   LIG    1        0.361  -0.849   1.509  0.00  0.00    +0.103 C 
ATOM     20  C   LIG    1        1.375  -1.280   0.443  0.00  0.00    +0.120 C 
ATOM     21  N   LIG    1        0.991  -2.608  -0.057  0.00  0.00    -0.322 N 
ATOM     22  C   LIG    1       -0.395  -2.809  -0.505  0.00  0.00    +0.120 C 
ATOM     23  C   LIG    1       -1.339  -2.319   0.598  0.00  0.00    +0.103 C 
ENDBRANCH   1  21
TORSDOF 2
