REMARK  Name = ZINC28231323
REMARK                            x       y       z     vdW  Elec       q    Type
REMARK                         _______ _______ _______ _____ _____    ______ ____
ROOT
ATOM      1  N   LIG    1        2.450   3.733   0.115  0.00  0.00    -0.327 N 
ATOM      2  C   LIG    1        3.196   3.525   1.364  0.00  0.00    +0.120 C 
ATOM      3  C   LIG    1        4.536   4.259   1.284  0.00  0.00    +0.103 C 
ATOM      4  N   LIG    1        4.294   5.690   1.050  0.00  0.00    -0.294 NA
ATOM      5  C   LIG    1        3.549   5.898  -0.199  0.00  0.00    +0.103 C 
ATOM      6  C   LIG    1        2.208   5.164  -0.118  0.00  0.00    +0.120 C 
ENDROOT
BRANCH   1  10
ATOM      7  C   LIG    1       -1.130   1.597   0.133  0.00  0.00    +0.120 A 
ATOM      8  C   LIG    1        0.073   0.937   0.337  0.00  0.00    +0.047 A 
ATOM      9  C   LIG    1        1.259   1.643   0.329  0.00  0.00    +0.027 A 
ATOM     10  C   LIG    1        1.248   3.016   0.123  0.00  0.00    +0.030 A 
ATOM     11  C   LIG    1        0.043   3.678  -0.075  0.00  0.00    +0.027 A 
ATOM     12  C   LIG    1       -1.143   2.970  -0.067  0.00  0.00    +0.047 A 
BRANCH   7  14
ATOM     13  C   LIG    1       -3.498   1.644  -0.082  0.00  0.00    +0.277 C 
ATOM     14  O   LIG    1       -2.297   0.900   0.134  0.00  0.00    -0.495 OA
ENDBRANCH   7  14
ENDBRANCH   1  10
BRANCH   4  15
ATOM     15  C   LIG    1        5.556   6.442   1.042  0.00  0.00    +0.085 C 
ATOM     16  C   LIG    1        6.419   5.978  -0.133  0.00  0.00    +0.021 C 
ATOM     17  C   LIG    1        7.733   6.762  -0.142  0.00  0.00    +0.002 C 
ATOM     18  C   LIG    1        7.435   8.255  -0.287  0.00  0.00    +0.003 C 
ATOM     19  C   LIG    1        6.572   8.720   0.888  0.00  0.00    +0.033 C 
ATOM     20  C   LIG    1        5.258   7.936   0.897  0.00  0.00    +0.132 C 
BRANCH  20  21
ATOM     21  O   LIG    1        4.452   8.370   1.994  0.00  0.00    -0.390 OA
ATOM     22  H   LIG    1        4.135   9.421   2.063  0.00  0.00    +0.210 HD
ENDBRANCH  20  21
ENDBRANCH   4  15
TORSDOF 4
