REMARK  Name = ZINC00057008
REMARK                            x       y       z     vdW  Elec       q    Type
REMARK                         _______ _______ _______ _____ _____    ______ ____
ROOT
ATOM      1  C   LIG    1        5.050  -1.179   1.147  0.00  0.00    +0.080 A 
ATOM      2  C   LIG    1        4.361  -0.331   2.018  0.00  0.00    +0.045 A 
ATOM      3  C   LIG    1        5.037   0.303   3.038  0.00  0.00    +0.106 A 
ATOM      4  C   LIG    1        6.398   0.103   3.204  0.00  0.00    +0.032 A 
ATOM      5  C   LIG    1        7.091  -0.732   2.350  0.00  0.00    +0.048 A 
ATOM      6  C   LIG    1        6.425  -1.382   1.322  0.00  0.00    +0.132 A 
ENDROOT
BRANCH   1   9
ATOM      7  N   LIG    1        3.009  -1.663  -0.111  0.00  0.00    -0.313 N 
ATOM      8  H   LIG    1        2.529  -1.071   0.489  0.00  0.00    +0.149 HD
ATOM      9  C   LIG    1        4.332  -1.861   0.053  0.00  0.00    +0.248 C 
ATOM     10  O   LIG    1        4.934  -2.602  -0.699  0.00  0.00    -0.270 OA
BRANCH   7  11
ATOM     11  C   LIG    1        2.296  -2.340  -1.197  0.00  0.00    +0.089 C 
BRANCH  11  17
ATOM     12  N   LIG    1        0.690  -0.478  -1.207  0.00  0.00    +0.382 N 
ATOM     13  H   LIG    1        1.606  -0.058  -1.264  0.00  0.00    -0.081 HD
ATOM     14  C   LIG    1       -0.098  -0.111  -2.403  0.00  0.00    -0.078 C 
ATOM     15  C   LIG    1        0.088  -1.300  -3.378  0.00  0.00    -0.020 C 
ATOM     16  C   LIG    1        0.095  -2.507  -2.403  0.00  0.00    -0.016 C 
ATOM     17  C   LIG    1        0.818  -1.946  -1.161  0.00  0.00    -0.051 C 
BRANCH  12  19
ATOM     18  C   LIG    1       -0.019   1.526   0.010  0.00  0.00    -0.017 C 
ATOM     19  C   LIG    1        0.002  -0.004   0.002  0.00  0.00    -0.082 C 
ENDBRANCH  12  19
ENDBRANCH  11  17
ENDBRANCH   7  11
ENDBRANCH   1   9
BRANCH   3  20
ATOM     20  S   LIG    1        4.167   1.373   4.135  0.00  0.00    +0.056 S 
ATOM     21  O   LIG    1        3.012   1.818   3.437  0.00  0.00    -0.153 OA
ATOM     22  O   LIG    1        5.127   2.272   4.672  0.00  0.00    -0.153 OA
BRANCH  20  23
ATOM     23  N   LIG    1        3.628   0.446   5.397  0.00  0.00    -0.204 NA
ATOM     24  H   LIG    1        3.121   0.854   6.116  0.00  0.00    +0.144 HD
ATOM     25  H   LIG    1        3.820  -0.505   5.418  0.00  0.00    +0.144 HD
ENDBRANCH  20  23
ENDBRANCH   3  20
BRANCH   6  26
ATOM     26  O   LIG    1        7.104  -2.207   0.486  0.00  0.00    -0.494 OA
ATOM     27  C   LIG    1        8.503  -2.366   0.725  0.00  0.00    +0.277 C 
ENDBRANCH   6  26
TORSDOF 7
