REMARK  Name = ZINC23360505
REMARK                            x       y       z     vdW  Elec       q    Type
REMARK                         _______ _______ _______ _____ _____    ______ ____
ROOT
ATOM      1  C   LIG    1        3.511  -6.177   2.207  0.00  0.00    +0.131 A 
ATOM      2  C   LIG    1        3.824  -7.529   2.334  0.00  0.00    +0.092 A 
ATOM      3  C   LIG    1        4.751  -7.908   3.299  0.00  0.00    +0.160 A 
ATOM      4  N   LIG    1        5.307  -6.976   4.064  0.00  0.00    -0.205 NA
ATOM      5  C   LIG    1        4.986  -5.695   3.917  0.00  0.00    +0.199 A 
ATOM      6  N   LIG    1        4.109  -5.297   3.003  0.00  0.00    -0.209 NA
ENDROOT
BRANCH   3   7
ATOM      7  N   LIG    1        5.094  -9.252   3.460  0.00  0.00    -0.222 N 
ATOM      8  C   LIG    1        5.977  -9.750   4.365  0.00  0.00    +0.116 A 
ATOM      9  C   LIG    1        6.023 -11.091   4.197  0.00  0.00    +0.041 A 
ATOM     10  C   LIG    1        5.143 -11.426   3.161  0.00  0.00    +0.135 A 
ATOM     11  N   LIG    1        4.583 -10.328   2.723  0.00  0.00    -0.173 NA
ENDBRANCH   3   7
BRANCH   5  12
ATOM     12  C   LIG    1        5.625  -4.689   4.787  0.00  0.00    +0.172 A 
ATOM     13  C   LIG    1        5.396  -3.348   4.759  0.00  0.00    +0.053 A 
ATOM     14  C   LIG    1        6.212  -2.777   5.753  0.00  0.00    +0.042 A 
ATOM     15  C   LIG    1        6.893  -3.785   6.334  0.00  0.00    +0.196 A 
ATOM     16  O   LIG    1        6.532  -4.939   5.752  0.00  0.00    -0.460 OA
ENDBRANCH   5  12
BRANCH   1  18
ATOM     17  C   LIG    1        2.368  -4.437   1.071  0.00  0.00    +0.232 C 
ATOM     18  N   LIG    1        2.588  -5.753   1.256  0.00  0.00    -0.269 N 
ATOM     19  H   LIG    1        2.104  -6.406   0.726  0.00  0.00    +0.156 HD
ATOM     20  O   LIG    1        2.903  -3.624   1.794  0.00  0.00    -0.274 OA
BRANCH  17  21
ATOM     21  C   LIG    1        1.456  -3.974  -0.036  0.00  0.00    +0.180 C 
BRANCH  21  27
ATOM     22  C   LIG    1       -0.012   1.466   0.004  0.00  0.00    -0.096 C 
ATOM     23  N   LIG    1        0.007  -0.003  -0.004  0.00  0.00    +0.379 N 
ATOM     24  H   LIG    1       -0.940  -0.352   0.003  0.00  0.00    -0.082 HD
ATOM     25  C   LIG    1        0.694  -0.478  -1.212  0.00  0.00    -0.064 C 
ATOM     26  C   LIG    1        0.697  -2.008  -1.230  0.00  0.00    +0.066 C 
ATOM     27  N   LIG    1        1.381  -2.507  -0.028  0.00  0.00    -0.298 NA
ATOM     28  C   LIG    1        0.720  -2.019   1.190  0.00  0.00    +0.066 C 
ATOM     29  C   LIG    1        0.716  -0.489   1.188  0.00  0.00    -0.064 C 
ENDBRANCH  21  27
ENDBRANCH  17  21
ENDBRANCH   1  18
TORSDOF 5
