REMARK  Name = ZINC20149026
REMARK                            x       y       z     vdW  Elec       q    Type
REMARK                         _______ _______ _______ _____ _____    ______ ____
ROOT
ATOM      1  C   LIG    1       -0.065  -5.226  -3.223  0.00  0.00    +0.102 A 
ATOM      2  C   LIG    1        0.463  -6.516  -2.970  0.00  0.00    +0.027 A 
ATOM      3  C   LIG    1        0.312  -7.251  -4.108  0.00  0.00    +0.114 A 
ATOM      4  N   LIG    1       -0.280  -6.466  -5.030  0.00  0.00    -0.284 N 
ATOM      5  H   LIG    1       -0.509  -6.729  -5.936  0.00  0.00    +0.188 HD
ATOM      6  N   LIG    1       -0.512  -5.209  -4.459  0.00  0.00    -0.173 NA
ENDROOT
BRANCH   1   9
ATOM      7  C   LIG    1       -0.073  -2.038  -1.399  0.00  0.00    +0.103 A 
ATOM      8  C   LIG    1        0.035  -2.730  -2.573  0.00  0.00    +0.042 A 
ATOM      9  C   LIG    1       -0.111  -4.096  -2.261  0.00  0.00    +0.021 A 
ATOM     10  C   LIG    1       -0.302  -4.190  -0.912  0.00  0.00    +0.093 A 
ATOM     11  N   LIG    1       -0.275  -2.948  -0.386  0.00  0.00    -0.356 N 
ATOM     12  H   LIG    1       -0.381  -2.731   0.553  0.00  0.00    +0.165 HD
BRANCH   7  15
ATOM     13  C   LIG    1       -0.015   1.426   0.135  0.00  0.00    +0.132 C 
ATOM     14  N   LIG    1       -0.005  -0.031  -0.016  0.00  0.00    -0.302 N 
ATOM     15  C   LIG    1        0.015  -0.581  -1.246  0.00  0.00    +0.262 C 
ATOM     16  O   LIG    1        0.107   0.130  -2.229  0.00  0.00    -0.268 OA
ATOM     17  C   LIG    1       -0.016  -0.890   1.171  0.00  0.00    +0.132 C 
ENDBRANCH   7  15
ENDBRANCH   1   9
BRANCH   2  18
ATOM     18  C   LIG    1        1.070  -6.982  -1.698  0.00  0.00    -0.014 A 
ATOM     19  C   LIG    1        2.055  -6.221  -1.073  0.00  0.00    +0.008 A 
ATOM     20  C   LIG    1        2.616  -6.659   0.109  0.00  0.00    +0.001 A 
ATOM     21  C   LIG    1        2.202  -7.851   0.674  0.00  0.00    +0.000 A 
ATOM     22  C   LIG    1        1.224  -8.612   0.058  0.00  0.00    +0.001 A 
ATOM     23  C   LIG    1        0.652  -8.180  -1.122  0.00  0.00    +0.008 A 
ENDBRANCH   2  18
TORSDOF 3
