REMARK  Name = ZINC19360739
REMARK                            x       y       z     vdW  Elec       q    Type
REMARK                         _______ _______ _______ _____ _____    ______ ____
ROOT
ATOM      1  N   LIG    1        4.911  -3.452   1.549  0.00  0.00    +0.384 N 
ATOM      2  H   LIG    1        4.623  -3.100   2.449  0.00  0.00    -0.081 HD
ATOM      3  C   LIG    1        4.010  -4.537   1.137  0.00  0.00    -0.063 C 
ATOM      4  C   LIG    1        4.053  -5.658   2.178  0.00  0.00    +0.067 C 
ATOM      5  N   LIG    1        5.429  -6.160   2.297  0.00  0.00    -0.295 NA
ATOM      6  C   LIG    1        6.347  -5.079   2.685  0.00  0.00    +0.067 C 
ATOM      7  C   LIG    1        6.285  -3.962   1.640  0.00  0.00    -0.063 C 
ENDROOT
BRANCH   1   8
ATOM      8  C   LIG    1        4.856  -2.368   0.559  0.00  0.00    -0.051 C 
BRANCH   8  10
ATOM      9  C   LIG    1        3.324  -0.459   0.740  0.00  0.00    +0.002 C 
ATOM     10  C   LIG    1        3.476  -1.763   0.553  0.00  0.00    -0.045 C 
BRANCH   9  14
ATOM     11  C   LIG    1       -0.565   1.248   0.722  0.00  0.00    +0.000 A 
ATOM     12  C   LIG    1        0.540   2.055   0.923  0.00  0.00    +0.001 A 
ATOM     13  C   LIG    1        1.806   1.507   0.930  0.00  0.00    +0.008 A 
ATOM     14  C   LIG    1        1.970   0.135   0.734  0.00  0.00    -0.025 A 
ATOM     15  C   LIG    1        0.851  -0.673   0.532  0.00  0.00    +0.008 A 
ATOM     16  C   LIG    1       -0.410  -0.112   0.527  0.00  0.00    +0.001 A 
ENDBRANCH   9  14
ENDBRANCH   8  10
ENDBRANCH   1   8
BRANCH   5  17
ATOM     17  C   LIG    1        5.501  -7.277   3.248  0.00  0.00    +0.117 C 
BRANCH  17  18
ATOM     18  C   LIG    1        6.911  -7.808   3.293  0.00  0.00    -0.026 A 
ATOM     19  C   LIG    1        7.613  -8.004   2.118  0.00  0.00    +0.008 A 
ATOM     20  C   LIG    1        8.906  -8.490   2.158  0.00  0.00    +0.038 A 
ATOM     21  C   LIG    1        9.498  -8.782   3.375  0.00  0.00    +0.123 A 
ATOM     22  F   LIG    1       10.762  -9.258   3.415  0.00  0.00    -0.205 F 
ATOM     23  C   LIG    1        8.794  -8.586   4.551  0.00  0.00    +0.038 A 
ATOM     24  C   LIG    1        7.503  -8.094   4.509  0.00  0.00    +0.008 A 
ENDBRANCH  17  18
BRANCH  17  25
ATOM     25  C   LIG    1        4.566  -8.373   2.807  0.00  0.00    -0.026 A 
ATOM     26  C   LIG    1        4.514  -8.743   1.476  0.00  0.00    +0.008 A 
ATOM     27  C   LIG    1        3.657  -9.748   1.070  0.00  0.00    +0.038 A 
ATOM     28  C   LIG    1        2.849 -10.385   1.997  0.00  0.00    +0.123 A 
ATOM     29  F   LIG    1        2.010 -11.367   1.601  0.00  0.00    -0.205 F 
ATOM     30  C   LIG    1        2.901 -10.013   3.330  0.00  0.00    +0.038 A 
ATOM     31  C   LIG    1        3.763  -9.011   3.734  0.00  0.00    +0.008 A 
ENDBRANCH  17  25
ENDBRANCH   5  17
TORSDOF 6
