REMARK  Name = ZINC25605611
REMARK                            x       y       z     vdW  Elec       q    Type
REMARK                         _______ _______ _______ _____ _____    ______ ____
ROOT
ATOM      1  C   LIG    1        1.189   2.650   1.658  0.00  0.00    +0.124 C 
ATOM      2  C   LIG    1        1.215   2.223   0.157  0.00  0.00    +0.154 C 
ATOM      3  C   LIG    1        0.058   1.232   0.005  0.00  0.00    +0.003 C 
ATOM      4  C   LIG    1       -1.055   1.945   0.043  0.00  0.00    +0.003 C 
ATOM      5  C   LIG    1       -0.630   3.404   0.229  0.00  0.00    +0.156 C 
ATOM      6  O   LIG    1        0.644   3.406  -0.499  0.00  0.00    -0.364 OA
ATOM      7  C   LIG    1       -0.132   3.521   1.703  0.00  0.00    +0.145 C 
ENDROOT
BRANCH   1  10
ATOM      8  C   LIG    1        4.001   4.376   3.599  0.00  0.00    +0.131 C 
ATOM      9  N   LIG    1        2.835   3.552   3.269  0.00  0.00    -0.307 N 
ATOM     10  C   LIG    1        2.387   3.497   1.999  0.00  0.00    +0.222 C 
ATOM     11  O   LIG    1        2.949   4.130   1.130  0.00  0.00    -0.275 OA
ATOM     12  C   LIG    1        2.157   2.788   4.318  0.00  0.00    +0.131 C 
ENDBRANCH   1  10
BRANCH   7  13
ATOM     13  C   LIG    1        0.148   4.957   2.065  0.00  0.00    +0.311 C 
ATOM     14  O   LIG    1        0.462   5.747   1.206  0.00  0.00    -0.251 OA
BRANCH  13  15
ATOM     15  O   LIG    1        0.048   5.359   3.342  0.00  0.00    -0.480 OA
ATOM     16  H   LIG    1       -0.196   4.747   4.008  0.00  0.00    +0.295 HD
ENDBRANCH  13  15
ENDBRANCH   7  13
TORSDOF 3
