REMARK  Name = ZINC16957611
REMARK                            x       y       z     vdW  Elec       q    Type
REMARK                         _______ _______ _______ _____ _____    ______ ____
ROOT
ATOM      1  C   LIG    1        1.832   8.008  -0.180  0.00  0.00    +0.067 C 
ATOM      2  C   LIG    1        1.745   6.507  -0.079  0.00  0.00    +0.059 A 
ATOM      3  C   LIG    1        0.518   5.865   0.043  0.00  0.00    +0.083 A 
ATOM      4  S   LIG    1        1.047   4.159   0.118  0.00  0.00    -0.044 S 
ATOM      5  C   LIG    1        2.755   4.445  -0.012  0.00  0.00    +0.195 A 
ATOM      6  N   LIG    1        2.821   5.765  -0.096  0.00  0.00    -0.226 NA
ENDROOT
BRANCH   5   7
ATOM      7  N   LIG    1        3.791   3.523  -0.020  0.00  0.00    -0.207 N 
ATOM      8  C   LIG    1        4.021   2.561   0.926  0.00  0.00    +0.077 A 
ATOM      9  C   LIG    1        5.129   1.865   0.542  0.00  0.00    +0.058 A 
ATOM     10  C   LIG    1        5.589   2.421  -0.665  0.00  0.00    +0.094 A 
ATOM     11  N   LIG    1        4.790   3.413  -0.997  0.00  0.00    -0.164 NA
BRANCH   8  12
ATOM     12  C   LIG    1        3.211   2.316   2.139  0.00  0.00    +0.001 A 
ATOM     13  C   LIG    1        2.412   3.332   2.665  0.00  0.00    +0.010 A 
ATOM     14  C   LIG    1        1.659   3.098   3.797  0.00  0.00    +0.001 A 
ATOM     15  C   LIG    1        1.695   1.858   4.411  0.00  0.00    +0.000 A 
ATOM     16  C   LIG    1        2.485   0.847   3.894  0.00  0.00    +0.001 A 
ATOM     17  C   LIG    1        3.242   1.068   2.763  0.00  0.00    +0.010 A 
ENDBRANCH   8  12
BRANCH  10  18
ATOM     18  C   LIG    1        6.774   1.967  -1.434  0.00  0.00    +0.002 A 
ATOM     19  C   LIG    1        7.544   0.903  -0.968  0.00  0.00    +0.010 A 
ATOM     20  C   LIG    1        8.643   0.481  -1.690  0.00  0.00    +0.001 A 
ATOM     21  C   LIG    1        8.986   1.120  -2.868  0.00  0.00    +0.000 A 
ATOM     22  C   LIG    1        8.228   2.180  -3.332  0.00  0.00    +0.001 A 
ATOM     23  C   LIG    1        7.125   2.606  -2.621  0.00  0.00    +0.010 A 
ENDBRANCH  10  18
ENDBRANCH   5   7
BRANCH   3  24
ATOM     24  C   LIG    1       -0.833   6.429   0.095  0.00  0.00    +0.194 C 
ATOM     25  O   LIG    1       -0.992   7.636   0.028  0.00  0.00    -0.287 OA
BRANCH  24  26
ATOM     26  C   LIG    1       -1.992   5.543   0.227  0.00  0.00    +0.052 C 
ATOM     27  C   LIG    1       -3.236   6.063   0.275  0.00  0.00    +0.012 C 
BRANCH  27  28
ATOM     28  C   LIG    1       -4.400   5.173   0.408  0.00  0.00    -0.025 A 
ATOM     29  C   LIG    1       -4.221   3.788   0.479  0.00  0.00    +0.009 A 
ATOM     30  C   LIG    1       -5.316   2.961   0.608  0.00  0.00    +0.020 A 
ATOM     31  C   LIG    1       -6.593   3.498   0.657  0.00  0.00    +0.041 A 
ATOM     32 CL   LIG    1       -7.966   2.448   0.813  0.00  0.00    -0.084 Cl
ATOM     33  C   LIG    1       -6.778   4.869   0.582  0.00  0.00    +0.020 A 
ATOM     34  C   LIG    1       -5.691   5.709   0.458  0.00  0.00    +0.009 A 
ENDBRANCH  27  28
ENDBRANCH  24  26
ENDBRANCH   3  24
TORSDOF 6
