REMARK  Name = ZINC58604152
REMARK                            x       y       z     vdW  Elec       q    Type
REMARK                         _______ _______ _______ _____ _____    ______ ____
ROOT
ATOM      1  C   LIG    1        0.001  -0.332  -2.545  0.00  0.00    -0.038 C 
ENDROOT
BRANCH   1   4
ATOM      2  C   LIG    1        0.019   1.493   0.043  0.00  0.00    +0.068 C 
ATOM      3  C   LIG    1        0.032  -0.014   0.025  0.00  0.00    +0.063 A 
ATOM      4  C   LIG    1        0.025  -0.819  -1.119  0.00  0.00    -0.004 A 
ATOM      5  C   LIG    1        0.041  -2.113  -0.719  0.00  0.00    +0.134 A 
ATOM      6 CL   LIG    1        0.040  -3.506  -1.754  0.00  0.00    -0.062 Cl
ATOM      7  N   LIG    1        0.059  -2.123   0.639  0.00  0.00    -0.221 N 
ATOM      8  N   LIG    1        0.059  -0.792   1.077  0.00  0.00    -0.170 NA
BRANCH   7   9
ATOM      9  C   LIG    1        0.080  -3.261   1.456  0.00  0.00    +0.067 A 
ATOM     10  C   LIG    1       -0.600  -4.408   1.069  0.00  0.00    +0.028 A 
ATOM     11  C   LIG    1       -0.577  -5.529   1.877  0.00  0.00    +0.002 A 
ATOM     12  C   LIG    1        0.121  -5.508   3.070  0.00  0.00    +0.000 A 
ATOM     13  C   LIG    1        0.798  -4.367   3.459  0.00  0.00    +0.002 A 
ATOM     14  C   LIG    1        0.785  -3.246   2.652  0.00  0.00    +0.028 A 
ENDBRANCH   7   9
ENDBRANCH   1   4
BRANCH   1  15
ATOM     15  N   LIG    1        1.378  -0.161  -3.027  0.00  0.00    +0.384 N 
ATOM     16  H   LIG    1        1.885  -1.025  -2.907  0.00  0.00    -0.081 HD
ATOM     17  C   LIG    1        2.037   0.900  -2.255  0.00  0.00    -0.059 C 
ATOM     18  C   LIG    1        3.506   1.001  -2.678  0.00  0.00    +0.086 C 
ATOM     19  N   LIG    1        3.559   1.189  -4.136  0.00  0.00    -0.333 N 
ATOM     20  C   LIG    1        2.790   0.264  -4.983  0.00  0.00    +0.086 C 
ATOM     21  C   LIG    1        1.355   0.197  -4.451  0.00  0.00    -0.059 C 
BRANCH  19  22
ATOM     22  C   LIG    1        4.319   2.218  -4.701  0.00  0.00    +0.030 A 
ATOM     23  C   LIG    1        4.948   3.148  -3.883  0.00  0.00    +0.026 A 
ATOM     24  C   LIG    1        5.699   4.163  -4.443  0.00  0.00    +0.040 A 
ATOM     25  C   LIG    1        5.825   4.253  -5.819  0.00  0.00    +0.124 A 
ATOM     26  F   LIG    1        6.560   5.247  -6.365  0.00  0.00    -0.205 F 
ATOM     27  C   LIG    1        5.200   3.327  -6.636  0.00  0.00    +0.040 A 
ATOM     28  C   LIG    1        4.452   2.307  -6.080  0.00  0.00    +0.026 A 
ENDBRANCH  19  22
ENDBRANCH   1  15
TORSDOF 4
