REMARK  Name = ZINC29038894
REMARK                            x       y       z     vdW  Elec       q    Type
REMARK                         _______ _______ _______ _____ _____    ______ ____
ROOT
ATOM      1  N   LIG    1       -1.107   2.844  -0.353  0.00  0.00    -0.269 N 
ATOM      2  H   LIG    1       -0.721   1.832  -0.550  0.00  0.00    +0.156 HD
ATOM      3  C   LIG    1       -0.365   3.723   0.349  0.00  0.00    +0.308 C 
ATOM      4  N   LIG    1        0.891   3.401   0.719  0.00  0.00    -0.269 N 
ATOM      5  H   LIG    1        1.340   2.457   0.377  0.00  0.00    +0.156 HD
ATOM      6  O   LIG    1       -0.828   4.807   0.648  0.00  0.00    -0.252 OA
ENDROOT
BRANCH   1  10
ATOM      7  C   LIG    1       -4.861   3.955  -1.777  0.00  0.00    +0.088 A 
ATOM      8  C   LIG    1       -3.850   4.894  -1.690  0.00  0.00    +0.029 A 
ATOM      9  C   LIG    1       -2.604   4.529  -1.219  0.00  0.00    +0.025 A 
ATOM     10  C   LIG    1       -2.368   3.217  -0.831  0.00  0.00    +0.035 A 
ATOM     11  C   LIG    1       -3.384   2.275  -0.925  0.00  0.00    +0.025 A 
ATOM     12  C   LIG    1       -4.628   2.647  -1.392  0.00  0.00    +0.029 A 
BRANCH   7  14
ATOM     13  C   LIG    1       -6.366   4.159  -4.171  0.00  0.00    +0.200 C 
ATOM     14  S   LIG    1       -6.449   4.425  -2.378  0.00  0.00    -0.006 S 
ATOM     15  O   LIG    1       -6.548   5.814  -2.094  0.00  0.00    -0.170 OA
ATOM     16  O   LIG    1       -7.350   3.499  -1.787  0.00  0.00    -0.170 OA
ENDBRANCH   7  14
ENDBRANCH   1  10
BRANCH   4  17
ATOM     17  C   LIG    1        1.622   4.267   1.539  0.00  0.00    +0.035 A 
ATOM     18  C   LIG    1        3.001   4.361   1.398  0.00  0.00    +0.023 A 
ATOM     19  C   LIG    1        3.719   5.220   2.205  0.00  0.00    +0.002 A 
ATOM     20  C   LIG    1        3.069   5.980   3.160  0.00  0.00    +0.000 A 
ATOM     21  C   LIG    1        1.697   5.886   3.306  0.00  0.00    +0.002 A 
ATOM     22  C   LIG    1        0.972   5.032   2.499  0.00  0.00    +0.023 A 
ENDBRANCH   4  17
TORSDOF 3
