REMARK  Name = ZINC38415864
REMARK                            x       y       z     vdW  Elec       q    Type
REMARK                         _______ _______ _______ _____ _____    ______ ____
ROOT
ATOM      1  C   LIG    1        0.553  -0.197  -1.360  0.00  0.00    +0.043 C 
ENDROOT
BRANCH   1   2
ATOM      2  C   LIG    1        2.000   0.198  -1.215  0.00  0.00    +0.150 A 
ATOM      3  N   LIG    1        2.865  -0.279  -0.333  0.00  0.00    -0.113 NA
ATOM      4  N   LIG    1        3.994   0.309  -0.536  0.00  0.00    -0.023 NA
ATOM      5  N   LIG    1        3.863   1.143  -1.509  0.00  0.00    -0.047 NA
ATOM      6  N   LIG    1        2.650   1.095  -1.943  0.00  0.00    -0.243 N 
ATOM      7  H   LIG    1        2.275   1.627  -2.681  0.00  0.00    +0.192 HD
ENDBRANCH   1   2
BRANCH   1   9
ATOM      8  C   LIG    1       -0.011   1.569   0.315  0.00  0.00    +0.008 C 
ATOM      9  C   LIG    1       -0.189   0.095  -0.054  0.00  0.00    -0.009 C 
ATOM     10  C   LIG    1       -1.677  -0.209  -0.233  0.00  0.00    +0.008 C 
ENDBRANCH   1   9
BRANCH   1  11
ATOM     11  C   LIG    1        0.462  -1.692  -1.674  0.00  0.00    -0.075 C 
BRANCH  11  12
ATOM     12  N   LIG    1        1.057  -1.952  -2.992  0.00  0.00    +0.379 N 
ATOM     13  H   LIG    1        1.034  -2.943  -3.181  0.00  0.00    -0.090 HD
ATOM     14  H   LIG    1        2.013  -1.631  -2.999  0.00  0.00    -0.090 HD
ATOM     15  H   LIG    1        0.532  -1.462  -3.701  0.00  0.00    -0.090 HD
ENDBRANCH  11  12
ENDBRANCH   1  11
TORSDOF 4
