REMARK  Name = ZINC16052815
REMARK                            x       y       z     vdW  Elec       q    Type
REMARK                         _______ _______ _______ _____ _____    ______ ____
ROOT
ATOM      1  C   LIG    1       -0.013   1.076   0.008  0.00  0.00    +0.025 A 
ATOM      2  C   LIG    1        1.188   1.793   0.000  0.00  0.00    -0.009 A 
ATOM      3  C   LIG    1        1.160   3.192   0.008  0.00  0.00    +0.040 A 
ATOM      4 BR   LIG    1        2.776   4.174  -0.002  0.00  0.00    -0.049 Br
ATOM      5  C   LIG    1       -0.052   3.854   0.022  0.00  0.00    +0.047 A 
ATOM      6 BR   LIG    1       -0.094   5.745   0.032  0.00  0.00    -0.048 Br
ATOM      7  C   LIG    1       -1.236   3.137   0.030  0.00  0.00    +0.047 A 
ATOM      8 BR   LIG    1       -2.891   4.052   0.050  0.00  0.00    -0.048 Br
ATOM      9  C   LIG    1       -1.215   1.750   0.017  0.00  0.00    +0.034 A 
ATOM     10 BR   LIG    1       -2.840   0.782   0.020  0.00  0.00    -0.049 Br
ENDROOT
BRANCH   2  11
ATOM     11  C   LIG    1        2.475   1.081  -0.016  0.00  0.00    +0.016 C 
ATOM     12  C   LIG    1        2.499  -0.269  -0.023  0.00  0.00    +0.092 C 
BRANCH  12  13
ATOM     13  C   LIG    1        3.777  -0.977  -0.039  0.00  0.00    +0.330 C 
ATOM     14  O   LIG    1        4.820  -0.351  -0.046  0.00  0.00    -0.246 OA
BRANCH  13  15
ATOM     15  O   LIG    1        3.801  -2.326  -0.047  0.00  0.00    -0.478 OA
ATOM     16  H   LIG    1        2.998  -2.809  -0.042  0.00  0.00    +0.295 HD
ENDBRANCH  13  15
ENDBRANCH  12  13
ENDBRANCH   2  11
TORSDOF 3
