REMARK  Name = ZINC26577908
REMARK                            x       y       z     vdW  Elec       q    Type
REMARK                         _______ _______ _______ _____ _____    ______ ____
ROOT
ATOM      1  C   LIG    1       -1.505  -2.014   0.671  0.00  0.00    +0.285 C 
ATOM      2  C   LIG    1       -2.766  -2.472   0.360  0.00  0.00    +0.072 C 
ATOM      3  C   LIG    1       -2.983  -3.865  -0.202  0.00  0.00    +0.142 C 
ATOM      4  C   LIG    1       -4.422  -4.243  -0.501  0.00  0.00    +0.082 C 
ATOM      5  C   LIG    1       -5.400  -3.293  -0.239  0.00  0.00    +0.083 C 
ATOM      6  N   LIG    1       -5.102  -2.092   0.257  0.00  0.00    -0.251 NA
ATOM      7  C   LIG    1       -3.895  -1.674   0.554  0.00  0.00    +0.050 C 
ATOM      8  C   LIG    1       -3.721  -0.286   1.116  0.00  0.00    +0.066 C 
ENDROOT
BRANCH   5   9
ATOM      9  C   LIG    1       -6.816  -3.624  -0.518  0.00  0.00    +0.001 A 
ATOM     10  C   LIG    1       -7.459  -4.622   0.214  0.00  0.00    +0.010 A 
ATOM     11  C   LIG    1       -8.779  -4.926  -0.051  0.00  0.00    +0.001 A 
ATOM     12  C   LIG    1       -9.464  -4.242  -1.040  0.00  0.00    +0.000 A 
ATOM     13  C   LIG    1       -8.831  -3.251  -1.769  0.00  0.00    +0.001 A 
ATOM     14  C   LIG    1       -7.514  -2.934  -1.510  0.00  0.00    +0.010 A 
ENDBRANCH   5   9
BRANCH   1  15
ATOM     15  O   LIG    1       -0.444  -2.838   0.562  0.00  0.00    -0.480 OA
ATOM     16  H   LIG    1        0.414  -2.527   0.774  0.00  0.00    +0.295 HD
ENDBRANCH   1  15
BRANCH   3  17
ATOM     17  C   LIG    1       -2.448  -4.838   0.765  0.00  0.00    -0.084 C 
ATOM     18  C   LIG    1       -2.021  -5.614   1.535  0.00  0.00    -0.065 C 
BRANCH  18  19
ATOM     19  C   LIG    1       -1.500  -6.561   2.475  0.00  0.00    +0.025 A 
ATOM     20  C   LIG    1       -0.925  -6.120   3.668  0.00  0.00    +0.017 A 
ATOM     21  C   LIG    1       -0.426  -7.038   4.570  0.00  0.00    +0.001 A 
ATOM     22  C   LIG    1       -0.495  -8.392   4.293  0.00  0.00    +0.000 A 
ATOM     23  C   LIG    1       -1.064  -8.835   3.113  0.00  0.00    +0.001 A 
ATOM     24  C   LIG    1       -1.571  -7.928   2.205  0.00  0.00    +0.017 A 
ENDBRANCH  18  19
ENDBRANCH   3  17
BRANCH   4  25
ATOM     25  C   LIG    1       -4.751  -5.502  -1.023  0.00  0.00    +0.339 C 
ATOM     26  O   LIG    1       -5.917  -5.790  -1.230  0.00  0.00    -0.245 OA
BRANCH  25  27
ATOM     27  O   LIG    1       -3.775  -6.396  -1.296  0.00  0.00    -0.457 OA
BRANCH  27  28
ATOM     28  C   LIG    1       -4.183  -7.659  -1.825  0.00  0.00    +0.268 C 
BRANCH  28  29
ATOM     29  C   LIG    1       -2.968  -8.518  -2.066  0.00  0.00    -0.008 A 
ATOM     30  C   LIG    1       -2.318  -8.471  -3.285  0.00  0.00    +0.007 A 
ATOM     31  C   LIG    1       -1.204  -9.259  -3.505  0.00  0.00    +0.003 A 
ATOM     32  C   LIG    1       -0.740 -10.094  -2.506  0.00  0.00    +0.032 A 
ATOM     33  C   LIG    1       -1.389 -10.141  -1.287  0.00  0.00    +0.122 A 
ATOM     34  C   LIG    1       -2.501  -9.349  -1.065  0.00  0.00    +0.039 A 
BRANCH  33  35
ATOM     35  N   LIG    1       -0.892 -11.035  -0.217  0.00  0.00    +0.006 N 
ATOM     36  O   LIG    1        0.082 -11.725  -0.410  0.00  0.00    -0.130 OA
BRANCH  35  37
ATOM     37  O   LIG    1       -1.460 -11.076   0.849  0.00  0.00    -0.396 OA
ATOM     38  H   LIG    1       -2.215 -10.541   0.999  0.00  0.00    +0.329 HD
ENDBRANCH  35  37
ENDBRANCH  33  35
ENDBRANCH  28  29
ENDBRANCH  27  28
ENDBRANCH  25  27
ENDBRANCH   4  25
BRANCH   1  39
ATOM     39  O   LIG    1       -1.333  -0.743   1.084  0.00  0.00    -0.464 OA
BRANCH  39  41
ATOM     40  C   LIG    1       -0.000   1.127   1.838  0.00  0.00    +0.048 C 
ATOM     41  C   LIG    1        0.003  -0.336   1.390  0.00  0.00    +0.229 C 
ENDBRANCH  39  41
ENDBRANCH   1  39
TORSDOF 12
