REMARK  Name = ZINC13805319
REMARK                            x       y       z     vdW  Elec       q    Type
REMARK                         _______ _______ _______ _____ _____    ______ ____
ROOT
ATOM      1  C   LIG    1        2.915   0.810  -1.442  0.00  0.00    -0.043 A 
ATOM      2  C   LIG    1        2.529  -0.347  -2.094  0.00  0.00    +0.007 A 
ATOM      3  C   LIG    1        2.913  -0.565  -3.403  0.00  0.00    +0.046 A 
ATOM      4  C   LIG    1        3.694   0.374  -4.061  0.00  0.00    +0.120 A 
ATOM      5  C   LIG    1        4.085   1.532  -3.403  0.00  0.00    +0.046 A 
ATOM      6  C   LIG    1        3.694   1.747  -2.095  0.00  0.00    +0.007 A 
ENDROOT
BRANCH   1   7
ATOM      7  C   LIG    1        2.490   1.048  -0.016  0.00  0.00    +0.070 C 
BRANCH   7  11
ATOM      8  C   LIG    1       -1.238   3.133   0.030  0.00  0.00    +0.000 A 
ATOM      9  C   LIG    1       -1.219   1.751   0.017  0.00  0.00    +0.000 A 
ATOM     10  C   LIG    1       -0.013   1.076   0.008  0.00  0.00    +0.004 A 
ATOM     11  C   LIG    1        1.175   1.783   0.000  0.00  0.00    -0.043 A 
ATOM     12  C   LIG    1        1.156   3.165   0.008  0.00  0.00    +0.004 A 
ATOM     13  C   LIG    1       -0.050   3.840   0.022  0.00  0.00    +0.000 A 
ENDBRANCH   7  11
ENDBRANCH   1   7
BRANCH   4  14
ATOM     14  O   LIG    1        4.077   0.160  -5.347  0.00  0.00    -0.494 OA
BRANCH  14  15
ATOM     15  C   LIG    1        3.639  -1.054  -5.961  0.00  0.00    +0.209 C 
BRANCH  15  16
ATOM     16  C   LIG    1        4.164  -1.118  -7.396  0.00  0.00    -0.045 C 
BRANCH  16  17
ATOM     17  N   LIG    1        5.634  -1.222  -7.366  0.00  0.00    +0.380 N 
ATOM     18  H   LIG    1        5.901  -2.087  -6.883  0.00  0.00    -0.090 HD
ATOM     19  H   LIG    1        6.030  -0.427  -6.866  0.00  0.00    -0.090 HD
ATOM     20  H   LIG    1        6.002  -1.243  -8.315  0.00  0.00    -0.090 HD
ENDBRANCH  16  17
ENDBRANCH  15  16
ENDBRANCH  14  15
ENDBRANCH   4  14
TORSDOF 6
