REMARK  Name = ZINC19861693
REMARK                            x       y       z     vdW  Elec       q    Type
REMARK                         _______ _______ _______ _____ _____    ______ ____
ROOT
ATOM      1  C   LIG    1       -2.482   0.853   0.018  0.00  0.00    +0.166 C 
ENDROOT
BRANCH   1   4
ATOM      2  N   LIG    1       -0.011   0.966   0.007  0.00  0.00    -0.302 N 
ATOM      3  H   LIG    1        0.004  -0.134   0.006  0.00  0.00    +0.150 HD
ATOM      4  C   LIG    1       -1.187   1.624   0.017  0.00  0.00    +0.234 C 
ATOM      5  O   LIG    1       -1.204   2.837   0.023  0.00  0.00    -0.274 OA
BRANCH   2   6
ATOM      6  C   LIG    1        1.248   1.716  -0.001  0.00  0.00    +0.163 C 
BRANCH   6   7
ATOM      7  C   LIG    1        1.602   2.087  -1.417  0.00  0.00    +0.231 C 
ATOM      8  N   LIG    1        2.727   2.784  -1.670  0.00  0.00    -0.328 N 
ATOM      9  H   LIG    1        3.387   3.083  -0.842  0.00  0.00    +0.145 HD
ATOM     10  H   LIG    1        2.986   3.055  -2.704  0.00  0.00    +0.145 HD
ATOM     11  O   LIG    1        0.875   1.757  -2.331  0.00  0.00    -0.274 OA
ENDBRANCH   6   7
BRANCH   6  12
ATOM     12  C   LIG    1        2.361   0.850   0.594  0.00  0.00    +0.067 C 
BRANCH  12  16
ATOM     13  C   LIG    1        1.526   0.087   4.713  0.00  0.00    +0.000 A 
ATOM     14  C   LIG    1        1.056  -0.776   3.741  0.00  0.00    +0.000 A 
ATOM     15  C   LIG    1        1.326  -0.529   2.408  0.00  0.00    +0.004 A 
ATOM     16  C   LIG    1        2.066   0.581   2.047  0.00  0.00    -0.045 A 
ATOM     17  C   LIG    1        2.540   1.442   3.019  0.00  0.00    +0.004 A 
ATOM     18  C   LIG    1        2.266   1.198   4.352  0.00  0.00    +0.000 A 
ENDBRANCH  12  16
ENDBRANCH   6  12
ENDBRANCH   2   6
ENDBRANCH   1   4
BRANCH   1  19
ATOM     19  N   LIG    1       -3.608   1.789   0.029  0.00  0.00    -0.269 N 
ATOM     20  H   LIG    1       -3.477   2.803   0.436  0.00  0.00    +0.153 HD
ATOM     21  C   LIG    1       -4.805   1.410  -0.461  0.00  0.00    +0.401 C 
ATOM     22  O   LIG    1       -4.950   0.290  -0.911  0.00  0.00    -0.226 OA
BRANCH  21  23
ATOM     23  O   LIG    1       -5.840   2.271  -0.451  0.00  0.00    -0.446 OA
BRANCH  23  24
ATOM     24  C   LIG    1       -7.099   1.794  -0.995  0.00  0.00    +0.269 C 
BRANCH  24  25
ATOM     25  C   LIG    1       -8.133   2.886  -0.900  0.00  0.00    -0.010 A 
ATOM     26  C   LIG    1       -8.930   2.989   0.225  0.00  0.00    +0.007 A 
ATOM     27  C   LIG    1       -9.875   3.994   0.314  0.00  0.00    +0.000 A 
ATOM     28  C   LIG    1      -10.030   4.890  -0.728  0.00  0.00    +0.000 A 
ATOM     29  C   LIG    1       -9.238   4.784  -1.855  0.00  0.00    +0.000 A 
ATOM     30  C   LIG    1       -8.289   3.782  -1.941  0.00  0.00    +0.007 A 
ENDBRANCH  24  25
ENDBRANCH  23  24
ENDBRANCH  21  23
ENDBRANCH   1  19
BRANCH   1  31
ATOM     31  C   LIG    1       -2.545  -0.035   1.263  0.00  0.00    +0.069 C 
BRANCH  31  32
ATOM     32  C   LIG    1       -3.780  -0.896   1.204  0.00  0.00    -0.020 A 
ATOM     33  C   LIG    1       -4.966  -0.632   1.775  0.00  0.00    +0.087 A 
ATOM     34  N   LIG    1       -5.850  -1.640   1.504  0.00  0.00    -0.360 N 
ATOM     35  C   LIG    1       -5.237  -2.607   0.739  0.00  0.00    +0.047 A 
ATOM     36  C   LIG    1       -5.664  -3.816   0.200  0.00  0.00    +0.026 A 
ATOM     37  C   LIG    1       -4.791  -4.581  -0.542  0.00  0.00    +0.002 A 
ATOM     38  C   LIG    1       -3.486  -4.159  -0.758  0.00  0.00    +0.001 A 
ATOM     39  C   LIG    1       -3.046  -2.974  -0.237  0.00  0.00    +0.010 A 
ATOM     40  H   LIG    1       -6.879  -1.589   1.889  0.00  0.00    +0.165 HD
ATOM     41  C   LIG    1       -3.913  -2.183   0.518  0.00  0.00    +0.003 A 
ENDBRANCH  31  32
ENDBRANCH   1  31
TORSDOF 11
