REMARK  Name = ZINC43203317
REMARK                            x       y       z     vdW  Elec       q    Type
REMARK                         _______ _______ _______ _____ _____    ______ ____
ROOT
ATOM      1  C   LIG    1        0.017  -0.153   2.342  0.00  0.00    +0.213 A 
ATOM      2  N   LIG    1       -1.177   0.445   2.286  0.00  0.00    -0.198 NA
ATOM      3  C   LIG    1       -1.851   0.750   3.382  0.00  0.00    +0.153 A 
ATOM      4  C   LIG    1       -1.295   0.438   4.645  0.00  0.00    +0.103 A 
ATOM      5  C   LIG    1       -1.724   0.615   5.947  0.00  0.00    +0.032 A 
ATOM      6  C   LIG    1       -0.729   0.095   6.774  0.00  0.00    +0.022 A 
ATOM      7  C   LIG    1        0.268  -0.380   5.980  0.00  0.00    +0.111 A 
ATOM      8  N   LIG    1       -0.062  -0.179   4.691  0.00  0.00    -0.257 N 
ATOM      9  N   LIG    1        0.583  -0.473   3.481  0.00  0.00    -0.264 N 
ATOM     10  H   LIG    1        1.449  -0.909   3.487  0.00  0.00    +0.190 HD
ENDROOT
BRANCH   1  16
ATOM     11  C   LIG    1        1.754  -2.614   1.591  0.00  0.00    +0.042 C 
ATOM     12  C   LIG    1        1.937  -1.197   1.043  0.00  0.00    +0.111 C 
ATOM     13  C   LIG    1        2.300  -1.258  -0.456  0.00  0.00    +0.037 C 
ATOM     14  C   LIG    1        1.520  -0.055  -1.051  0.00  0.00    +0.022 C 
ATOM     15  C   LIG    1        0.229  -0.067  -0.194  0.00  0.00    +0.109 C 
ATOM     16  N   LIG    1        0.677  -0.450   1.157  0.00  0.00    -0.286 N 
BRANCH  12  17
ATOM     17  C   LIG    1        3.025  -0.489   1.808  0.00  0.00    +0.241 C 
ATOM     18  N   LIG    1        3.043   0.858   1.862  0.00  0.00    -0.282 N 
ATOM     19  H   LIG    1        2.315   1.369   1.477  0.00  0.00    +0.155 HD
ATOM     20  O   LIG    1        3.884  -1.131   2.376  0.00  0.00    -0.273 OA
BRANCH  18  21
ATOM     21  C   LIG    1        4.115   1.519   2.476  0.00  0.00    +0.052 A 
ATOM     22  C   LIG    1        5.406   1.004   2.389  0.00  0.00    +0.029 A 
ATOM     23  C   LIG    1        6.433   1.692   3.011  0.00  0.00    +0.061 A 
ATOM     24  C   LIG    1        6.146   2.863   3.695  0.00  0.00    +0.213 A 
ATOM     25  F   LIG    1        7.142   3.540   4.305  0.00  0.00    -0.184 F 
ATOM     26  N   LIG    1        4.910   3.324   3.758  0.00  0.00    -0.226 NA
ATOM     27  C   LIG    1        3.906   2.700   3.174  0.00  0.00    +0.137 A 
ENDBRANCH  18  21
ENDBRANCH  12  17
ENDBRANCH   1  16
BRANCH   3  28
ATOM     28  N   LIG    1       -3.082   1.368   3.295  0.00  0.00    -0.281 N 
ATOM     29  H   LIG    1       -3.538   1.658   4.101  0.00  0.00    +0.155 HD
BRANCH  28  30
ATOM     30  C   LIG    1       -3.674   1.577   2.043  0.00  0.00    +0.146 A 
ATOM     31  C   LIG    1       -3.090   1.298   0.797  0.00  0.00    +0.068 A 
ATOM     32  C   LIG    1       -3.978   1.638  -0.164  0.00  0.00    +0.041 A 
ATOM     33  N   LIG    1       -5.084   2.115   0.445  0.00  0.00    -0.280 N 
ATOM     34  H   LIG    1       -5.886   2.434   0.002  0.00  0.00    +0.189 HD
ATOM     35  N   LIG    1       -4.875   2.062   1.829  0.00  0.00    -0.158 NA
BRANCH  32  36
ATOM     36  C   LIG    1       -3.770   1.509  -1.651  0.00  0.00    +0.037 C 
ATOM     37  C   LIG    1       -4.417   2.564  -2.549  0.00  0.00    +0.010 C 
ATOM     38  C   LIG    1       -4.986   1.145  -2.505  0.00  0.00    +0.010 C 
ENDBRANCH  32  36
ENDBRANCH  28  30
ENDBRANCH   3  28
TORSDOF 6
