REMARK  Name = ZINC13759788
REMARK                            x       y       z     vdW  Elec       q    Type
REMARK                         _______ _______ _______ _____ _____    ______ ____
ROOT
ATOM      1  C   LIG    1       -0.016   1.091   2.429  0.00  0.00    -0.067 C 
ATOM      2  C   LIG    1       -0.320   2.042   3.594  0.00  0.00    -0.011 C 
ATOM      3  C   LIG    1        0.585   1.672   4.766  0.00  0.00    +0.037 C 
ATOM      4  C   LIG    1        0.498   0.197   5.059  0.00  0.00    -0.003 A 
ATOM      5  C   LIG    1       -0.004  -0.710   4.154  0.00  0.00    -0.042 A 
ATOM      6  C   LIG    1       -0.049  -2.059   4.484  0.00  0.00    +0.004 A 
ATOM      7  C   LIG    1        0.399  -2.499   5.712  0.00  0.00    +0.004 A 
ATOM      8  C   LIG    1        0.899  -1.591   6.626  0.00  0.00    +0.046 A 
ATOM      9  C   LIG    1        0.948  -0.246   6.301  0.00  0.00    +0.124 A 
ATOM     10  C   LIG    1       -0.522  -0.301   2.800  0.00  0.00    +0.020 C 
ENDROOT
BRANCH   1  11
ATOM     11  N   LIG    1       -0.709   1.566   1.217  0.00  0.00    +0.381 N 
ATOM     12  H   LIG    1       -0.723   2.592   1.214  0.00  0.00    -0.086 HD
ATOM     13  H   LIG    1       -1.672   1.210   1.216  0.00  0.00    -0.086 HD
BRANCH  11  14
ATOM     14  C   LIG    1       -0.013   1.086   0.008  0.00  0.00    -0.082 C 
BRANCH  14  16
ATOM     15  C   LIG    1       -0.037   1.099  -2.490  0.00  0.00    +0.002 C 
ATOM     16  C   LIG    1       -0.753   1.593  -1.232  0.00  0.00    -0.022 C 
ENDBRANCH  14  16
ENDBRANCH  11  14
ENDBRANCH   1  11
BRANCH   9  17
ATOM     17  O   LIG    1        1.440   0.647   7.199  0.00  0.00    -0.495 OA
ATOM     18  C   LIG    1        1.886   0.128   8.454  0.00  0.00    +0.277 C 
ENDBRANCH   9  17
TORSDOF 4
