REMARK  Name = ZINC28564296
REMARK                            x       y       z     vdW  Elec       q    Type
REMARK                         _______ _______ _______ _____ _____    ______ ____
ROOT
ATOM      1  C   LIG    1        1.233   4.175   1.793  0.00  0.00    +0.120 C 
ATOM      2  C   LIG    1        0.080   3.328   2.335  0.00  0.00    +0.036 C 
ATOM      3  C   LIG    1       -1.245   3.858   1.783  0.00  0.00    +0.023 C 
ATOM      4  C   LIG    1       -1.433   5.313   2.217  0.00  0.00    +0.077 C 
ATOM      5  C   LIG    1       -0.280   6.160   1.675  0.00  0.00    +0.023 C 
ATOM      6  C   LIG    1        1.045   5.630   2.227  0.00  0.00    +0.036 C 
ENDROOT
BRANCH   1   7
ATOM      7  C   LIG    1        2.538   3.654   2.337  0.00  0.00    +0.018 A 
ATOM      8  C   LIG    1        3.484   3.127   1.477  0.00  0.00    +0.047 A 
ATOM      9  C   LIG    1        4.684   2.651   1.976  0.00  0.00    +0.124 A 
ATOM     10  F   LIG    1        5.609   2.139   1.136  0.00  0.00    -0.205 F 
ATOM     11  C   LIG    1        4.934   2.695   3.338  0.00  0.00    +0.041 A 
ATOM     12  C   LIG    1        3.987   3.217   4.197  0.00  0.00    +0.041 A 
ATOM     13  C   LIG    1        2.788   3.697   3.698  0.00  0.00    +0.129 A 
ATOM     14  F   LIG    1        1.861   4.207   4.538  0.00  0.00    -0.205 F 
ENDBRANCH   1   7
BRANCH   1  15
ATOM     15  S   LIG    1        1.252   4.082  -0.018  0.00  0.00    +0.007 S 
ATOM     16  O   LIG    1        1.684   2.795  -0.438  0.00  0.00    -0.169 OA
ATOM     17  O   LIG    1        0.067   4.658  -0.551  0.00  0.00    -0.169 OA
BRANCH  15  24
ATOM     18  C   LIG    1        3.726   4.661  -1.015  0.00  0.00    +0.028 A 
ATOM     19  C   LIG    1        4.740   5.516  -1.405  0.00  0.00    +0.022 A 
ATOM     20  C   LIG    1        4.571   6.885  -1.293  0.00  0.00    +0.041 A 
ATOM     21 CL   LIG    1        5.843   7.960  -1.782  0.00  0.00    -0.084 Cl
ATOM     22  C   LIG    1        3.387   7.397  -0.792  0.00  0.00    +0.022 A 
ATOM     23  C   LIG    1        2.374   6.540  -0.403  0.00  0.00    +0.028 A 
ATOM     24  C   LIG    1        2.544   5.173  -0.514  0.00  0.00    +0.089 A 
ENDBRANCH  15  24
ENDBRANCH   1  15
BRANCH   4  25
ATOM     25  N   LIG    1       -2.702   5.820   1.688  0.00  0.00    -0.183 NA
ATOM     26  H   LIG    1       -2.907   5.281   0.847  0.00  0.00    +0.148 HD
BRANCH  25  27
ATOM     27  S   LIG    1       -4.066   5.778   2.627  0.00  0.00    +0.127 S 
ATOM     28  O   LIG    1       -4.142   4.439   3.097  0.00  0.00    -0.150 OA
ATOM     29  O   LIG    1       -5.090   6.315   1.802  0.00  0.00    -0.150 OA
BRANCH  27  30
ATOM     30  C   LIG    1       -3.718   6.905   4.005  0.00  0.00    +0.536 C 
ATOM     31  F   LIG    1       -2.594   6.453   4.705  0.00  0.00    -0.149 F 
ATOM     32  F   LIG    1       -4.820   6.942   4.867  0.00  0.00    -0.149 F 
ATOM     33  F   LIG    1       -3.472   8.189   3.507  0.00  0.00    -0.149 F 
ENDBRANCH  27  30
ENDBRANCH  25  27
ENDBRANCH   4  25
TORSDOF 6
