REMARK  Name = ZINC49739406
REMARK                            x       y       z     vdW  Elec       q    Type
REMARK                         _______ _______ _______ _____ _____    ______ ____
ROOT
ATOM      1  C   LIG    1       -0.017   1.382   0.010  0.00  0.00    +0.020 A 
ATOM      2  C   LIG    1        1.179   2.082   0.002  0.00  0.00    +0.015 A 
ATOM      3  C   LIG    1        2.372   1.350  -0.015  0.00  0.00    +0.048 A 
ATOM      4  C   LIG    1        2.307  -0.056  -0.034  0.00  0.00    +0.123 A 
ATOM      5  C   LIG    1        3.569  -0.842  -0.082  0.00  0.00    +0.227 C 
ATOM      6  C   LIG    1        4.841  -0.093   0.152  0.00  0.00    +0.110 C 
ATOM      7  C   LIG    1        4.915   1.303  -0.442  0.00  0.00    +0.203 C 
ATOM      8 CL   LIG    1        4.976   1.201  -2.241  0.00  0.00    -0.106 Cl
ATOM      9  N   LIG    1        5.819  -0.603   0.821  0.00  0.00    -0.281 NA
ATOM     10  O   LIG    1        3.566  -2.036  -0.301  0.00  0.00    -0.284 OA
ATOM     11  N   LIG    1        1.136  -0.673  -0.018  0.00  0.00    -0.251 NA
ATOM     12  C   LIG    1        3.670   2.046  -0.011  0.00  0.00    +0.189 C 
ATOM     13  O   LIG    1        3.740   3.206   0.336  0.00  0.00    -0.290 OA
ATOM     14  C   LIG    1        0.002  -0.004   0.002  0.00  0.00    +0.111 A 
ENDROOT
BRANCH   9  15
ATOM     15  C   LIG    1        5.702  -1.953   1.376  0.00  0.00    +0.157 C 
BRANCH  15  16
ATOM     16  C   LIG    1        6.719  -2.874   0.698  0.00  0.00    +0.107 C 
BRANCH  16  17
ATOM     17  N   LIG    1        6.601  -4.228   1.254  0.00  0.00    -0.296 NA
ATOM     18  C   LIG    1        7.005  -4.253   2.667  0.00  0.00    +0.112 C 
ATOM     19  C   LIG    1        6.811  -5.667   3.223  0.00  0.00    +0.175 C 
ATOM     20  O   LIG    1        7.559  -6.592   2.429  0.00  0.00    -0.377 OA
ATOM     21  C   LIG    1        7.191  -6.594   1.047  0.00  0.00    +0.175 C 
ATOM     22  C   LIG    1        7.389  -5.190   0.470  0.00  0.00    +0.112 C 
ENDBRANCH  16  17
ENDBRANCH  15  16
ENDBRANCH   9  15
TORSDOF 3
