REMARK  Name = ZINC22059926
REMARK                            x       y       z     vdW  Elec       q    Type
REMARK                         _______ _______ _______ _____ _____    ______ ____
ROOT
ATOM      1  C   LIG    1       -0.398  -4.951   1.733  0.00  0.00    +0.159 A 
ATOM      2  C   LIG    1        0.943  -4.788   2.094  0.00  0.00    +0.164 A 
ATOM      3  F   LIG    1        1.546  -3.587   1.954  0.00  0.00    -0.202 F 
ATOM      4  C   LIG    1        1.639  -5.857   2.591  0.00  0.00    +0.057 A 
ATOM      5  C   LIG    1        0.970  -7.081   2.718  0.00  0.00    +0.068 A 
ATOM      6  C   LIG    1        1.652  -8.273   3.244  0.00  0.00    +0.205 A 
ATOM      7  C   LIG    1        0.862  -9.513   3.339  0.00  0.00    +0.122 A 
ATOM      8  C   LIG    1       -0.459  -9.491   2.935  0.00  0.00    +0.106 A 
ATOM      9  N   LIG    1       -1.042  -8.383   2.460  0.00  0.00    -0.328 N 
ATOM     10  O   LIG    1        2.821  -8.236   3.588  0.00  0.00    -0.286 OA
ATOM     11  C   LIG    1       -0.380  -7.183   2.338  0.00  0.00    +0.147 A 
ATOM     12  N   LIG    1       -1.012  -6.115   1.867  0.00  0.00    -0.211 NA
ENDROOT
BRANCH   1  16
ATOM     13  N   LIG    1       -1.711  -0.309   1.440  0.00  0.00    -0.092 NA
ATOM     14  C   LIG    1       -1.762  -1.567   1.208  0.00  0.00    +0.077 C 
ATOM     15  C   LIG    1       -0.590  -2.505   1.012  0.00  0.00    +0.161 C 
ATOM     16  N   LIG    1       -1.101  -3.868   1.230  0.00  0.00    -0.307 N 
ATOM     17  C   LIG    1       -2.512  -3.848   0.805  0.00  0.00    +0.114 C 
ATOM     18  C   LIG    1       -3.010  -2.418   1.079  0.00  0.00    +0.038 C 
BRANCH  13  20
ATOM     19  C   LIG    1       -0.549   1.744   1.794  0.00  0.00    +0.313 C 
ATOM     20  O   LIG    1       -0.457   0.343   1.532  0.00  0.00    -0.397 OA
ENDBRANCH  13  20
BRANCH  18  21
ATOM     21  C   LIG    1       -3.866  -1.927  -0.090  0.00  0.00    -0.075 C 
BRANCH  21  22
ATOM     22  N   LIG    1       -4.387  -0.587   0.212  0.00  0.00    +0.379 N 
ATOM     23  H   LIG    1       -4.951  -0.264  -0.558  0.00  0.00    -0.090 HD
ATOM     24  H   LIG    1       -3.616   0.048   0.355  0.00  0.00    -0.090 HD
ATOM     25  H   LIG    1       -4.950  -0.627   1.049  0.00  0.00    -0.090 HD
ENDBRANCH  21  22
ENDBRANCH  18  21
ENDBRANCH   1  16
BRANCH   9  26
ATOM     26  C   LIG    1       -2.448  -8.451   2.054  0.00  0.00    +0.089 C 
ATOM     27  C   LIG    1       -3.254  -9.673   2.501  0.00  0.00    +0.027 C 
ATOM     28  C   LIG    1       -2.838  -9.525   1.036  0.00  0.00    +0.027 C 
ENDBRANCH   9  26
BRANCH   7  29
ATOM     29  C   LIG    1        1.466 -10.747   3.853  0.00  0.00    +0.342 C 
ATOM     30  O   LIG    1        0.798 -11.771   3.926  0.00  0.00    -0.245 OA
BRANCH  29  31
ATOM     31  O   LIG    1        2.637 -10.754   4.208  0.00  0.00    -0.477 OA
ATOM     32  H   LIG    1        3.148  -9.970   4.151  0.00  0.00    +0.295 HD
ENDBRANCH  29  31
ENDBRANCH   7  29
TORSDOF 7
