REMARK  Name = ZINC28652134
REMARK                            x       y       z     vdW  Elec       q    Type
REMARK                         _______ _______ _______ _____ _____    ______ ____
ROOT
ATOM      1  N   LIG    1       -1.372  -0.512  -0.108  0.00  0.00    +0.383 N 
ATOM      2  H   LIG    1       -1.666  -0.547  -1.168  0.00  0.00    -0.085 HD
ATOM      3  H   LIG    1       -2.054   0.155   0.440  0.00  0.00    -0.085 HD
ENDROOT
BRANCH   1   5
ATOM      4  C   LIG    1        0.825  -0.496  -1.190  0.00  0.00    -0.013 C 
ATOM      5  C   LIG    1        0.002  -0.004   0.002  0.00  0.00    -0.071 C 
BRANCH   5   6
ATOM      6  C   LIG    1       -0.019   1.526   0.010  0.00  0.00    +0.019 C 
BRANCH   6   7
ATOM      7  C   LIG    1       -0.724   2.012   1.250  0.00  0.00    -0.049 A 
ATOM      8  C   LIG    1       -2.089   2.229   1.227  0.00  0.00    +0.007 A 
ATOM      9  C   LIG    1       -2.739   2.669   2.364  0.00  0.00    +0.046 A 
ATOM     10  C   LIG    1       -2.019   2.904   3.526  0.00  0.00    +0.120 A 
ATOM     11  C   LIG    1       -0.648   2.691   3.545  0.00  0.00    +0.046 A 
ATOM     12  C   LIG    1       -0.004   2.245   2.407  0.00  0.00    +0.007 A 
BRANCH  10  13
ATOM     13  O   LIG    1       -2.655   3.342   4.645  0.00  0.00    -0.495 OA
ATOM     14  C   LIG    1       -4.067   3.539   4.552  0.00  0.00    +0.277 C 
ENDBRANCH  10  13
ENDBRANCH   6   7
ENDBRANCH   5   6
ENDBRANCH   1   5
BRANCH   1  15
ATOM     15  C   LIG    1       -1.480  -1.864   0.456  0.00  0.00    -0.046 C 
BRANCH  15  16
ATOM     16  C   LIG    1       -2.922  -2.358   0.323  0.00  0.00    +0.128 C 
BRANCH  16  17
ATOM     17  C   LIG    1       -3.034  -3.745   0.901  0.00  0.00    -0.014 A 
ATOM     18  C   LIG    1       -3.235  -3.912   2.258  0.00  0.00    +0.051 A 
ATOM     19  C   LIG    1       -3.344  -5.188   2.793  0.00  0.00    +0.121 A 
ATOM     20  C   LIG    1       -3.238  -6.296   1.966  0.00  0.00    +0.090 A 
ATOM     21  C   LIG    1       -3.030  -6.125   0.606  0.00  0.00    +0.121 A 
ATOM     22  C   LIG    1       -2.928  -4.847   0.075  0.00  0.00    +0.051 A 
BRANCH  19  23
ATOM     23  O   LIG    1       -3.548  -5.352   4.126  0.00  0.00    -0.507 OA
ATOM     24  H   LIG    1       -3.634  -6.364   4.549  0.00  0.00    +0.292 HD
ENDBRANCH  19  23
BRANCH  21  25
ATOM     25  O   LIG    1       -2.926  -7.210  -0.207  0.00  0.00    -0.507 OA
ATOM     26  H   LIG    1       -2.761  -7.074  -1.286  0.00  0.00    +0.292 HD
ENDBRANCH  21  25
ENDBRANCH  16  17
BRANCH  16  27
ATOM     27  O   LIG    1       -3.795  -1.475   1.031  0.00  0.00    -0.389 OA
ATOM     28  H   LIG    1       -4.878  -1.669   1.048  0.00  0.00    +0.210 HD
ENDBRANCH  16  27
ENDBRANCH  15  16
ENDBRANCH   1  15
TORSDOF 10
