REMARK  Name = ZINC21873682
REMARK                            x       y       z     vdW  Elec       q    Type
REMARK                         _______ _______ _______ _____ _____    ______ ____
ROOT
ATOM      1  C   LIG    1        3.433   5.983   0.206  0.00  0.00    +0.222 A 
ATOM      2  N   LIG    1        2.288   5.314   0.120  0.00  0.00    -0.198 NA
ATOM      3  C   LIG    1        1.121   5.947   0.127  0.00  0.00    +0.139 A 
ATOM      4  C   LIG    1        1.119   7.352   0.241  0.00  0.00    +0.079 A 
ATOM      5  C   LIG    1        0.112   8.340   0.288  0.00  0.00    +0.148 A 
ATOM      6  N   LIG    1        0.683   9.506   0.402  0.00  0.00    -0.177 NA
ATOM      7  N   LIG    1        2.074   9.348   0.435  0.00  0.00    -0.249 N 
ATOM      8  C   LIG    1        3.058  10.427   0.555  0.00  0.00    +0.174 C 
ATOM      9  C   LIG    1        2.356   8.018   0.337  0.00  0.00    +0.165 A 
ATOM     10  N   LIG    1        3.478   7.300   0.315  0.00  0.00    -0.195 NA
ENDROOT
BRANCH   1  14
ATOM     11  C   LIG    1        5.463   1.588  -0.106  0.00  0.00    +0.039 C 
ATOM     12  C   LIG    1        5.708   3.083   0.106  0.00  0.00    +0.133 C 
ATOM     13  C   LIG    1        4.373   3.831   0.061  0.00  0.00    +0.139 C 
ATOM     14  N   LIG    1        4.621   5.275   0.188  0.00  0.00    -0.295 N 
ATOM     15  C   LIG    1        5.500   5.748  -0.891  0.00  0.00    +0.139 C 
ATOM     16  C   LIG    1        6.824   4.981  -0.838  0.00  0.00    +0.133 C 
ATOM     17  C   LIG    1        7.535   5.281   0.484  0.00  0.00    +0.039 C 
ATOM     18  O   LIG    1        6.560   3.579  -0.930  0.00  0.00    -0.371 OA
ENDBRANCH   1  14
BRANCH   3  19
ATOM     19  N   LIG    1       -0.064   5.244   0.030  0.00  0.00    -0.299 N 
ATOM     20  H   LIG    1       -1.025   5.769   0.136  0.00  0.00    +0.154 HD
BRANCH  19  21
ATOM     21  C   LIG    1       -0.043   3.865  -0.201  0.00  0.00    +0.036 A 
ATOM     22  C   LIG    1        0.907   3.318  -1.055  0.00  0.00    +0.023 A 
ATOM     23  C   LIG    1        0.928   1.956  -1.285  0.00  0.00    +0.005 A 
ATOM     24  C   LIG    1        0.006   1.135  -0.665  0.00  0.00    +0.046 A 
ATOM     25  C   LIG    1       -0.948   1.676   0.185  0.00  0.00    +0.122 A 
ATOM     26  C   LIG    1       -0.970   3.042   0.421  0.00  0.00    +0.069 A 
BRANCH  25  27
ATOM     27  O   LIG    1       -1.858   0.867   0.789  0.00  0.00    -0.495 OA
ATOM     28  C   LIG    1       -1.774  -0.531   0.504  0.00  0.00    +0.277 C 
ENDBRANCH  25  27
ENDBRANCH  19  21
ENDBRANCH   3  19
TORSDOF 4
