REMARK  Name = ZINC14959957
REMARK                            x       y       z     vdW  Elec       q    Type
REMARK                         _______ _______ _______ _____ _____    ______ ____
ROOT
ATOM      1  C   LIG    1        0.780  -1.806  -1.334  0.00  0.00    +0.236 A 
ATOM      2  C   LIG    1        1.432  -2.321  -2.464  0.00  0.00    +0.134 A 
ATOM      3  C   LIG    1        1.531  -3.720  -2.613  0.00  0.00    +0.051 A 
ATOM      4  C   LIG    1        0.974  -4.528  -1.627  0.00  0.00    +0.068 A 
ATOM      5  C   LIG    1        0.345  -3.937  -0.541  0.00  0.00    +0.131 A 
ATOM      6  N   LIG    1        0.272  -2.618  -0.423  0.00  0.00    -0.197 NA
ENDROOT
BRANCH   5   7
ATOM      7  N   LIG    1       -0.213  -4.743   0.447  0.00  0.00    -0.270 N 
ATOM      8  H   LIG    1       -0.226  -5.707   0.336  0.00  0.00    +0.156 HD
ATOM      9  C   LIG    1       -0.735  -4.185   1.557  0.00  0.00    +0.215 C 
ATOM     10  C   LIG    1       -1.235  -5.060   2.676  0.00  0.00    +0.109 C 
ATOM     11  O   LIG    1       -0.802  -2.978   1.654  0.00  0.00    -0.276 OA
ENDBRANCH   5   7
BRANCH   3  12
ATOM     12  N   LIG    1        2.166  -4.276  -3.713  0.00  0.00    -0.357 N 
ATOM     13  H   LIG    1        2.226  -5.240  -3.803  0.00  0.00    +0.142 HD
ATOM     14  H   LIG    1        2.550  -3.700  -4.394  0.00  0.00    +0.142 HD
ENDBRANCH   3  12
BRANCH   2  15
ATOM     15  C   LIG    1        1.988  -1.442  -3.449  0.00  0.00    +0.106 C 
ATOM     16  N   LIG    1        2.428  -0.745  -4.230  0.00  0.00    -0.191 NA
ENDBRANCH   2  15
BRANCH   1  17
ATOM     17  O   LIG    1        0.675  -0.465  -1.172  0.00  0.00    -0.476 OA
BRANCH  17  19
ATOM     18  C   LIG    1       -0.016   1.526   0.011  0.00  0.00    +0.048 C 
ATOM     19  C   LIG    1        0.004  -0.004   0.003  0.00  0.00    +0.227 C 
ENDBRANCH  17  19
ENDBRANCH   1  17
TORSDOF 5
