REMARK  Name = ZINC13782159
REMARK                            x       y       z     vdW  Elec       q    Type
REMARK                         _______ _______ _______ _____ _____    ______ ____
ROOT
ATOM      1  C   LIG    1       -0.035   0.072  -2.499  0.00  0.00    +0.044 C 
ATOM      2  C   LIG    1       -0.006  -0.689  -1.199  0.00  0.00    -0.048 A 
ATOM      3  C   LIG    1        0.018  -2.071  -1.206  0.00  0.00    +0.004 A 
ATOM      4  C   LIG    1        0.039  -2.768  -0.013  0.00  0.00    +0.004 A 
ATOM      5  C   LIG    1        0.041  -2.084   1.188  0.00  0.00    -0.046 A 
ATOM      6  C   LIG    1        0.023  -0.702   1.196  0.00  0.00    +0.007 A 
ATOM      7  C   LIG    1        0.002  -0.004   0.002  0.00  0.00    -0.047 A 
ATOM      8  C   LIG    1       -0.018   1.503   0.010  0.00  0.00    +0.044 C 
ENDROOT
BRANCH   5   9
ATOM      9  C   LIG    1        0.063  -2.844   2.489  0.00  0.00    +0.002 C 
ATOM     10  C   LIG    1        1.326  -3.708   2.554  0.00  0.00    +0.004 C 
ATOM     11  C   LIG    1        1.311  -4.522   3.851  0.00  0.00    -0.019 C 
ATOM     12  C   LIG    1        0.040  -5.375   3.898  0.00  0.00    -0.083 C 
ATOM     13  N   LIG    1       -1.147  -4.501   3.842  0.00  0.00    +0.379 N 
ATOM     14  H   LIG    1       -1.994  -5.077   3.908  0.00  0.00    -0.086 HD
ATOM     15  H   LIG    1       -1.120  -3.842   4.629  0.00  0.00    -0.086 HD
ATOM     16  C   LIG    1       -1.171  -3.745   2.575  0.00  0.00    -0.075 C 
ENDBRANCH   5   9
TORSDOF 1
