REMARK  Name = ZINC18098320
REMARK                            x       y       z     vdW  Elec       q    Type
REMARK                         _______ _______ _______ _____ _____    ______ ____
ROOT
ATOM      1  C   LIG    1       -1.182  -3.148  -7.119  0.00  0.00    +0.003 C 
ENDROOT
BRANCH   1   2
ATOM      2  C   LIG    1       -1.139  -2.107  -5.998  0.00  0.00    +0.037 C 
BRANCH   2   3
ATOM      3  C   LIG    1       -2.303  -2.348  -5.034  0.00  0.00    +0.196 C 
BRANCH   3   4
ATOM      4  N   LIG    1       -2.262  -1.352  -3.961  0.00  0.00    -0.276 N 
ATOM      5  H   LIG    1       -1.562  -0.680  -3.949  0.00  0.00    +0.258 HD
BRANCH   4   6
ATOM      6  C   LIG    1       -3.215  -1.369  -2.970  0.00  0.00    +0.388 C 
ATOM      7  N   LIG    1       -4.154  -2.271  -2.986  0.00  0.00    -0.129 NA
ATOM      8  H   LIG    1       -4.181  -2.930  -3.696  0.00  0.00    +0.306 HD
BRANCH   6   9
ATOM      9  N   LIG    1       -3.176  -0.431  -1.959  0.00  0.00    -0.186 N 
ATOM     10  H   LIG    1       -2.522   0.285  -1.987  0.00  0.00    +0.271 HD
BRANCH   9  12
ATOM     11  N   LIG    1       -4.122   0.454  -0.024  0.00  0.00    -0.073 NA
ATOM     12  C   LIG    1       -4.065  -0.511  -0.911  0.00  0.00    +0.394 C 
BRANCH  11  19
ATOM     13  C   LIG    1       -3.571   2.779  -0.213  0.00  0.00    +0.047 A 
ATOM     14  C   LIG    1       -2.619   3.778  -0.222  0.00  0.00    +0.023 A 
ATOM     15  C   LIG    1       -1.281   3.465  -0.054  0.00  0.00    +0.041 A 
ATOM     16 CL   LIG    1       -0.089   4.727  -0.068  0.00  0.00    -0.084 Cl
ATOM     17  C   LIG    1       -0.889   2.149   0.124  0.00  0.00    +0.023 A 
ATOM     18  C   LIG    1       -1.831   1.141   0.135  0.00  0.00    +0.047 A 
ATOM     19  C   LIG    1       -3.182   1.450  -0.034  0.00  0.00    +0.142 A 
ENDBRANCH  11  19
BRANCH  12  20
ATOM     20  N   LIG    1       -4.892  -1.600  -0.794  0.00  0.00    -0.288 N 
ATOM     21  H   LIG    1       -4.746  -2.382  -1.350  0.00  0.00    +0.255 HD
ATOM     22  H   LIG    1       -5.623  -1.588  -0.157  0.00  0.00    +0.255 HD
ENDBRANCH  12  20
ENDBRANCH   9  12
ENDBRANCH   6   9
ENDBRANCH   4   6
ENDBRANCH   3   4
ENDBRANCH   2   3
ENDBRANCH   1   2
BRANCH   1  23
ATOM     23  C   LIG    1       -0.019  -2.907  -8.083  0.00  0.00    +0.003 C 
BRANCH  23  24
ATOM     24  C   LIG    1       -0.062  -3.948  -9.204  0.00  0.00    +0.037 C 
BRANCH  24  25
ATOM     25  C   LIG    1        1.102  -3.707 -10.168  0.00  0.00    +0.196 C 
BRANCH  25  26
ATOM     26  N   LIG    1        1.061  -4.703 -11.241  0.00  0.00    -0.276 N 
ATOM     27  H   LIG    1        0.361  -5.375 -11.253  0.00  0.00    +0.258 HD
BRANCH  26  28
ATOM     28  C   LIG    1        2.014  -4.686 -12.232  0.00  0.00    +0.388 C 
ATOM     29  N   LIG    1        3.010  -3.850 -12.162  0.00  0.00    -0.129 NA
ATOM     30  H   LIG    1        3.642  -3.786 -12.896  0.00  0.00    +0.306 HD
BRANCH  28  31
ATOM     31  N   LIG    1        1.915  -5.554 -13.299  0.00  0.00    -0.186 N 
ATOM     32  H   LIG    1        2.632  -5.606 -13.950  0.00  0.00    +0.271 HD
BRANCH  31  33
ATOM     33  C   LIG    1        0.798  -6.348 -13.440  0.00  0.00    +0.394 C 
ATOM     34  N   LIG    1       -0.228  -6.185 -12.639  0.00  0.00    -0.073 NA
BRANCH  34  35
ATOM     35  C   LIG    1       -1.368  -6.921 -12.827  0.00  0.00    +0.142 A 
ATOM     36  C   LIG    1       -2.041  -6.870 -14.049  0.00  0.00    +0.047 A 
ATOM     37  C   LIG    1       -3.188  -7.614 -14.232  0.00  0.00    +0.023 A 
ATOM     38  C   LIG    1       -3.672  -8.409 -13.208  0.00  0.00    +0.041 A 
ATOM     39 CL   LIG    1       -5.117  -9.342 -13.446  0.00  0.00    -0.084 Cl
ATOM     40  C   LIG    1       -3.010  -8.463 -11.993  0.00  0.00    +0.023 A 
ATOM     41  C   LIG    1       -1.858  -7.729 -11.800  0.00  0.00    +0.047 A 
ENDBRANCH  34  35
BRANCH  33  42
ATOM     42  N   LIG    1        0.758  -7.309 -14.419  0.00  0.00    -0.288 N 
ATOM     43  H   LIG    1        1.394  -7.281 -15.152  0.00  0.00    +0.255 HD
ATOM     44  H   LIG    1        0.095  -8.015 -14.378  0.00  0.00    +0.255 HD
ENDBRANCH  33  42
ENDBRANCH  31  33
ENDBRANCH  28  31
ENDBRANCH  26  28
ENDBRANCH  25  26
ENDBRANCH  24  25
ENDBRANCH  23  24
ENDBRANCH   1  23
TORSDOF 17
