REMARK  Name = ZINC00066039
REMARK                            x       y       z     vdW  Elec       q    Type
REMARK                         _______ _______ _______ _____ _____    ______ ____
ROOT
ATOM      1  C   LIG    1       -0.017   1.373   0.010  0.00  0.00    +0.000 A 
ATOM      2  C   LIG    1        1.171   2.089   0.002  0.00  0.00    +0.002 A 
ATOM      3  C   LIG    1        2.383   1.433  -0.013  0.00  0.00    +0.023 A 
ATOM      4  C   LIG    1        2.424   0.042  -0.021  0.00  0.00    +0.031 A 
ATOM      5  C   LIG    1        1.220  -0.681  -0.013  0.00  0.00    -0.022 A 
ATOM      6  C   LIG    1        1.590  -2.104  -0.025  0.00  0.00    +0.043 C 
ATOM      7  C   LIG    1        0.877  -3.303  -0.025  0.00  0.00    +0.025 C 
ATOM      8  C   LIG    1        1.577  -4.491  -0.040  0.00  0.00    +0.081 C 
ATOM      9  N   LIG    1        2.898  -4.502  -0.052  0.00  0.00    -0.314 NA
ATOM     10  H   LIG    1        3.357  -5.357  -0.061  0.00  0.00    +0.122 HD
ATOM     11  C   LIG    1        3.615  -3.398  -0.052  0.00  0.00    +0.103 C 
ATOM     12  C   LIG    1        2.995  -2.154  -0.039  0.00  0.00    +0.092 C 
ATOM     13  N   LIG    1        3.474  -0.858  -0.036  0.00  0.00    -0.339 N 
ATOM     14  H   LIG    1        4.413  -0.613  -0.044  0.00  0.00    +0.146 HD
ATOM     15  C   LIG    1        0.002  -0.004   0.002  0.00  0.00    +0.006 A 
ENDROOT
TORSDOF 0
