REMARK  Name = ZINC21524885
REMARK                            x       y       z     vdW  Elec       q    Type
REMARK                         _______ _______ _______ _____ _____    ______ ____
ROOT
ATOM      1  C   LIG    1        2.946  -2.200   0.031  0.00  0.00    +0.154 C 
ATOM      2  N   LIG    1        1.589  -1.653   0.114  0.00  0.00    -0.294 N 
ATOM      3  C   LIG    1        1.351  -0.275   0.014  0.00  0.00    +0.082 A 
ATOM      4  C   LIG    1       -0.047   0.218   0.106  0.00  0.00    +0.089 A 
ATOM      5  C   LIG    1       -1.135  -0.747   0.295  0.00  0.00    +0.266 A 
ATOM      6  N   LIG    1       -0.754  -2.048   0.374  0.00  0.00    -0.263 N 
ATOM      7  C   LIG    1       -1.794  -3.062   0.564  0.00  0.00    +0.157 C 
ATOM      8  O   LIG    1       -2.300  -0.405   0.374  0.00  0.00    -0.267 OA
ATOM      9  C   LIG    1        0.011   1.584  -0.021  0.00  0.00    +0.069 A 
ATOM     10  N   LIG    1        1.319   1.928  -0.162  0.00  0.00    -0.306 N 
ATOM     11  C   LIG    1        1.877   3.206  -0.308  0.00  0.00    +0.068 A 
ATOM     12  C   LIG    1        1.090   4.316  -0.549  0.00  0.00    +0.028 A 
ATOM     13  C   LIG    1        1.683   5.557  -0.705  0.00  0.00    +0.002 A 
ATOM     14  C   LIG    1        3.057   5.686  -0.620  0.00  0.00    +0.002 A 
ATOM     15  C   LIG    1        3.850   4.580  -0.372  0.00  0.00    +0.025 A 
ATOM     16  C   LIG    1        3.266   3.335  -0.206  0.00  0.00    +0.052 A 
ATOM     17  N   LIG    1        4.051   2.215   0.089  0.00  0.00    -0.330 N 
ATOM     18  H   LIG    1        4.994   2.336   0.642  0.00  0.00    +0.147 HD
ATOM     19  C   LIG    1        3.617   0.876  -0.340  0.00  0.00    +0.153 C 
ATOM     20  C   LIG    1        2.118   0.792  -0.155  0.00  0.00    +0.073 A 
ATOM     21  C   LIG    1        0.516  -2.456   0.289  0.00  0.00    +0.332 A 
ATOM     22  O   LIG    1        0.723  -3.651   0.376  0.00  0.00    -0.246 OA
ENDROOT
BRANCH  19  23
ATOM     23  C   LIG    1        3.965   0.669  -1.792  0.00  0.00    +0.017 A 
ATOM     24  C   LIG    1        2.984   0.779  -2.760  0.00  0.00    +0.009 A 
ATOM     25  C   LIG    1        3.301   0.595  -4.092  0.00  0.00    +0.003 A 
ATOM     26  C   LIG    1        4.599   0.289  -4.459  0.00  0.00    +0.041 A 
ATOM     27  C   LIG    1        5.582   0.172  -3.492  0.00  0.00    +0.159 A 
ATOM     28  F   LIG    1        6.850  -0.127  -3.850  0.00  0.00    -0.202 F 
ATOM     29  C   LIG    1        5.264   0.362  -2.156  0.00  0.00    +0.164 A 
ATOM     30  F   LIG    1        6.222   0.248  -1.210  0.00  0.00    -0.202 F 
ENDBRANCH  19  23
BRANCH   9  31
ATOM     31  C   LIG    1       -1.138   2.510  -0.013  0.00  0.00    -0.000 A 
ATOM     32  C   LIG    1       -1.206   3.535   0.933  0.00  0.00    +0.010 A 
ATOM     33  C   LIG    1       -2.281   4.400   0.931  0.00  0.00    +0.001 A 
ATOM     34  C   LIG    1       -3.295   4.247   0.002  0.00  0.00    +0.000 A 
ATOM     35  C   LIG    1       -3.236   3.230  -0.935  0.00  0.00    +0.001 A 
ATOM     36  C   LIG    1       -2.166   2.361  -0.948  0.00  0.00    +0.010 A 
ENDBRANCH   9  31
TORSDOF 2
