REMARK  Name = ZINC43215250
REMARK                            x       y       z     vdW  Elec       q    Type
REMARK                         _______ _______ _______ _____ _____    ______ ____
ROOT
ATOM      1  C   LIG    1       -0.404   0.075  -6.166  0.00  0.00    +0.115 C 
ATOM      2  C   LIG    1        0.423  -1.155  -6.546  0.00  0.00    +0.042 C 
ENDROOT
BRANCH   1   4
ATOM      3  C   LIG    1       -1.195  -1.037  -4.148  0.00  0.00    +0.401 C 
ATOM      4  N   LIG    1       -0.667   0.060  -4.725  0.00  0.00    -0.267 N 
ATOM      5  H   LIG    1       -0.462   0.840  -4.186  0.00  0.00    +0.153 HD
ATOM      6  O   LIG    1       -1.357  -2.049  -4.801  0.00  0.00    -0.226 OA
BRANCH   3   7
ATOM      7  O   LIG    1       -1.544  -1.012  -2.848  0.00  0.00    -0.447 OA
BRANCH   7  14
ATOM      8  C   LIG    1       -0.514  -2.831  -0.360  0.00  0.00    +0.015 C 
ATOM      9  C   LIG    1       -1.883  -2.288  -0.777  0.00  0.00    +0.010 C 
ATOM     10  C   LIG    1       -2.259  -0.884  -0.214  0.00  0.00    +0.011 C 
ATOM     11  C   LIG    1       -3.799  -0.814  -0.337  0.00  0.00    +0.005 C 
ATOM     12  C   LIG    1       -4.207  -2.182  -0.964  0.00  0.00    -0.001 C 
ATOM     13  C   LIG    1       -3.708  -2.100  -2.439  0.00  0.00    +0.049 C 
ATOM     14  C   LIG    1       -2.140  -2.196  -2.313  0.00  0.00    +0.185 C 
ATOM     15  C   LIG    1       -3.129  -3.127  -0.324  0.00  0.00    -0.023 C 
ATOM     16  C   LIG    1       -3.254  -3.191   1.199  0.00  0.00    +0.012 C 
ATOM     17  C   LIG    1       -3.143  -4.521  -0.954  0.00  0.00    +0.012 C 
ENDBRANCH   7  14
ENDBRANCH   3   7
ENDBRANCH   1   4
BRANCH   1  18
ATOM     18  C   LIG    1       -1.712   0.052  -6.916  0.00  0.00    +0.237 C 
ATOM     19  N   LIG    1       -2.776  -0.590  -6.395  0.00  0.00    -0.311 N 
ATOM     20  H   LIG    1       -2.724  -0.971  -5.504  0.00  0.00    +0.149 HD
ATOM     21  O   LIG    1       -1.806   0.611  -7.988  0.00  0.00    -0.273 OA
BRANCH  19  22
ATOM     22  C   LIG    1       -4.011  -0.712  -7.173  0.00  0.00    +0.131 C 
BRANCH  22  23
ATOM     23  C   LIG    1       -5.073  -1.427  -6.336  0.00  0.00    +0.120 C 
BRANCH  23  24
ATOM     24  C   LIG    1       -6.354  -1.524  -7.125  0.00  0.00    -0.026 A 
ATOM     25  C   LIG    1       -6.502  -2.510  -8.082  0.00  0.00    +0.005 A 
ATOM     26  C   LIG    1       -7.676  -2.599  -8.806  0.00  0.00    +0.000 A 
ATOM     27  C   LIG    1       -8.702  -1.703  -8.572  0.00  0.00    +0.000 A 
ATOM     28  C   LIG    1       -8.554  -0.718  -7.614  0.00  0.00    +0.000 A 
ATOM     29  C   LIG    1       -7.381  -0.631  -6.887  0.00  0.00    +0.005 A 
ENDBRANCH  23  24
BRANCH  23  30
ATOM     30  N   LIG    1       -4.604  -2.773  -5.998  0.00  0.00    -0.307 N 
ATOM     31  H   LIG    1       -3.866  -3.166  -6.488  0.00  0.00    +0.149 HD
ATOM     32  C   LIG    1       -5.199  -3.464  -5.005  0.00  0.00    +0.214 C 
ATOM     33  O   LIG    1       -6.061  -2.939  -4.332  0.00  0.00    -0.276 OA
BRANCH  32  34
ATOM     34  C   LIG    1       -4.793  -4.890  -4.732  0.00  0.00    +0.107 C 
BRANCH  34  35
ATOM     35  C   LIG    1       -5.548  -5.409  -3.507  0.00  0.00    +0.129 C 
BRANCH  35  36
ATOM     36  C   LIG    1       -5.229  -6.867  -3.301  0.00  0.00    +0.305 C 
ATOM     37  O   LIG    1       -4.469  -7.439  -4.064  0.00  0.00    -0.251 OA
BRANCH  36  38
ATOM     38  O   LIG    1       -5.732  -7.476  -2.372  0.00  0.00    -0.481 OA
ATOM     39  H   LIG    1       -6.316  -7.037  -1.786  0.00  0.00    +0.295 HD
ENDBRANCH  36  38
ENDBRANCH  35  36
ENDBRANCH  34  35
ENDBRANCH  32  34
ENDBRANCH  23  30
ENDBRANCH  22  23
ENDBRANCH  19  22
ENDBRANCH   1  18
BRANCH   1  40
ATOM     40  C   LIG    1        0.370   1.343  -6.530  0.00  0.00    +0.072 C 
BRANCH  40  41
ATOM     41  C   LIG    1       -0.409   2.553  -6.085  0.00  0.00    -0.020 A 
ATOM     42  C   LIG    1       -1.309   3.236  -6.811  0.00  0.00    +0.087 A 
ATOM     43  N   LIG    1       -1.812   4.274  -6.076  0.00  0.00    -0.360 N 
ATOM     44  C   LIG    1       -1.234   4.285  -4.826  0.00  0.00    +0.047 A 
ATOM     45  C   LIG    1       -1.379   5.105  -3.712  0.00  0.00    +0.026 A 
ATOM     46  C   LIG    1       -0.651   4.843  -2.571  0.00  0.00    +0.002 A 
ATOM     47  C   LIG    1        0.237   3.778  -2.527  0.00  0.00    +0.001 A 
ATOM     48  C   LIG    1        0.399   2.963  -3.612  0.00  0.00    +0.010 A 
ATOM     49  H   LIG    1       -2.476   4.908  -6.388  0.00  0.00    +0.165 HD
ATOM     50  C   LIG    1       -0.335   3.204  -4.775  0.00  0.00    +0.003 A 
ENDBRANCH  40  41
ENDBRANCH   1  40
TORSDOF 14
