REMARK  Name = ZINC14210470
REMARK                            x       y       z     vdW  Elec       q    Type
REMARK                         _______ _______ _______ _____ _____    ______ ____
ROOT
ATOM      1  N   LIG    1        1.150   7.894   0.200  0.00  0.00    -0.266 N 
ATOM      2  C   LIG    1       -0.142   8.441   0.593  0.00  0.00    +0.119 C 
ATOM      3  C   LIG    1       -0.022   9.794   1.299  0.00  0.00    +0.059 C 
ATOM      4  C   LIG    1        0.936  10.658   0.530  0.00  0.00    +0.016 A 
ATOM      5  C   LIG    1        1.969  10.111  -0.232  0.00  0.00    +0.133 A 
ATOM      6  N   LIG    1        2.638  11.151  -0.773  0.00  0.00    -0.227 N 
ATOM      7  N   LIG    1        2.080  12.256  -0.401  0.00  0.00    -0.161 NA
ATOM      8  C   LIG    1        1.050  12.024   0.385  0.00  0.00    +0.170 A 
ATOM      9  C   LIG    1        2.139   8.656  -0.321  0.00  0.00    +0.270 C 
ATOM     10  O   LIG    1        3.120   8.160  -0.842  0.00  0.00    -0.268 OA
ENDROOT
BRANCH   6  11
ATOM     11  C   LIG    1        3.761  11.050  -1.605  0.00  0.00    +0.067 A 
ATOM     12  C   LIG    1        4.843  11.908  -1.421  0.00  0.00    +0.031 A 
ATOM     13  C   LIG    1        5.955  11.815  -2.227  0.00  0.00    +0.052 A 
ATOM     14  C   LIG    1        5.999  10.867  -3.244  0.00  0.00    +0.169 A 
ATOM     15  C   LIG    1        4.910  10.005  -3.437  0.00  0.00    +0.065 A 
ATOM     16  C   LIG    1        5.263   9.135  -4.570  0.00  0.00    +0.167 A 
ATOM     17  N   LIG    1        6.452   9.489  -4.972  0.00  0.00    -0.062 NA
ATOM     18  O   LIG    1        6.927  10.552  -4.172  0.00  0.00    -0.353 OA
ATOM     19  C   LIG    1        3.789  10.101  -2.611  0.00  0.00    +0.043 A 
BRANCH  16  20
ATOM     20  N   LIG    1        4.477   8.127  -5.110  0.00  0.00    -0.340 N 
ATOM     21  H   LIG    1        4.803   7.608  -5.862  0.00  0.00    +0.144 HD
ATOM     22  H   LIG    1        3.601   7.942  -4.737  0.00  0.00    +0.144 HD
ENDBRANCH  16  20
ENDBRANCH   6  11
BRANCH   1  26
ATOM     23  C   LIG    1        1.832   3.815   0.721  0.00  0.00    -0.018 A 
ATOM     24  C   LIG    1        0.902   4.253  -0.221  0.00  0.00    +0.010 A 
ATOM     25  C   LIG    1        0.674   5.602  -0.388  0.00  0.00    +0.024 A 
ATOM     26  C   LIG    1        1.379   6.526   0.375  0.00  0.00    +0.037 A 
ATOM     27  C   LIG    1        2.310   6.092   1.310  0.00  0.00    +0.024 A 
ATOM     28  C   LIG    1        2.537   4.744   1.484  0.00  0.00    +0.010 A 
BRANCH  23  32
ATOM     29  C   LIG    1        2.527  -0.346   1.251  0.00  0.00    +0.000 A 
ATOM     30  C   LIG    1        3.580   0.494   0.936  0.00  0.00    +0.001 A 
ATOM     31  C   LIG    1        3.360   1.845   0.762  0.00  0.00    +0.009 A 
ATOM     32  C   LIG    1        2.074   2.363   0.906  0.00  0.00    -0.017 A 
ATOM     33  C   LIG    1        1.017   1.513   1.223  0.00  0.00    -0.056 A 
ATOM     34  C   LIG    1        1.249   0.163   1.394  0.00  0.00    +0.002 A 
BRANCH  33  35
ATOM     35  C   LIG    1       -0.377   2.064   1.373  0.00  0.00    -0.042 C 
BRANCH  35  36
ATOM     36  N   LIG    1       -0.474   2.802   2.660  0.00  0.00    +0.384 N 
ATOM     37  H   LIG    1        0.356   3.396   2.770  0.00  0.00    -0.081 HD
ATOM     38  C   LIG    1       -1.683   3.645   2.669  0.00  0.00    -0.047 C 
ATOM     39  C   LIG    1       -2.517   3.228   3.900  0.00  0.00    +0.096 C 
ATOM     40  C   LIG    1       -1.466   2.553   4.820  0.00  0.00    +0.011 C 
ATOM     41  C   LIG    1       -0.547   1.854   3.787  0.00  0.00    -0.076 C 
BRANCH  39  42
ATOM     42  O   LIG    1       -3.085   4.373   4.537  0.00  0.00    -0.394 OA
ATOM     43  H   LIG    1       -3.619   4.166   5.316  0.00  0.00    +0.210 HD
ENDBRANCH  39  42
ENDBRANCH  35  36
ENDBRANCH  33  35
ENDBRANCH  23  32
ENDBRANCH   1  26
BRANCH   8  44
ATOM     44  C   LIG    1        0.157  13.063   1.012  0.00  0.00    +0.436 C 
ATOM     45  F   LIG    1       -1.128  12.535   1.176  0.00  0.00    -0.164 F 
ATOM     46  F   LIG    1        0.097  14.188   0.183  0.00  0.00    -0.164 F 
ATOM     47  F   LIG    1        0.673  13.430   2.260  0.00  0.00    -0.164 F 
ENDBRANCH   8  44
TORSDOF 8
