REMARK  Name = ZINC19338859
REMARK                            x       y       z     vdW  Elec       q    Type
REMARK                         _______ _______ _______ _____ _____    ______ ____
ROOT
ATOM      1  C   LIG    1        0.989   5.909   0.022  0.00  0.00    +0.122 A 
ATOM      2  C   LIG    1        2.261   5.328   0.007  0.00  0.00    +0.052 A 
ATOM      3  C   LIG    1        2.381   3.947  -0.001  0.00  0.00    -0.005 A 
ATOM      4  C   LIG    1        1.144   3.165   0.008  0.00  0.00    +0.008 A 
ATOM      5  C   LIG    1        1.164   1.766   0.000  0.00  0.00    +0.010 A 
ATOM      6  C   LIG    1       -0.013   1.076   0.008  0.00  0.00    +0.001 A 
ATOM      7  C   LIG    1       -1.232   1.747   0.017  0.00  0.00    +0.002 A 
ATOM      8  C   LIG    1       -1.285   3.108   0.031  0.00  0.00    +0.028 A 
ATOM      9  C   LIG    1       -0.093   3.852   0.023  0.00  0.00    +0.074 A 
ATOM     10  N   LIG    1       -0.113   5.189   0.029  0.00  0.00    -0.232 NA
ENDROOT
BRANCH   1  16
ATOM     11  C   LIG    1        0.027  11.283   1.119  0.00  0.00    -0.096 C 
ATOM     12  N   LIG    1        0.137   9.818   1.110  0.00  0.00    +0.380 N 
ATOM     13  H   LIG    1       -0.321   9.441   2.036  0.00  0.00    -0.082 HD
ATOM     14  C   LIG    1       -0.595   9.241  -0.026  0.00  0.00    -0.060 C 
ATOM     15  C   LIG    1       -0.523   7.714   0.046  0.00  0.00    +0.088 C 
ATOM     16  N   LIG    1        0.885   7.292   0.030  0.00  0.00    -0.319 N 
ATOM     17  C   LIG    1        1.617   7.869   1.166  0.00  0.00    +0.088 C 
ATOM     18  C   LIG    1        1.544   9.396   1.095  0.00  0.00    -0.060 C 
ENDBRANCH   1  16
BRANCH   3  19
ATOM     19  C   LIG    1        3.708   3.289  -0.016  0.00  0.00    -0.017 A 
ATOM     20  C   LIG    1        4.002   2.283   0.905  0.00  0.00    +0.008 A 
ATOM     21  C   LIG    1        5.237   1.670   0.881  0.00  0.00    +0.001 A 
ATOM     22  C   LIG    1        6.189   2.059  -0.045  0.00  0.00    +0.000 A 
ATOM     23  C   LIG    1        5.905   3.060  -0.957  0.00  0.00    +0.001 A 
ATOM     24  C   LIG    1        4.671   3.677  -0.947  0.00  0.00    +0.008 A 
ENDBRANCH   3  19
TORSDOF 2
