REMARK  Name = ZINC53259547
REMARK                            x       y       z     vdW  Elec       q    Type
REMARK                         _______ _______ _______ _____ _____    ______ ____
ROOT
ATOM      1  C   LIG    1        3.711  -0.707  -0.038  0.00  0.00    +0.169 C 
ENDROOT
BRANCH   1   2
ATOM      2  C   LIG    1        4.044  -1.175   1.356  0.00  0.00    +0.237 C 
ATOM      3  N   LIG    1        4.575  -0.314   2.247  0.00  0.00    -0.300 N 
ATOM      4  C   LIG    1        4.875   1.103   1.995  0.00  0.00    +0.108 C 
ATOM      5  C   LIG    1        5.492   1.677   3.287  0.00  0.00    +0.020 C 
ATOM      6  C   LIG    1        6.028   0.412   4.009  0.00  0.00    +0.020 C 
ATOM      7  C   LIG    1        4.947  -0.636   3.636  0.00  0.00    +0.108 C 
ATOM      8  O   LIG    1        3.833  -2.325   1.676  0.00  0.00    -0.274 OA
ENDBRANCH   1   2
BRANCH   1  12
ATOM      9  C   LIG    1       -0.017   1.378   0.010  0.00  0.00    +0.000 A 
ATOM     10  C   LIG    1        1.171   2.086   0.002  0.00  0.00    +0.000 A 
ATOM     11  C   LIG    1        2.377   1.411  -0.013  0.00  0.00    +0.005 A 
ATOM     12  C   LIG    1        2.396   0.029  -0.020  0.00  0.00    -0.022 A 
ATOM     13  C   LIG    1        1.208  -0.679  -0.012  0.00  0.00    +0.005 A 
ATOM     14  C   LIG    1        0.002  -0.004   0.002  0.00  0.00    +0.000 A 
ENDBRANCH   1  12
BRANCH   1  15
ATOM     15  N   LIG    1        3.611  -1.868  -0.933  0.00  0.00    -0.316 NA
ATOM     16  H   LIG    1        3.453  -1.577  -1.886  0.00  0.00    +0.119 HD
ATOM     17  H   LIG    1        2.890  -2.502  -0.623  0.00  0.00    +0.119 HD
ENDBRANCH   1  15
TORSDOF 3
