REMARK  Name = ZINC16977173
REMARK                            x       y       z     vdW  Elec       q    Type
REMARK                         _______ _______ _______ _____ _____    ______ ____
ROOT
ATOM      1  C   LIG    1       -0.021   1.239  -0.348  0.00  0.00    +0.002 A 
ATOM      2  C   LIG    1        1.115   2.021  -0.389  0.00  0.00    +0.030 A 
ATOM      3  C   LIG    1        2.358   1.460  -0.096  0.00  0.00    +0.089 A 
ATOM      4  C   LIG    1        2.442   0.092   0.241  0.00  0.00    +0.089 A 
ATOM      5  C   LIG    1        1.280  -0.679   0.277  0.00  0.00    +0.030 A 
ATOM      6  C   LIG    1        0.061  -0.104  -0.017  0.00  0.00    +0.002 A 
ENDROOT
BRANCH   3   7
ATOM      7  N   LIG    1        3.486   2.228  -0.135  0.00  0.00    -0.253 NA
ATOM      8  C   LIG    1        3.509   3.383   0.471  0.00  0.00    +0.119 C 
BRANCH   8   9
ATOM      9  C   LIG    1        4.748   4.175   0.498  0.00  0.00    -0.003 A 
ATOM     10  C   LIG    1        4.778   5.411   1.152  0.00  0.00    +0.058 A 
ATOM     11  C   LIG    1        5.944   6.150   1.174  0.00  0.00    +0.159 A 
ATOM     12  C   LIG    1        7.089   5.663   0.544  0.00  0.00    +0.158 A 
ATOM     13  C   LIG    1        7.061   4.437  -0.105  0.00  0.00    +0.050 A 
ATOM     14  C   LIG    1        5.903   3.691  -0.126  0.00  0.00    +0.013 A 
BRANCH  11  15
ATOM     15  O   LIG    1        5.976   7.352   1.809  0.00  0.00    -0.503 OA
ATOM     16  H   LIG    1        6.226   7.298   2.741  0.00  0.00    +0.292 HD
ENDBRANCH  11  15
BRANCH  12  17
ATOM     17  O   LIG    1        8.236   6.392   0.566  0.00  0.00    -0.503 OA
ATOM     18  H   LIG    1        8.809   6.202   1.321  0.00  0.00    +0.292 HD
ENDBRANCH  12  17
ENDBRANCH   8   9
ENDBRANCH   3   7
BRANCH   4  19
ATOM     19  N   LIG    1        3.651  -0.472   0.530  0.00  0.00    -0.253 NA
ATOM     20  C   LIG    1        4.000  -1.593  -0.038  0.00  0.00    +0.119 C 
BRANCH  20  21
ATOM     21  C   LIG    1        5.247  -2.262   0.360  0.00  0.00    -0.003 A 
ATOM     22  C   LIG    1        5.627  -3.462  -0.252  0.00  0.00    +0.058 A 
ATOM     23  C   LIG    1        6.799  -4.086   0.126  0.00  0.00    +0.159 A 
ATOM     24  C   LIG    1        7.602  -3.520   1.117  0.00  0.00    +0.158 A 
ATOM     25  C   LIG    1        7.226  -2.330   1.725  0.00  0.00    +0.050 A 
ATOM     26  C   LIG    1        6.061  -1.698   1.349  0.00  0.00    +0.013 A 
BRANCH  23  27
ATOM     27  O   LIG    1        7.171  -5.252  -0.467  0.00  0.00    -0.503 OA
ATOM     28  H   LIG    1        7.719  -5.135  -1.254  0.00  0.00    +0.292 HD
ENDBRANCH  23  27
BRANCH  24  29
ATOM     29  O   LIG    1        8.754  -4.136   1.488  0.00  0.00    -0.503 OA
ATOM     30  H   LIG    1        9.529  -3.861   0.979  0.00  0.00    +0.292 HD
ENDBRANCH  24  29
ENDBRANCH  20  21
ENDBRANCH   4  19
TORSDOF 8
