REMARK  Name = ZINC34608502
REMARK                            x       y       z     vdW  Elec       q    Type
REMARK                         _______ _______ _______ _____ _____    ______ ____
ROOT
ATOM      1  N   LIG    1       -0.078  -3.118   7.522  0.00  0.00    +0.382 N 
ATOM      2  C   LIG    1        0.234  -4.409   8.141  0.00  0.00    -0.074 C 
ATOM      3  C   LIG    1        1.003  -5.291   7.155  0.00  0.00    -0.008 C 
ATOM      4  C   LIG    1        1.188  -4.519   5.842  0.00  0.00    +0.003 C 
ATOM      5  C   LIG    1       -0.198  -4.149   5.298  0.00  0.00    -0.008 C 
ATOM      6  C   LIG    1        1.950  -3.223   6.146  0.00  0.00    -0.008 C 
ATOM      7  C   LIG    1       -0.923  -3.315   6.342  0.00  0.00    -0.074 C 
ATOM      8  C   LIG    1        1.151  -2.407   7.164  0.00  0.00    -0.074 C 
ENDROOT
BRANCH   1   9
ATOM      9  C   LIG    1       -0.820  -2.304   8.494  0.00  0.00    -0.047 C 
BRANCH   9  10
ATOM     10  C   LIG    1       -1.236  -0.984   7.842  0.00  0.00    +0.142 C 
BRANCH  10  11
ATOM     11  O   LIG    1       -2.279  -1.228   6.896  0.00  0.00    -0.377 OA
BRANCH  11  12
ATOM     12  C   LIG    1       -2.742  -0.054   6.226  0.00  0.00    +0.195 C 
BRANCH  12  16
ATOM     13  C   LIG    1       -5.839  -1.107   3.479  0.00  0.00    +0.000 A 
ATOM     14  C   LIG    1       -6.156  -0.771   4.782  0.00  0.00    +0.000 A 
ATOM     15  C   LIG    1       -5.154  -0.430   5.671  0.00  0.00    +0.006 A 
ATOM     16  C   LIG    1       -3.835  -0.426   5.258  0.00  0.00    -0.022 A 
ATOM     17  C   LIG    1       -3.518  -0.763   3.955  0.00  0.00    +0.006 A 
ATOM     18  C   LIG    1       -4.521  -1.102   3.065  0.00  0.00    +0.000 A 
ENDBRANCH  12  16
ENDBRANCH  11  12
ENDBRANCH  10  11
ENDBRANCH   9  10
ENDBRANCH   1   9
BRANCH   4  19
ATOM     19  C   LIG    1        1.966  -5.367   4.834  0.00  0.00    +0.121 C 
BRANCH  19  20
ATOM     20  C   LIG    1        2.667  -4.464   3.852  0.00  0.00    -0.011 A 
ATOM     21  C   LIG    1        1.931  -3.616   3.045  0.00  0.00    +0.007 A 
ATOM     22  C   LIG    1        2.574  -2.788   2.145  0.00  0.00    +0.000 A 
ATOM     23  C   LIG    1        3.953  -2.807   2.051  0.00  0.00    +0.000 A 
ATOM     24  C   LIG    1        4.689  -3.654   2.859  0.00  0.00    +0.000 A 
ATOM     25  C   LIG    1        4.046  -4.479   3.762  0.00  0.00    +0.007 A 
ENDBRANCH  19  20
BRANCH  19  26
ATOM     26  C   LIG    1        1.012  -6.269   4.094  0.00  0.00    -0.011 A 
ATOM     27  C   LIG    1        0.872  -6.152   2.724  0.00  0.00    +0.007 A 
ATOM     28  C   LIG    1       -0.004  -6.979   2.045  0.00  0.00    +0.000 A 
ATOM     29  C   LIG    1       -0.739  -7.923   2.736  0.00  0.00    +0.000 A 
ATOM     30  C   LIG    1       -0.598  -8.041   4.106  0.00  0.00    +0.000 A 
ATOM     31  C   LIG    1        0.281  -7.217   4.784  0.00  0.00    +0.007 A 
ENDBRANCH  19  26
BRANCH  19  32
ATOM     32  O   LIG    1        2.933  -6.161   5.525  0.00  0.00    -0.379 OA
ATOM     33  H   LIG    1        3.581  -5.646   6.024  0.00  0.00    +0.211 HD
ENDBRANCH  19  32
ENDBRANCH   4  19
TORSDOF 9
