REMARK  Name = ZINC28643174
REMARK                            x       y       z     vdW  Elec       q    Type
REMARK                         _______ _______ _______ _____ _____    ______ ____
ROOT
ATOM      1  C   LIG    1       -0.017   1.389   0.010  0.00  0.00    +0.003 A 
ATOM      2  C   LIG    1        1.140   2.108   0.003  0.00  0.00    +0.010 A 
ATOM      3  C   LIG    1        2.372   1.436  -0.013  0.00  0.00    +0.002 A 
ATOM      4  C   LIG    1        3.596   2.123  -0.020  0.00  0.00    +0.119 A 
ATOM      5  N   LIG    1        4.723   1.451  -0.034  0.00  0.00    -0.263 NA
ATOM      6  C   LIG    1        4.769   0.126  -0.042  0.00  0.00    +0.111 A 
ATOM      7  C   LIG    1        3.638  -0.633  -0.036  0.00  0.00    +0.030 A 
ATOM      8  C   LIG    1        2.390   0.017  -0.021  0.00  0.00    +0.011 A 
ATOM      9  C   LIG    1        1.179  -0.690  -0.013  0.00  0.00    +0.113 A 
ATOM     10  C   LIG    1        0.002  -0.004   0.002  0.00  0.00    +0.029 A 
ENDROOT
BRANCH   9  11
ATOM     11  S   LIG    1        1.180  -2.452  -0.023  0.00  0.00    +0.057 S 
ATOM     12  O   LIG    1       -0.182  -2.859  -0.039  0.00  0.00    -0.153 OA
ATOM     13  O   LIG    1        2.086  -2.864   0.992  0.00  0.00    -0.153 OA
BRANCH  11  14
ATOM     14  N   LIG    1        1.835  -2.933  -1.466  0.00  0.00    -0.203 NA
ATOM     15  H   LIG    1        1.733  -2.377  -2.254  0.00  0.00    +0.144 HD
ATOM     16  H   LIG    1        2.320  -3.771  -1.523  0.00  0.00    +0.144 HD
ENDBRANCH  11  14
ENDBRANCH   9  11
TORSDOF 2
