REMARK  Name = ZINC00053012
REMARK                            x       y       z     vdW  Elec       q    Type
REMARK                         _______ _______ _______ _____ _____    ______ ____
ROOT
ATOM      1  C   LIG    1        2.388   1.404  -0.013  0.00  0.00    +0.142 A 
ATOM      2  C   LIG    1        2.399   0.018  -0.021  0.00  0.00    +0.047 A 
ATOM      3  C   LIG    1        1.207  -0.682  -0.014  0.00  0.00    +0.004 A 
ATOM      4  C   LIG    1        0.002  -0.004   0.002  0.00  0.00    +0.002 A 
ATOM      5  C   LIG    1       -0.017   1.378   0.010  0.00  0.00    +0.027 A 
ATOM      6  C   LIG    1        1.175   2.087   0.002  0.00  0.00    +0.086 A 
ENDROOT
BRANCH   6   7
ATOM      7  N   LIG    1        1.158   3.491   0.009  0.00  0.00    -0.200 N 
ATOM      8  C   LIG    1        1.145   4.272  -1.086  0.00  0.00    +0.251 C 
ATOM      9  C   LIG    1        1.127   5.686  -0.651  0.00  0.00    +0.073 C 
ATOM     10  C   LIG    1        1.139   5.679   0.692  0.00  0.00    +0.073 C 
ATOM     11  O   LIG    1        1.145   3.882  -2.236  0.00  0.00    -0.270 OA
ATOM     12  C   LIG    1        1.159   4.261   1.112  0.00  0.00    +0.251 C 
ATOM     13  O   LIG    1        1.175   3.860   2.258  0.00  0.00    -0.270 OA
ENDBRANCH   6   7
BRANCH   1  15
ATOM     14  C   LIG    1        4.765   1.327  -0.036  0.00  0.00    +0.277 C 
ATOM     15  O   LIG    1        3.559   2.094  -0.020  0.00  0.00    -0.493 OA
ENDBRANCH   1  15
TORSDOF 2
