REMARK  Name = ZINC00005900
REMARK                            x       y       z     vdW  Elec       q    Type
REMARK                         _______ _______ _______ _____ _____    ______ ____
ROOT
ATOM      1  C   LIG    1       -0.476   5.181   0.328  0.00  0.00    -0.018 A 
ATOM      2  C   LIG    1       -1.373   5.742   1.241  0.00  0.00    +0.057 A 
ATOM      3  C   LIG    1       -2.024   4.934   2.155  0.00  0.00    +0.166 A 
ATOM      4  C   LIG    1       -1.791   3.562   2.162  0.00  0.00    +0.204 A 
ATOM      5  C   LIG    1       -0.894   3.001   1.258  0.00  0.00    +0.166 A 
ATOM      6  C   LIG    1       -0.240   3.804   0.342  0.00  0.00    +0.057 A 
ENDROOT
BRANCH   1   8
ATOM      7  C   LIG    1        0.625   7.269  -0.291  0.00  0.00    +0.008 C 
ATOM      8  C   LIG    1        0.218   6.039  -0.648  0.00  0.00    +0.009 C 
BRANCH   7  12
ATOM      9  C   LIG    1        0.441   8.468   3.777  0.00  0.00    +0.120 A 
ATOM     10  C   LIG    1        0.149   9.381   2.772  0.00  0.00    +0.046 A 
ATOM     11  C   LIG    1        0.207   8.996   1.450  0.00  0.00    +0.011 A 
ATOM     12  C   LIG    1        0.561   7.685   1.121  0.00  0.00    -0.025 A 
ATOM     13  C   LIG    1        0.848   6.768   2.136  0.00  0.00    +0.011 A 
ATOM     14  C   LIG    1        0.792   7.163   3.455  0.00  0.00    +0.046 A 
BRANCH   9  16
ATOM     15  C   LIG    1        0.585   7.836   6.064  0.00  0.00    +0.277 C 
ATOM     16  O   LIG    1        0.382   8.851   5.079  0.00  0.00    -0.495 OA
ENDBRANCH   9  16
ENDBRANCH   7  12
ENDBRANCH   1   8
BRANCH   3  17
ATOM     17  O   LIG    1       -2.897   5.479   3.043  0.00  0.00    -0.491 OA
ATOM     18  C   LIG    1       -3.163   6.877   2.917  0.00  0.00    +0.277 C 
ENDBRANCH   3  17
BRANCH   4  19
ATOM     19  O   LIG    1       -2.437   2.768   3.059  0.00  0.00    -0.488 OA
ATOM     20  C   LIG    1       -1.798   2.561   4.320  0.00  0.00    +0.277 C 
ENDBRANCH   4  19
BRANCH   5  21
ATOM     21  O   LIG    1       -0.665   1.660   1.273  0.00  0.00    -0.491 OA
ATOM     22  C   LIG    1        0.263   1.150   0.313  0.00  0.00    +0.277 C 
ENDBRANCH   5  21
TORSDOF 6
