REMARK  Name = ZINC28640034
REMARK                            x       y       z     vdW  Elec       q    Type
REMARK                         _______ _______ _______ _____ _____    ______ ____
ROOT
ATOM      1  S   LIG    1        2.661   0.823   2.554  0.00  0.00    +0.059 S 
ATOM      2  O   LIG    1        1.518   1.522   3.027  0.00  0.00    -0.153 OA
ATOM      3  O   LIG    1        3.935   1.441   2.429  0.00  0.00    -0.153 OA
ENDROOT
BRANCH   1   4
ATOM      4  C   LIG    1        2.877  -0.566   3.616  0.00  0.00    +0.105 A 
ATOM      5  C   LIG    1        1.806  -1.056   4.339  0.00  0.00    +0.029 A 
ATOM      6  C   LIG    1        1.976  -2.146   5.173  0.00  0.00    +0.005 A 
ATOM      7  C   LIG    1        3.216  -2.746   5.282  0.00  0.00    -0.047 A 
ATOM      8  C   LIG    1        4.287  -2.257   4.558  0.00  0.00    +0.005 A 
ATOM      9  C   LIG    1        4.116  -1.170   3.721  0.00  0.00    +0.029 A 
BRANCH   7  10
ATOM     10  C   LIG    1        3.401  -3.934   6.191  0.00  0.00    +0.040 C 
BRANCH  10  11
ATOM     11  C   LIG    1        3.131  -5.221   5.410  0.00  0.00    +0.040 C 
BRANCH  11  12
ATOM     12  C   LIG    1        3.316  -6.409   6.319  0.00  0.00    -0.047 A 
ATOM     13  C   LIG    1        4.558  -7.005   6.433  0.00  0.00    +0.003 A 
ATOM     14  C   LIG    1        4.728  -8.095   7.267  0.00  0.00    +0.000 A 
ATOM     15  C   LIG    1        3.656  -8.587   7.987  0.00  0.00    +0.000 A 
ATOM     16  C   LIG    1        2.414  -7.990   7.875  0.00  0.00    +0.000 A 
ATOM     17  C   LIG    1        2.245  -6.898   7.044  0.00  0.00    +0.003 A 
ENDBRANCH  11  12
ENDBRANCH  10  11
ENDBRANCH   7  10
ENDBRANCH   1   4
BRANCH   1  18
ATOM     18  N   LIG    1        2.270   0.237   1.055  0.00  0.00    -0.175 NA
ATOM     19  H   LIG    1        2.883   0.356   0.312  0.00  0.00    +0.149 HD
BRANCH  18  20
ATOM     20  C   LIG    1        0.999  -0.461   0.850  0.00  0.00    +0.192 C 
BRANCH  20  22
ATOM     21  C   LIG    1        0.080   1.702   0.002  0.00  0.00    +0.009 C 
ATOM     22  C   LIG    1        0.227   0.207  -0.289  0.00  0.00    +0.013 C 
ATOM     23  C   LIG    1       -1.160  -0.428  -0.408  0.00  0.00    +0.009 C 
ENDBRANCH  20  22
BRANCH  20  24
ATOM     24  P   LIG    1        1.324  -2.204   0.423  0.00  0.00    +0.346 P 
ATOM     25  O   LIG    1        2.429  -2.762   1.348  0.00  0.00    -0.257 OA
BRANCH  24  26
ATOM     26  O   LIG    1        1.808  -2.299  -1.109  0.00  0.00    -0.323 OA
ATOM     27  H   LIG    1        2.000  -3.200  -1.406  0.00  0.00    +0.220 HD
ENDBRANCH  24  26
BRANCH  24  28
ATOM     28  O   LIG    1        0.031  -3.029   0.608  0.00  0.00    -0.323 OA
ATOM     29  H   LIG    1       -0.260  -2.971   1.531  0.00  0.00    +0.220 HD
ENDBRANCH  24  28
ENDBRANCH  20  24
ENDBRANCH  18  20
ENDBRANCH   1  18
TORSDOF 10
