REMARK  Name = ZINC35342787
REMARK                            x       y       z     vdW  Elec       q    Type
REMARK                         _______ _______ _______ _____ _____    ______ ____
ROOT
ATOM      1  C   LIG    1       -4.414  -2.341   3.111  0.00  0.00    -0.018 A 
ATOM      2  C   LIG    1       -5.116  -1.953   4.261  0.00  0.00    +0.044 A 
ATOM      3  C   LIG    1       -6.320  -2.547   4.565  0.00  0.00    +0.167 A 
ATOM      4  C   LIG    1       -6.842  -3.531   3.734  0.00  0.00    +0.189 A 
ATOM      5  C   LIG    1       -6.151  -3.923   2.588  0.00  0.00    +0.161 A 
ATOM      6  C   LIG    1       -4.946  -3.330   2.271  0.00  0.00    +0.057 A 
ENDROOT
BRANCH   1   8
ATOM      7  C   LIG    1       -2.754  -1.562   1.468  0.00  0.00    +0.114 C 
ATOM      8  C   LIG    1       -3.133  -1.711   2.785  0.00  0.00    +0.032 C 
BRANCH   7  10
ATOM      9  N   LIG    1       -1.073  -0.814  -0.138  0.00  0.00    -0.297 N 
ATOM     10  C   LIG    1       -1.402  -1.081   1.142  0.00  0.00    +0.257 C 
ATOM     11  O   LIG    1       -0.582  -0.925   2.026  0.00  0.00    -0.269 OA
BRANCH   9  13
ATOM     12  C   LIG    1        0.473   1.065  -0.387  0.00  0.00    +0.024 C 
ATOM     13  C   LIG    1        0.305  -0.453  -0.479  0.00  0.00    +0.105 C 
ENDBRANCH   9  13
BRANCH   9  14
ATOM     14  C   LIG    1       -2.093  -0.883  -1.187  0.00  0.00    +0.105 C 
ATOM     15  C   LIG    1       -2.192  -2.318  -1.708  0.00  0.00    +0.024 C 
ENDBRANCH   9  14
ENDBRANCH   7  10
BRANCH   7  16
ATOM     16  C   LIG    1       -3.676  -1.874   0.418  0.00  0.00    +0.104 C 
ATOM     17  N   LIG    1       -4.407  -2.123  -0.415  0.00  0.00    -0.191 NA
ENDBRANCH   7  16
ENDBRANCH   1   8
BRANCH   3  18
ATOM     18  N   LIG    1       -7.059  -2.137   5.779  0.00  0.00    +0.010 N 
ATOM     19  O   LIG    1       -6.606  -1.281   6.503  0.00  0.00    -0.130 OA
BRANCH  18  20
ATOM     20  O   LIG    1       -8.117  -2.657   6.048  0.00  0.00    -0.396 OA
ATOM     21  H   LIG    1       -8.469  -3.320   5.487  0.00  0.00    +0.329 HD
ENDBRANCH  18  20
ENDBRANCH   3  18
BRANCH   4  22
ATOM     22  O   LIG    1       -8.030  -4.113   4.040  0.00  0.00    -0.502 OA
ATOM     23  H   LIG    1       -8.798  -3.662   3.662  0.00  0.00    +0.292 HD
ENDBRANCH   4  22
BRANCH   5  24
ATOM     24  O   LIG    1       -6.666  -4.887   1.779  0.00  0.00    -0.503 OA
ATOM     25  H   LIG    1       -7.239  -4.548   1.078  0.00  0.00    +0.292 HD
ENDBRANCH   5  24
TORSDOF 9
