REMARK  Name = ZINC49033897
REMARK                            x       y       z     vdW  Elec       q    Type
REMARK                         _______ _______ _______ _____ _____    ______ ____
ROOT
ATOM      1  N   LIG    1        1.898  -4.563  -3.297  0.00  0.00    -0.175 NA
ATOM      2  C   LIG    1        1.947  -5.879  -3.372  0.00  0.00    +0.172 C 
ATOM      3  C   LIG    1        2.561  -6.699  -4.437  0.00  0.00    +0.121 C 
ATOM      4  N   LIG    1        2.382  -7.952  -4.115  0.00  0.00    -0.177 NA
ATOM      5  N   LIG    1        1.691  -8.072  -2.910  0.00  0.00    -0.201 N 
ATOM      6  H   LIG    1        1.453  -8.913  -2.489  0.00  0.00    +0.178 HD
ATOM      7  C   LIG    1        1.406  -6.853  -2.410  0.00  0.00    +0.285 C 
ATOM      8  O   LIG    1        0.818  -6.607  -1.371  0.00  0.00    -0.267 OA
ENDROOT
BRANCH   3   9
ATOM      9  C   LIG    1        3.252  -6.194  -5.646  0.00  0.00    +0.004 A 
ATOM     10  C   LIG    1        3.375  -4.821  -5.860  0.00  0.00    +0.010 A 
ATOM     11  C   LIG    1        4.020  -4.356  -6.988  0.00  0.00    +0.001 A 
ATOM     12  C   LIG    1        4.543  -5.248  -7.906  0.00  0.00    +0.000 A 
ATOM     13  C   LIG    1        4.424  -6.611  -7.700  0.00  0.00    +0.001 A 
ATOM     14  C   LIG    1        3.788  -7.088  -6.572  0.00  0.00    +0.010 A 
ENDBRANCH   3   9
BRANCH   1  15
ATOM     15  N   LIG    1        1.325  -3.995  -2.291  0.00  0.00    -0.237 N 
ATOM     16  H   LIG    1        0.929  -4.535  -1.589  0.00  0.00    +0.174 HD
BRANCH  15  21
ATOM     17  C   LIG    1        0.606  -0.607  -1.056  0.00  0.00    +0.122 A 
ATOM     18  C   LIG    1        1.173   0.162  -2.063  0.00  0.00    +0.046 A 
ATOM     19  C   LIG    1        1.788  -0.449  -3.139  0.00  0.00    +0.005 A 
ATOM     20  C   LIG    1        1.840  -1.827  -3.217  0.00  0.00    +0.025 A 
ATOM     21  C   LIG    1        1.273  -2.603  -2.212  0.00  0.00    +0.052 A 
ATOM     22  C   LIG    1        0.660  -1.990  -1.127  0.00  0.00    +0.070 A 
BRANCH  17  24
ATOM     23  C   LIG    1       -0.017   1.425   0.010  0.00  0.00    +0.277 C 
ATOM     24  O   LIG    1        0.002  -0.004   0.002  0.00  0.00    -0.495 OA
ENDBRANCH  17  24
ENDBRANCH  15  21
ENDBRANCH   1  15
TORSDOF 4
