REMARK  Name = ZINC16052012
REMARK                            x       y       z     vdW  Elec       q    Type
REMARK                         _______ _______ _______ _____ _____    ______ ____
ROOT
ATOM      1  C   LIG    1       -0.013   1.086   0.008  0.00  0.00    +0.172 C 
ATOM      2  C   LIG    1       -0.615   1.613   1.334  0.00  0.00    +0.172 C 
ATOM      3  C   LIG    1        0.579   1.515   2.315  0.00  0.00    +0.134 C 
ATOM      4  C   LIG    1        1.801   1.918   1.464  0.00  0.00    -0.012 C 
ATOM      5  C   LIG    1        1.425   1.645  -0.003  0.00  0.00    +0.134 C 
ENDROOT
BRANCH   4   6
ATOM      6  N   LIG    1        2.967   1.109   1.843  0.00  0.00    +0.383 N 
ATOM      7  H   LIG    1        3.178   1.260   2.818  0.00  0.00    -0.089 HD
ATOM      8  H   LIG    1        3.761   1.380   1.282  0.00  0.00    -0.089 HD
ATOM      9  H   LIG    1        2.764   0.133   1.690  0.00  0.00    -0.089 HD
ENDBRANCH   4   6
BRANCH   1  10
ATOM     10  O   LIG    1       -0.750   1.581  -1.111  0.00  0.00    -0.387 OA
ATOM     11  H   LIG    1       -1.670   1.283  -1.139  0.00  0.00    +0.210 HD
ENDBRANCH   1  10
BRANCH   2  12
ATOM     12  O   LIG    1       -1.049   2.967   1.191  0.00  0.00    -0.387 OA
ATOM     13  H   LIG    1       -1.742   3.090   0.528  0.00  0.00    +0.210 HD
ENDBRANCH   2  12
BRANCH   3  14
ATOM     14  O   LIG    1        0.406   2.421   3.406  0.00  0.00    -0.391 OA
ATOM     15  H   LIG    1       -0.382   2.247   3.941  0.00  0.00    +0.210 HD
ENDBRANCH   3  14
BRANCH   5  16
ATOM     16  O   LIG    1        1.472   2.860  -0.754  0.00  0.00    -0.391 OA
ATOM     17  H   LIG    1        1.224   2.757  -1.683  0.00  0.00    +0.210 HD
ENDBRANCH   5  16
TORSDOF 5
