REMARK  Name = ZINC13862789
REMARK                            x       y       z     vdW  Elec       q    Type
REMARK                         _______ _______ _______ _____ _____    ______ ____
ROOT
ATOM      1  N   LIG    1        1.208  -2.166   0.040  0.00  0.00    -0.258 N 
ATOM      2  C   LIG    1        0.222  -3.072   0.191  0.00  0.00    +0.324 C 
ATOM      3  O   LIG    1       -0.934  -2.708   0.234  0.00  0.00    -0.265 OA
ENDROOT
BRANCH   1   6
ATOM      4  C   LIG    1       -0.713   0.961   0.056  0.00  0.00    +0.017 A 
ATOM      5  C   LIG    1       -0.415  -0.383   0.053  0.00  0.00    +0.024 A 
ATOM      6  C   LIG    1        0.911  -0.804   0.044  0.00  0.00    +0.037 A 
ATOM      7  C   LIG    1        1.941   0.131   0.038  0.00  0.00    +0.024 A 
ATOM      8  C   LIG    1        1.651   1.477   0.042  0.00  0.00    +0.017 A 
ATOM      9  C   LIG    1        0.320   1.903   0.051  0.00  0.00    +0.059 A 
BRANCH   9  10
ATOM     10  C   LIG    1        0.005   3.344   0.054  0.00  0.00    +0.337 C 
ATOM     11  O   LIG    1       -1.153   3.713   0.062  0.00  0.00    -0.245 OA
BRANCH  10  12
ATOM     12  O   LIG    1        1.001   4.251   0.049  0.00  0.00    -0.477 OA
ATOM     13  H   LIG    1        1.894   3.967   0.044  0.00  0.00    +0.295 HD
ENDBRANCH  10  12
ENDBRANCH   9  10
ENDBRANCH   1   6
BRANCH   2  14
ATOM     14  C   LIG    1        0.555  -4.537   0.307  0.00  0.00    +0.470 C 
ATOM     15  F   LIG    1        1.294  -4.756   1.474  0.00  0.00    -0.162 F 
ATOM     16  F   LIG    1        1.309  -4.933  -0.804  0.00  0.00    -0.162 F 
ATOM     17  F   LIG    1       -0.628  -5.282   0.357  0.00  0.00    -0.162 F 
ENDBRANCH   2  14
BRANCH   1  18
ATOM     18  C   LIG    1        2.594  -2.613  -0.128  0.00  0.00    +0.170 C 
BRANCH  18  19
ATOM     19  C   LIG    1        2.935  -2.650  -1.595  0.00  0.00    +0.078 A 
ATOM     20  C   LIG    1        3.572  -1.557  -2.184  0.00  0.00    +0.138 A 
ATOM     21  N   LIG    1        3.865  -1.561  -3.466  0.00  0.00    -0.232 NA
ATOM     22  C   LIG    1        3.570  -2.632  -4.208  0.00  0.00    +0.187 A 
ATOM     23  N   LIG    1        3.863  -2.689  -5.513  0.00  0.00    -0.195 NA
ATOM     24  C   LIG    1        3.555  -3.758  -6.223  0.00  0.00    +0.195 A 
ATOM     25  N   LIG    1        2.948  -4.819  -5.697  0.00  0.00    -0.293 N 
ATOM     26  H   LIG    1        2.709  -5.686  -6.332  0.00  0.00    +0.172 HD
ATOM     27  C   LIG    1        2.621  -4.863  -4.418  0.00  0.00    +0.280 A 
ATOM     28  O   LIG    1        2.005  -5.949  -3.897  0.00  0.00    -0.265 OA
ATOM     29  C   LIG    1        2.928  -3.742  -3.605  0.00  0.00    +0.172 A 
ATOM     30  N   LIG    1        2.630  -3.713  -2.308  0.00  0.00    -0.240 NA
BRANCH  24  31
ATOM     31  N   LIG    1        3.875  -3.776  -7.566  0.00  0.00    -0.329 N 
ATOM     32  H   LIG    1        4.377  -2.910  -8.024  0.00  0.00    +0.145 HD
ATOM     33  H   LIG    1        3.629  -4.655  -8.179  0.00  0.00    +0.145 HD
ENDBRANCH  24  31
ENDBRANCH  18  19
ENDBRANCH   1  18
TORSDOF 7
