REMARK  Name = ZINC23282949
REMARK                            x       y       z     vdW  Elec       q    Type
REMARK                         _______ _______ _______ _____ _____    ______ ____
ROOT
ATOM      1  N   LIG    1       -0.909   7.723   1.112  0.00  0.00    -0.297 NA
ATOM      2  C   LIG    1       -1.653   7.160  -0.024  0.00  0.00    +0.100 C 
ATOM      3  C   LIG    1       -1.609   5.632   0.048  0.00  0.00    +0.101 C 
ATOM      4  N   LIG    1       -0.210   5.183   0.032  0.00  0.00    -0.285 NA
ATOM      5  C   LIG    1        0.534   5.746   1.168  0.00  0.00    +0.101 C 
ATOM      6  C   LIG    1        0.490   7.274   1.097  0.00  0.00    +0.100 C 
ENDROOT
BRANCH   4   7
ATOM      7  C   LIG    1       -0.132   3.796   0.024  0.00  0.00    +0.124 C 
ATOM      8  C   LIG    1        1.114   3.175   0.009  0.00  0.00    +0.035 C 
ATOM      9  C   LIG    1        1.176   1.794   0.001  0.00  0.00    +0.004 C 
ATOM     10  C   LIG    1       -0.013   1.076   0.008  0.00  0.00    +0.015 C 
ATOM     11  C   LIG    1       -1.213   1.757   0.017  0.00  0.00    +0.082 C 
ATOM     12  N   LIG    1       -1.243   3.076   0.030  0.00  0.00    -0.301 NA
ATOM     13  H   LIG    1       -2.222   3.577   0.046  0.00  0.00    +0.123 HD
ENDBRANCH   4   7
BRANCH   1  17
ATOM     14  C   LIG    1        0.301  11.817   1.027  0.00  0.00    +0.019 C 
ATOM     15  C   LIG    1       -0.293  11.265   2.324  0.00  0.00    +0.010 C 
ATOM     16  C   LIG    1       -0.208   9.737   2.315  0.00  0.00    +0.019 C 
ATOM     17  C   LIG    1       -0.992   9.190   1.121  0.00  0.00    +0.057 C 
ATOM     18  C   LIG    1       -0.397   9.742  -0.176  0.00  0.00    +0.019 C 
ATOM     19  C   LIG    1       -0.482  11.269  -0.167  0.00  0.00    +0.010 C 
BRANCH  14  23
ATOM     20  C   LIG    1        0.062  16.082   1.052  0.00  0.00    +0.000 A 
ATOM     21  C   LIG    1        1.292  15.459   0.958  0.00  0.00    +0.000 A 
ATOM     22  C   LIG    1        1.370  14.079   0.950  0.00  0.00    +0.004 A 
ATOM     23  C   LIG    1        0.217  13.321   1.036  0.00  0.00    -0.044 A 
ATOM     24  C   LIG    1       -1.014  13.944   1.125  0.00  0.00    +0.004 A 
ATOM     25  C   LIG    1       -1.091  15.324   1.138  0.00  0.00    +0.000 A 
ENDBRANCH  14  23
ENDBRANCH   1  17
TORSDOF 3
