REMARK  Name = ZINC16291824
REMARK                            x       y       z     vdW  Elec       q    Type
REMARK                         _______ _______ _______ _____ _____    ______ ____
ROOT
ATOM      1  C   LIG    1       -0.753   1.593  -1.232  0.00  0.00    +0.108 C 
ENDROOT
BRANCH   1   2
ATOM      2  C   LIG    1       -0.121   1.007  -2.468  0.00  0.00    -0.027 A 
ATOM      3  C   LIG    1        1.037   1.561  -2.982  0.00  0.00    +0.005 A 
ATOM      4  C   LIG    1        1.618   1.021  -4.113  0.00  0.00    +0.000 A 
ATOM      5  C   LIG    1        1.037  -0.067  -4.737  0.00  0.00    +0.000 A 
ATOM      6  C   LIG    1       -0.123  -0.618  -4.226  0.00  0.00    +0.000 A 
ATOM      7  C   LIG    1       -0.702  -0.081  -3.092  0.00  0.00    +0.005 A 
ENDBRANCH   1   2
BRANCH   1   8
ATOM      8  N   LIG    1       -0.670   3.054  -1.286  0.00  0.00    -0.337 N 
ATOM      9  H   LIG    1        0.063   3.515  -0.849  0.00  0.00    +0.147 HD
BRANCH   8  10
ATOM     10  C   LIG    1       -1.646   3.784  -1.968  0.00  0.00    +0.028 A 
ATOM     11  C   LIG    1       -2.693   3.125  -2.600  0.00  0.00    +0.025 A 
ATOM     12  C   LIG    1       -3.660   3.851  -3.268  0.00  0.00    +0.034 A 
ATOM     13  C   LIG    1       -3.580   5.230  -3.319  0.00  0.00    +0.122 A 
ATOM     14  C   LIG    1       -2.536   5.889  -2.696  0.00  0.00    +0.034 A 
ATOM     15  C   LIG    1       -1.569   5.170  -2.021  0.00  0.00    +0.025 A 
BRANCH  13  16
ATOM     16  N   LIG    1       -4.615   6.004  -4.041  0.00  0.00    +0.006 N 
ATOM     17  O   LIG    1       -4.546   7.219  -4.086  0.00  0.00    -0.130 OA
BRANCH  16  18
ATOM     18  O   LIG    1       -5.536   5.425  -4.590  0.00  0.00    -0.396 OA
ATOM     19  H   LIG    1       -5.589   4.490  -4.555  0.00  0.00    +0.329 HD
ENDBRANCH  16  18
ENDBRANCH  13  16
ENDBRANCH   8  10
ENDBRANCH   1   8
BRANCH   1  20
ATOM     20  C   LIG    1       -0.013   1.086   0.008  0.00  0.00    +0.106 C 
BRANCH  20  21
ATOM     21  C   LIG    1       -0.718   1.572   1.248  0.00  0.00    +0.165 C 
ATOM     22  O   LIG    1       -1.714   2.256   1.150  0.00  0.00    -0.292 OA
BRANCH  21  27
ATOM     23  C   LIG    1        1.313   0.181   6.443  0.00  0.00    +0.044 C 
ATOM     24  C   LIG    1        0.781   0.545   5.081  0.00  0.00    -0.050 A 
ATOM     25  C   LIG    1       -0.356   1.327   4.973  0.00  0.00    +0.004 A 
ATOM     26  C   LIG    1       -0.850   1.665   3.731  0.00  0.00    +0.011 A 
ATOM     27  C   LIG    1       -0.198   1.216   2.578  0.00  0.00    +0.017 A 
ATOM     28  C   LIG    1        0.948   0.422   2.695  0.00  0.00    +0.011 A 
ATOM     29  C   LIG    1        1.432   0.098   3.945  0.00  0.00    +0.004 A 
ENDBRANCH  21  27
ENDBRANCH  20  21
ENDBRANCH   1  20
TORSDOF 8
