REMARK  Name = ZINC19227923
REMARK                            x       y       z     vdW  Elec       q    Type
REMARK                         _______ _______ _______ _____ _____    ______ ____
ROOT
ATOM      1  C   LIG    1       -1.599  -1.773   0.630  0.00  0.00    +0.285 C 
ATOM      2  C   LIG    1       -2.814  -2.349   0.329  0.00  0.00    +0.065 C 
ATOM      3  C   LIG    1       -3.048  -3.840   0.497  0.00  0.00    +0.096 C 
ATOM      4  C   LIG    1       -4.433  -4.338   0.128  0.00  0.00    +0.069 C 
ATOM      5  C   LIG    1       -5.338  -3.417  -0.317  0.00  0.00    +0.049 C 
ATOM      6  C   LIG    1       -6.722  -3.882  -0.691  0.00  0.00    +0.066 C 
ATOM      7  N   LIG    1       -5.044  -2.131  -0.431  0.00  0.00    -0.256 NA
ATOM      8  C   LIG    1       -3.886  -1.586  -0.138  0.00  0.00    +0.049 C 
ATOM      9  C   LIG    1       -3.707  -0.101  -0.316  0.00  0.00    +0.066 C 
ENDROOT
BRANCH   3  10
ATOM     10  C   LIG    1       -2.791  -4.198   1.938  0.00  0.00    -0.033 A 
ATOM     11  C   LIG    1       -3.543  -3.612   2.940  0.00  0.00    +0.005 A 
ATOM     12  C   LIG    1       -3.308  -3.941   4.262  0.00  0.00    +0.003 A 
ATOM     13  C   LIG    1       -2.321  -4.854   4.582  0.00  0.00    +0.032 A 
ATOM     14  C   LIG    1       -1.569  -5.440   3.580  0.00  0.00    +0.122 A 
ATOM     15  C   LIG    1       -1.808  -5.115   2.258  0.00  0.00    +0.037 A 
BRANCH  14  16
ATOM     16  N   LIG    1       -0.512  -6.417   3.924  0.00  0.00    +0.006 N 
ATOM     17  O   LIG    1       -0.306  -6.703   5.080  0.00  0.00    -0.130 OA
BRANCH  16  18
ATOM     18  O   LIG    1        0.145  -6.929   3.047  0.00  0.00    -0.396 OA
ATOM     19  H   LIG    1       -0.015  -6.708   2.151  0.00  0.00    +0.329 HD
ENDBRANCH  16  18
ENDBRANCH  14  16
ENDBRANCH   3  10
BRANCH   1  20
ATOM     20  O   LIG    1       -0.615  -2.520   1.169  0.00  0.00    -0.480 OA
ATOM     21  H   LIG    1        0.212  -2.128   1.373  0.00  0.00    +0.295 HD
ENDBRANCH   1  20
BRANCH   4  22
ATOM     22  C   LIG    1       -4.772  -5.698   0.240  0.00  0.00    +0.338 C 
ATOM     23  O   LIG    1       -5.920  -6.057   0.046  0.00  0.00    -0.245 OA
BRANCH  22  24
ATOM     24  O   LIG    1       -3.825  -6.606   0.562  0.00  0.00    -0.465 OA
ATOM     25  C   LIG    1       -4.241  -7.970   0.658  0.00  0.00    +0.280 C 
ENDBRANCH  22  24
ENDBRANCH   4  22
BRANCH   1  26
ATOM     26  O   LIG    1       -1.395  -0.464   0.386  0.00  0.00    -0.464 OA
BRANCH  26  28
ATOM     27  C   LIG    1       -0.068   1.556   0.377  0.00  0.00    +0.048 C 
ATOM     28  C   LIG    1       -0.112   0.067   0.723  0.00  0.00    +0.229 C 
ENDBRANCH  26  28
ENDBRANCH   1  26
TORSDOF 8
