REMARK  Name = ZINC29241818
REMARK                            x       y       z     vdW  Elec       q    Type
REMARK                         _______ _______ _______ _____ _____    ______ ____
ROOT
ATOM      1  C   LIG    1        1.276   4.424   0.014  0.00  0.00    +0.048 A 
ATOM      2  C   LIG    1        0.501   5.549   0.027  0.00  0.00    +0.115 A 
ATOM      3  N   LIG    1       -0.821   5.478   0.039  0.00  0.00    -0.238 NA
ATOM      4  C   LIG    1       -1.466   4.324   0.039  0.00  0.00    +0.144 A 
ATOM      5  C   LIG    1       -0.746   3.119   0.026  0.00  0.00    +0.128 A 
ATOM      6  N   LIG    1       -1.089   1.808   0.017  0.00  0.00    -0.232 NA
ATOM      7  C   LIG    1       -0.013   1.076   0.008  0.00  0.00    +0.201 A 
ATOM      8  N   LIG    1        1.093   1.872   0.002  0.00  0.00    -0.320 N 
ATOM      9  C   LIG    1        0.658   3.176   0.013  0.00  0.00    +0.074 A 
ENDROOT
BRANCH   8  10
ATOM     10  C   LIG    1        2.487   1.422  -0.013  0.00  0.00    +0.143 C 
ATOM     11  C   LIG    1        2.772   0.551   1.188  0.00  0.00    +0.004 C 
ATOM     12  C   LIG    1        2.790  -0.712   0.859  0.00  0.00    -0.016 C 
ATOM     13  C   LIG    1        2.520  -0.893  -0.617  0.00  0.00    +0.173 C 
ATOM     14  C   LIG    1        2.745   0.507  -1.233  0.00  0.00    +0.174 C 
BRANCH  13  15
ATOM     15  O   LIG    1        1.172  -1.320  -0.828  0.00  0.00    -0.385 OA
ATOM     16  H   LIG    1        0.806  -1.500  -1.849  0.00  0.00    +0.210 HD
ENDBRANCH  13  15
BRANCH  14  17
ATOM     17  O   LIG    1        4.085   0.650  -1.707  0.00  0.00    -0.387 OA
ATOM     18  H   LIG    1        4.427   0.064  -2.573  0.00  0.00    +0.210 HD
ENDBRANCH  14  17
BRANCH  12  19
ATOM     19  C   LIG    1        3.046  -1.841   1.823  0.00  0.00    +0.189 C 
BRANCH  19  20
ATOM     20  O   LIG    1        3.261  -1.309   3.132  0.00  0.00    -0.391 OA
ATOM     21  H   LIG    1        3.465  -1.987   3.974  0.00  0.00    +0.210 HD
ENDBRANCH  19  20
ENDBRANCH  12  19
ENDBRANCH   8  10
BRANCH   4  22
ATOM     22  N   LIG    1       -2.854   4.303   0.053  0.00  0.00    -0.341 N 
ATOM     23  H   LIG    1       -3.418   5.248   0.064  0.00  0.00    +0.144 HD
ATOM     24  H   LIG    1       -3.390   3.343   0.053  0.00  0.00    +0.144 HD
ENDBRANCH   4  22
TORSDOF 6
