REMARK  Name = ZINC26665352
REMARK                            x       y       z     vdW  Elec       q    Type
REMARK                         _______ _______ _______ _____ _____    ______ ____
ROOT
ATOM      1  C   PRO A  2        7.406  -3.700   0.055  0.00  0.00    +0.234 C 
ATOM      2  N   ARG A  3        8.520  -4.427  -0.163  0.00  0.00    -0.301 N 
ATOM      3  H   ARG A  3        8.718  -5.191   0.401  0.00  0.00    +0.150 HD
ATOM      4  O   PRO A  2        7.158  -2.744  -0.650  0.00  0.00    -0.274 OA
ENDROOT
BRANCH   1  10
ATOM      5  C   PHE A  1        5.422  -1.804   1.383  0.00  0.00    +0.202 C 
ATOM      6  N   PRO A  2        5.334  -3.138   1.209  0.00  0.00    -0.291 N 
ATOM      7  CD  PRO A  2        4.087  -3.900   1.017  0.00  0.00    +0.108 C 
ATOM      8  CG  PRO A  2        4.519  -5.186   0.269  0.00  0.00    +0.021 C 
ATOM      9  CB  PRO A  2        5.891  -5.484   0.929  0.00  0.00    +0.033 C 
ATOM     10  CA  PRO A  2        6.468  -4.074   1.173  0.00  0.00    +0.162 C 
ATOM     11  O   PHE A  1        6.506  -1.282   1.528  0.00  0.00    -0.277 OA
BRANCH   5  12
ATOM     12  CA  PHE A  1        4.171  -0.963   1.399  0.00  0.00    +0.017 C 
BRANCH  12  13
ATOM     13  N   PHE A  1        4.452   0.319   2.059  0.00  0.00    +0.386 N 
ATOM     14  H1  PHE A  1        5.178   0.805   1.555  0.00  0.00    -0.089 HD
ATOM     15  H2  PHE A  1        4.755   0.150   3.006  0.00  0.00    -0.089 HD
ATOM     16  H3  PHE A  1        3.615   0.882   2.070  0.00  0.00    -0.089 HD
ENDBRANCH  12  13
BRANCH  12  17
ATOM     17  CB  PHE A  1        3.711  -0.707  -0.038  0.00  0.00    +0.028 C 
BRANCH  17  21
ATOM     18  CZ  PHE A  1       -0.017   1.378   0.010  0.00  0.00    +0.000 A 
ATOM     19  CE1 PHE A  1        1.171   2.086   0.002  0.00  0.00    +0.000 A 
ATOM     20  CD1 PHE A  1        2.377   1.411  -0.013  0.00  0.00    +0.003 A 
ATOM     21  CG  PHE A  1        2.396   0.029  -0.020  0.00  0.00    -0.048 A 
ATOM     22  CD2 PHE A  1        1.208  -0.679  -0.012  0.00  0.00    +0.003 A 
ATOM     23  CE2 PHE A  1        0.002  -0.004   0.002  0.00  0.00    +0.000 A 
ENDBRANCH  17  21
ENDBRANCH  12  17
ENDBRANCH   5  12
ENDBRANCH   1  10
BRANCH   2  24
ATOM     24  CA  ARG A  3        9.431  -4.064  -1.250  0.00  0.00    +0.182 C 
BRANCH  24  25
ATOM     25  C   ARG A  3        8.950  -4.683  -2.537  0.00  0.00    +0.325 C 
ATOM     26  O   ARG A  3        7.939  -5.365  -2.545  0.00  0.00    -0.249 OA
BRANCH  25  27
ATOM     27  OXT ARG A  3        9.572  -4.502  -3.570  0.00  0.00    -0.479 OA
ATOM     28  HXT ARG A  3       10.348  -3.978  -3.564  0.00  0.00    +0.295 HD
ENDBRANCH  25  27
ENDBRANCH  24  25
BRANCH  24  29
ATOM     29  CB  ARG A  3       10.836  -4.578  -0.931  0.00  0.00    +0.037 C 
BRANCH  29  30
ATOM     30  CG  ARG A  3       11.375  -3.856   0.306  0.00  0.00    +0.039 C 
BRANCH  30  31
ATOM     31  CD  ARG A  3       12.780  -4.370   0.625  0.00  0.00    +0.196 C 
BRANCH  31  32
ATOM     32  NE  ARG A  3       13.295  -3.679   1.810  0.00  0.00    -0.279 N 
ATOM     33  HE  ARG A  3       12.752  -3.011   2.257  0.00  0.00    +0.258 HD
ATOM     34  CZ  ARG A  3       14.484  -3.962   2.264  0.00  0.00    +0.341 C 
BRANCH  34  35
ATOM     35  NH2 ARG A  3       14.967  -3.314   3.376  0.00  0.00    -0.292 N 
ATOM     36 HH21 ARG A  3       15.852  -3.525   3.714  0.00  0.00    +0.255 HD
ATOM     37 HH22 ARG A  3       14.424  -2.646   3.822  0.00  0.00    +0.255 HD
ENDBRANCH  34  35
BRANCH  34  38
ATOM     38  NH1 ARG A  3       15.254  -4.909   1.631  0.00  0.00    -0.292 N 
ATOM     39 HH11 ARG A  3       16.138  -5.120   1.969  0.00  0.00    +0.255 HD
ATOM     40 HH12 ARG A  3       14.913  -5.367   0.847  0.00  0.00    +0.255 HD
ENDBRANCH  34  38
ENDBRANCH  31  32
ENDBRANCH  30  31
ENDBRANCH  29  30
ENDBRANCH  24  29
ENDBRANCH   2  24
TORSDOF 14
