REMARK  Name = ZINC38337192
REMARK                            x       y       z     vdW  Elec       q    Type
REMARK                         _______ _______ _______ _____ _____    ______ ____
ROOT
ATOM      1  C   LIG    1        5.574   0.603   1.395  0.00  0.00    +0.002 C 
ENDROOT
BRANCH   1   2
ATOM      2  C   LIG    1        4.044   0.624   1.409  0.00  0.00    +0.022 C 
BRANCH   2   3
ATOM      3  C   LIG    1        3.521   0.638  -0.028  0.00  0.00    +0.123 C 
BRANCH   3   6
ATOM      4  C   LIG    1       -0.016   1.337   0.009  0.00  0.00    +0.130 A 
ATOM      5  C   LIG    1        1.259   1.771  -0.000  0.00  0.00    +0.106 A 
ATOM      6  N   LIG    1        2.056   0.658  -0.014  0.00  0.00    -0.337 N 
ATOM      7  C   LIG    1        1.240  -0.418  -0.012  0.00  0.00    +0.199 A 
ATOM      8  N   LIG    1        0.002  -0.004   0.002  0.00  0.00    -0.244 NA
ENDBRANCH   3   6
ENDBRANCH   2   3
ENDBRANCH   1   2
BRANCH   1   9
ATOM      9  C   LIG    1        6.098   0.588   2.832  0.00  0.00    +0.000 C 
BRANCH   9  10
ATOM     10  C   LIG    1        7.628   0.568   2.817  0.00  0.00    +0.001 C 
BRANCH  10  11
ATOM     11  C   LIG    1        8.151   0.553   4.255  0.00  0.00    +0.011 C 
BRANCH  11  12
ATOM     12  C   LIG    1        9.681   0.532   4.240  0.00  0.00    +0.120 C 
BRANCH  12  13
ATOM     13  C   LIG    1       10.197   0.517   5.656  0.00  0.00    +0.305 C 
ATOM     14  O   LIG    1        9.414   0.523   6.590  0.00  0.00    -0.251 OA
BRANCH  13  15
ATOM     15  O   LIG    1       11.398   0.500   5.867  0.00  0.00    -0.481 OA
ATOM     16  H   LIG    1       12.000   0.496   5.149  0.00  0.00    +0.295 HD
ENDBRANCH  13  15
ENDBRANCH  12  13
ENDBRANCH  11  12
ENDBRANCH  10  11
ENDBRANCH   9  10
ENDBRANCH   1   9
TORSDOF 9
