REMARK  Name = ZINC14959061
REMARK                            x       y       z     vdW  Elec       q    Type
REMARK                         _______ _______ _______ _____ _____    ______ ____
ROOT
ATOM      1  N   LIG    1        0.640  -0.491  -1.497  0.00  0.00    -0.293 N 
ATOM      2  C   LIG    1       -0.208  -1.380  -2.051  0.00  0.00    +0.263 C 
ATOM      3  O   LIG    1       -1.346  -1.480  -1.631  0.00  0.00    -0.268 OA
ATOM      4  C   LIG    1        1.969  -0.286  -2.078  0.00  0.00    +0.133 C 
ENDROOT
BRANCH   2   5
ATOM      5  C   LIG    1        0.240  -2.229  -3.160  0.00  0.00    +0.102 A 
ATOM      6  C   LIG    1       -0.546  -3.086  -3.900  0.00  0.00    +0.032 A 
ATOM      7  C   LIG    1        0.284  -3.688  -4.851  0.00  0.00    +0.020 A 
ATOM      8  C   LIG    1        1.538  -3.206  -4.673  0.00  0.00    +0.083 A 
ATOM      9  N   LIG    1        1.524  -2.318  -3.649  0.00  0.00    -0.357 N 
ATOM     10  H   LIG    1        2.292  -1.827  -3.316  0.00  0.00    +0.165 HD
ENDBRANCH   2   5
BRANCH   1  12
ATOM     11  C   LIG    1        0.426   1.766  -0.579  0.00  0.00    +0.033 C 
ATOM     12  C   LIG    1        0.232   0.272  -0.315  0.00  0.00    +0.103 C 
BRANCH  12  13
ATOM     13  C   LIG    1        1.073  -0.143   0.865  0.00  0.00    -0.027 A 
ATOM     14  C   LIG    1        0.466  -0.587   2.025  0.00  0.00    +0.005 A 
ATOM     15  C   LIG    1        1.238  -0.972   3.105  0.00  0.00    +0.000 A 
ATOM     16  C   LIG    1        2.616  -0.904   3.029  0.00  0.00    +0.000 A 
ATOM     17  C   LIG    1        3.223  -0.456   1.871  0.00  0.00    +0.000 A 
ATOM     18  C   LIG    1        2.452  -0.075   0.789  0.00  0.00    +0.005 A 
ENDBRANCH  12  13
ENDBRANCH   1  12
TORSDOF 3
