REMARK  Name = ZINC14242980
REMARK                            x       y       z     vdW  Elec       q    Type
REMARK                         _______ _______ _______ _____ _____    ______ ____
ROOT
ATOM      1  C   LIG    1      -11.336 -14.950   0.030  0.00  0.00    +0.141 C 
ENDROOT
BRANCH   1   2
ATOM      2  C   LIG    1      -12.002 -14.567   1.326  0.00  0.00    +0.311 C 
ATOM      3  O   LIG    1      -11.387 -13.930   2.164  0.00  0.00    -0.251 OA
BRANCH   2   4
ATOM      4  O   LIG    1      -13.158 -14.895   1.537  0.00  0.00    -0.480 OA
ATOM      5  H   LIG    1      -13.631 -15.384   0.894  0.00  0.00    +0.295 HD
ENDBRANCH   2   4
ENDBRANCH   1   2
BRANCH   1   6
ATOM      6  C   LIG    1      -11.318 -16.474  -0.104  0.00  0.00    +0.185 C 
BRANCH   6   7
ATOM      7  C   LIG    1      -10.554 -17.070   1.049  0.00  0.00    +0.338 C 
ATOM      8  O   LIG    1      -10.929 -16.880   2.193  0.00  0.00    -0.248 OA
BRANCH   7   9
ATOM      9  O   LIG    1       -9.560 -17.744   0.838  0.00  0.00    -0.479 OA
ATOM     10  H   LIG    1       -9.271 -17.891  -0.041  0.00  0.00    +0.295 HD
ENDBRANCH   7   9
ENDBRANCH   6   7
BRANCH   6  11
ATOM     11  O   LIG    1      -10.686 -16.836  -1.333  0.00  0.00    -0.376 OA
ATOM     12  H   LIG    1      -11.125 -16.486  -2.120  0.00  0.00    +0.211 HD
ENDBRANCH   6  11
BRANCH   6  13
ATOM     13  C   LIG    1      -12.754 -17.003  -0.093  0.00  0.00    +0.167 C 
BRANCH  13  14
ATOM     14  C   LIG    1      -12.733 -18.510  -0.102  0.00  0.00    +0.308 C 
ATOM     15  O   LIG    1      -11.669 -19.105  -0.115  0.00  0.00    -0.251 OA
BRANCH  14  16
ATOM     16  O   LIG    1      -13.780 -19.134  -0.095  0.00  0.00    -0.481 OA
ATOM     17  H   LIG    1      -14.598 -18.677  -0.085  0.00  0.00    +0.295 HD
ENDBRANCH  14  16
ENDBRANCH  13  14
ENDBRANCH   6  13
ENDBRANCH   1   6
BRANCH   1  18
ATOM     18  C   LIG    1       -9.900 -14.420   0.019  0.00  0.00    +0.018 C 
BRANCH  18  19
ATOM     19  C   LIG    1       -9.921 -12.890   0.028  0.00  0.00    +0.001 C 
BRANCH  19  20
ATOM     20  C   LIG    1       -8.486 -12.361   0.017  0.00  0.00    +0.000 C 
BRANCH  20  21
ATOM     21  C   LIG    1       -8.507 -10.831   0.025  0.00  0.00    +0.000 C 
BRANCH  21  22
ATOM     22  C   LIG    1       -7.071 -10.301   0.014  0.00  0.00    +0.000 C 
BRANCH  22  23
ATOM     23  C   LIG    1       -7.092  -8.771   0.023  0.00  0.00    -0.000 C 
BRANCH  23  24
ATOM     24  C   LIG    1       -5.657  -8.242   0.012  0.00  0.00    -0.000 C 
BRANCH  24  25
ATOM     25  C   LIG    1       -5.677  -6.712   0.020  0.00  0.00    -0.000 C 
BRANCH  25  26
ATOM     26  C   LIG    1       -4.242  -6.182   0.009  0.00  0.00    -0.000 C 
BRANCH  26  27
ATOM     27  C   LIG    1       -4.263  -4.652   0.018  0.00  0.00    -0.000 C 
BRANCH  27  28
ATOM     28  C   LIG    1       -2.827  -4.123   0.007  0.00  0.00    -0.000 C 
BRANCH  28  29
ATOM     29  C   LIG    1       -2.848  -2.593   0.015  0.00  0.00    -0.000 C 
BRANCH  29  30
ATOM     30  C   LIG    1       -1.413  -2.063   0.004  0.00  0.00    -0.000 C 
BRANCH  30  31
ATOM     31  C   LIG    1       -1.433  -0.534   0.013  0.00  0.00    -0.000 C 
BRANCH  31  33
ATOM     32  C   LIG    1       -0.019   1.526   0.010  0.00  0.00    +0.004 C 
ATOM     33  C   LIG    1        0.002  -0.004   0.002  0.00  0.00    -0.003 C 
ENDBRANCH  31  33
ENDBRANCH  30  31
ENDBRANCH  29  30
ENDBRANCH  28  29
ENDBRANCH  27  28
ENDBRANCH  26  27
ENDBRANCH  25  26
ENDBRANCH  24  25
ENDBRANCH  23  24
ENDBRANCH  22  23
ENDBRANCH  21  22
ENDBRANCH  20  21
ENDBRANCH  19  20
ENDBRANCH  18  19
ENDBRANCH   1  18
TORSDOF 24
