REMARK  Name = ZINC29134496
REMARK                            x       y       z     vdW  Elec       q    Type
REMARK                         _______ _______ _______ _____ _____    ______ ____
ROOT
ATOM      1  C   LIG    1       -5.057   1.775  -2.751  0.00  0.00    +0.011 C 
ATOM      2  C   LIG    1       -5.243   0.703  -1.681  0.00  0.00    +0.033 C 
ATOM      3  C   LIG    1       -4.080  -0.187  -1.693  0.00  0.00    +0.008 C 
ATOM      4  C   LIG    1       -2.762   0.438  -1.327  0.00  0.00    +0.012 C 
ATOM      5  C   LIG    1       -2.575   0.969   0.019  0.00  0.00    +0.069 C 
ATOM      6  C   LIG    1       -3.387   2.148   0.521  0.00  0.00    +0.219 C 
ATOM      7  O   LIG    1       -2.693   3.318   0.175  0.00  0.00    -0.454 OA
ATOM      8  C   LIG    1       -1.450   3.091   0.006  0.00  0.00    +0.335 C 
ATOM      9  O   LIG    1       -0.522   4.004  -0.106  0.00  0.00    -0.245 OA
ATOM     10  C   LIG    1       -4.882   2.236   0.292  0.00  0.00    +0.140 C 
ATOM     11  C   LIG    1       -5.123   3.646  -0.240  0.00  0.00    +0.049 C 
ATOM     12  C   LIG    1       -1.173   1.725   0.017  0.00  0.00    +0.036 C 
ATOM     13  C   LIG    1       -0.013   1.076   0.008  0.00  0.00    +0.020 C 
ATOM     14  C   LIG    1       -5.650   1.219  -0.346  0.00  0.00    +0.148 C 
ATOM     15  C   LIG    1       -7.184   1.524  -0.432  0.00  0.00    +0.062 C 
ATOM     16  C   LIG    1       -7.806   0.891   0.782  0.00  0.00    +0.124 C 
ATOM     17  C   LIG    1       -6.823  -0.206   1.162  0.00  0.00    +0.308 C 
ATOM     18  O   LIG    1       -6.978  -1.213   1.929  0.00  0.00    -0.251 OA
ATOM     19  O   LIG    1       -5.628   0.011   0.593  0.00  0.00    -0.455 OA
ENDROOT
BRANCH  10  20
ATOM     20  O   LIG    1       -5.392   2.292   1.663  0.00  0.00    -0.381 OA
ATOM     21  H   LIG    1       -6.474   2.361   1.845  0.00  0.00    +0.210 HD
ENDBRANCH  10  20
TORSDOF 1
