REMARK  Name = ZINC13974878
REMARK                            x       y       z     vdW  Elec       q    Type
REMARK                         _______ _______ _______ _____ _____    ______ ____
ROOT
ATOM      1  C   LIG    1        4.742   4.283   1.564  0.00  0.00    +0.009 C 
ATOM      2  C   LIG    1        4.816   3.554   0.220  0.00  0.00    +0.009 C 
ATOM      3  C   LIG    1        5.989   2.572   0.237  0.00  0.00    +0.024 C 
ATOM      4  C   LIG    1        6.081   1.869  -1.121  0.00  0.00    +0.108 C 
ATOM      5  N   LIG    1        4.782   1.253  -1.424  0.00  0.00    -0.299 N 
ATOM      6  C   LIG    1        4.699  -0.055  -1.738  0.00  0.00    +0.229 C 
ATOM      7  O   LIG    1        3.621  -0.552  -1.986  0.00  0.00    -0.274 OA
ATOM      8  C   LIG    1        3.575   2.090  -1.379  0.00  0.00    +0.130 C 
ATOM      9  C   LIG    1        3.512   2.790  -0.017  0.00  0.00    +0.095 C 
ENDROOT
BRANCH   9  10
ATOM     10  N   LIG    1        2.383   3.729  -0.002  0.00  0.00    -0.313 N 
ATOM     11  C   LIG    1        2.457   4.661  -1.135  0.00  0.00    +0.131 C 
BRANCH  10  12
ATOM     12  C   LIG    1        1.175   3.054   0.007  0.00  0.00    +0.134 A 
ATOM     13  C   LIG    1       -0.041   3.754   0.022  0.00  0.00    +0.059 A 
ATOM     14  C   LIG    1       -0.423   5.165   0.032  0.00  0.00    +0.032 A 
ATOM     15  C   LIG    1       -1.766   5.203   0.045  0.00  0.00    +0.085 A 
ATOM     16  N   LIG    1       -2.267   3.926   0.043  0.00  0.00    -0.346 N 
ATOM     17  H   LIG    1       -3.210   3.699   0.051  0.00  0.00    +0.167 HD
ATOM     18  C   LIG    1       -1.242   3.021   0.029  0.00  0.00    +0.143 A 
ATOM     19  N   LIG    1       -1.175   1.690   0.017  0.00  0.00    -0.218 NA
ATOM     20  C   LIG    1       -0.013   1.076   0.008  0.00  0.00    +0.225 A 
ATOM     21  N   LIG    1        1.138   1.725   0.001  0.00  0.00    -0.220 NA
ENDBRANCH  10  12
ENDBRANCH   9  10
BRANCH   6  22
ATOM     22  C   LIG    1        5.946  -0.900  -1.780  0.00  0.00    +0.214 C 
BRANCH  22  23
ATOM     23  C   LIG    1        5.591  -2.282  -2.144  0.00  0.00    +0.072 C 
ATOM     24  N   LIG    1        5.316  -3.348  -2.425  0.00  0.00    -0.196 NA
ENDBRANCH  22  23
ENDBRANCH   6  22
TORSDOF 4
