REMARK  Name = ZINC19852856
REMARK                            x       y       z     vdW  Elec       q    Type
REMARK                         _______ _______ _______ _____ _____    ______ ____
ROOT
ATOM      1  N   LIG    1        5.948  -1.956   2.760  0.00  0.00    +0.381 N 
ATOM      2  H   LIG    1        5.222  -2.443   3.264  0.00  0.00    -0.082 HD
ATOM      3  C   LIG    1        6.227  -0.674   3.421  0.00  0.00    -0.063 C 
ATOM      4  C   LIG    1        6.669  -0.929   4.864  0.00  0.00    +0.066 C 
ATOM      5  N   LIG    1        7.874  -1.771   4.862  0.00  0.00    -0.306 NA
ATOM      6  C   LIG    1        7.617  -3.048   4.182  0.00  0.00    +0.066 C 
ATOM      7  C   LIG    1        7.167  -2.776   2.745  0.00  0.00    -0.063 C 
ENDROOT
BRANCH   1   8
ATOM      8  C   LIG    1        5.507  -1.710   1.381  0.00  0.00    -0.078 C 
BRANCH   8   9
ATOM      9  C   LIG    1        4.171  -0.963   1.399  0.00  0.00    -0.014 C 
BRANCH   9  10
ATOM     10  C   LIG    1        3.711  -0.707  -0.038  0.00  0.00    +0.033 C 
BRANCH  10  14
ATOM     11  C   LIG    1       -0.017   1.378   0.010  0.00  0.00    +0.000 A 
ATOM     12  C   LIG    1        1.171   2.086   0.002  0.00  0.00    +0.000 A 
ATOM     13  C   LIG    1        2.377   1.411  -0.013  0.00  0.00    +0.003 A 
ATOM     14  C   LIG    1        2.396   0.029  -0.020  0.00  0.00    -0.047 A 
ATOM     15  C   LIG    1        1.208  -0.679  -0.012  0.00  0.00    +0.003 A 
ATOM     16  C   LIG    1        0.002  -0.004   0.002  0.00  0.00    +0.000 A 
ENDBRANCH  10  14
ENDBRANCH   9  10
ENDBRANCH   8   9
ENDBRANCH   1   8
BRANCH   5  17
ATOM     17  C   LIG    1        8.363  -1.992   6.229  0.00  0.00    +0.084 C 
BRANCH  17  18
ATOM     18  C   LIG    1        9.742  -2.654   6.177  0.00  0.00    +0.013 C 
BRANCH  18  19
ATOM     19  C   LIG    1       10.252  -2.884   7.601  0.00  0.00    -0.018 C 
BRANCH  19  20
ATOM     20  C   LIG    1       11.630  -3.545   7.549  0.00  0.00    -0.086 C 
BRANCH  20  21
ATOM     21  N   LIG    1       12.120  -3.766   8.916  0.00  0.00    +0.378 N 
ATOM     22  H   LIG    1       13.029  -4.203   8.882  0.00  0.00    -0.090 HD
ATOM     23  H   LIG    1       11.477  -4.367   9.411  0.00  0.00    -0.090 HD
ATOM     24  H   LIG    1       12.190  -2.881   9.395  0.00  0.00    -0.090 HD
ENDBRANCH  20  21
ENDBRANCH  19  20
ENDBRANCH  18  19
ENDBRANCH  17  18
ENDBRANCH   5  17
TORSDOF 9
