REMARK  Name = ZINC17953024
REMARK                            x       y       z     vdW  Elec       q    Type
REMARK                         _______ _______ _______ _____ _____    ______ ____
ROOT
ATOM      1  N   LIG    1       -0.404  -4.002   0.110  0.00  0.00    -0.381 N 
ATOM      2  H   LIG    1       -0.676  -4.606   0.819  0.00  0.00    +0.160 HD
ATOM      3  C   LIG    1       -1.309  -3.482  -0.698  0.00  0.00    +0.059 A 
ATOM      4  C   LIG    1       -2.675  -3.504  -0.337  0.00  0.00    +0.055 A 
ATOM      5  C   LIG    1       -3.605  -2.967  -1.172  0.00  0.00    +0.075 A 
ATOM      6  N   LIG    1       -4.944  -2.978  -0.838  0.00  0.00    -0.306 N 
ATOM      7  C   LIG    1       -5.850  -2.419  -1.721  0.00  0.00    +0.073 A 
ATOM      8  C   LIG    1       -7.207  -2.412  -1.416  0.00  0.00    +0.028 A 
ATOM      9  C   LIG    1       -8.107  -1.853  -2.299  0.00  0.00    +0.002 A 
ATOM     10  C   LIG    1       -7.669  -1.296  -3.494  0.00  0.00    +0.002 A 
ATOM     11  C   LIG    1       -6.344  -1.291  -3.816  0.00  0.00    +0.030 A 
ATOM     12  C   LIG    1       -5.404  -1.853  -2.933  0.00  0.00    +0.088 A 
ATOM     13  N   LIG    1       -4.101  -1.844  -3.255  0.00  0.00    -0.244 NA
ATOM     14  C   LIG    1       -3.192  -2.364  -2.451  0.00  0.00    +0.090 A 
ATOM     15  C   LIG    1       -1.821  -2.344  -2.810  0.00  0.00    +0.055 A 
ATOM     16  C   LIG    1       -0.894  -2.874  -1.975  0.00  0.00    +0.057 A 
ENDROOT
BRANCH   6  17
ATOM     17  C   LIG    1       -5.375  -3.541   0.365  0.00  0.00    +0.047 A 
ATOM     18  C   LIG    1       -6.037  -4.763   0.365  0.00  0.00    +0.027 A 
ATOM     19  C   LIG    1       -6.461  -5.318   1.556  0.00  0.00    +0.022 A 
ATOM     20  C   LIG    1       -6.228  -4.657   2.750  0.00  0.00    +0.041 A 
ATOM     21 CL   LIG    1       -6.764  -5.358   4.245  0.00  0.00    -0.084 Cl
ATOM     22  C   LIG    1       -5.570  -3.440   2.754  0.00  0.00    +0.022 A 
ATOM     23  C   LIG    1       -5.138  -2.883   1.566  0.00  0.00    +0.027 A 
ENDBRANCH   6  17
BRANCH   1  25
ATOM     24  C   LIG    1        1.644  -3.407   1.306  0.00  0.00    +0.030 C 
ATOM     25  C   LIG    1        1.011  -3.666  -0.062  0.00  0.00    +0.073 C 
ATOM     26  C   LIG    1        1.732  -4.829  -0.746  0.00  0.00    +0.030 C 
ENDBRANCH   1  25
BRANCH  16  27
ATOM     27  N   LIG    1        0.449  -2.848  -2.326  0.00  0.00    -0.313 N 
ATOM     28  H   LIG    1        0.889  -3.662  -2.619  0.00  0.00    +0.152 HD
BRANCH  27  29
ATOM     29  C   LIG    1        1.167  -1.652  -2.256  0.00  0.00    +0.031 A 
ATOM     30  C   LIG    1        0.524  -0.474  -1.896  0.00  0.00    +0.024 A 
ATOM     31  C   LIG    1        1.236   0.707  -1.828  0.00  0.00    +0.022 A 
ATOM     32  C   LIG    1        2.589   0.718  -2.118  0.00  0.00    +0.041 A 
ATOM     33 CL   LIG    1        3.481   2.205  -2.032  0.00  0.00    -0.084 Cl
ATOM     34  C   LIG    1        3.232  -0.453  -2.477  0.00  0.00    +0.022 A 
ATOM     35  C   LIG    1        2.527  -1.638  -2.542  0.00  0.00    +0.024 A 
ENDBRANCH  27  29
ENDBRANCH  16  27
TORSDOF 4
