REMARK  Name = ZINC28824279
REMARK                            x       y       z     vdW  Elec       q    Type
REMARK                         _______ _______ _______ _____ _____    ______ ____
ROOT
ATOM      1  C   LIG    1        0.739  -2.004  -1.265  0.00  0.00    +0.064 A 
ATOM      2  N   LIG    1       -0.152  -2.814  -1.877  0.00  0.00    -0.178 NA
ATOM      3  N   LIG    1        0.161  -4.045  -1.685  0.00  0.00    -0.271 N 
ATOM      4  H   LIG    1       -0.335  -4.963  -2.034  0.00  0.00    +0.189 HD
ATOM      5  C   LIG    1        1.254  -4.125  -0.951  0.00  0.00    +0.143 A 
ATOM      6  C   LIG    1        1.653  -2.798  -0.660  0.00  0.00    +0.059 A 
ENDROOT
BRANCH   5   7
ATOM      7  C   LIG    1        1.929  -5.361  -0.512  0.00  0.00    +0.355 C 
ATOM      8  O   LIG    1        2.930  -5.296   0.173  0.00  0.00    -0.243 OA
BRANCH   7   9
ATOM      9  O   LIG    1        1.435  -6.562  -0.871  0.00  0.00    -0.476 OA
ATOM     10  H   LIG    1        0.663  -6.612  -1.400  0.00  0.00    +0.295 HD
ENDBRANCH   7   9
ENDBRANCH   5   7
BRANCH   1  11
ATOM     11  C   LIG    1        0.718  -0.497  -1.257  0.00  0.00    +0.057 C 
BRANCH  11  12
ATOM     12  C   LIG    1        0.002  -0.004   0.002  0.00  0.00    +0.006 C 
BRANCH  12  13
ATOM     13  C   LIG    1       -0.019   1.526   0.010  0.00  0.00    +0.000 C 
BRANCH  13  15
ATOM     14  C   LIG    1       -0.756   3.549   1.278  0.00  0.00    +0.004 C 
ATOM     15  C   LIG    1       -0.735   2.019   1.269  0.00  0.00    -0.003 C 
ENDBRANCH  13  15
ENDBRANCH  12  13
ENDBRANCH  11  12
ENDBRANCH   1  11
TORSDOF 6
