REMARK  Name = ZINC18121800
REMARK                            x       y       z     vdW  Elec       q    Type
REMARK                         _______ _______ _______ _____ _____    ______ ____
ROOT
ATOM      1  N   LIG    1        5.431  -3.260  -1.156  0.00  0.00    -0.288 NA
ATOM      2  C   LIG    1        4.954  -2.609  -2.383  0.00  0.00    +0.104 C 
ATOM      3  C   LIG    1        5.408  -3.422  -3.599  0.00  0.00    +0.120 C 
ATOM      4  N   LIG    1        4.967  -4.814  -3.422  0.00  0.00    -0.327 N 
ATOM      5  C   LIG    1        5.290  -5.491  -2.157  0.00  0.00    +0.120 C 
ATOM      6  C   LIG    1        4.840  -4.596  -0.997  0.00  0.00    +0.104 C 
ENDROOT
BRANCH   1  10
ATOM      7  N   LIG    1        3.598  -0.704   0.015  0.00  0.00    -0.209 N 
ATOM      8  C   LIG    1        4.766  -0.059  -0.091  0.00  0.00    +0.228 C 
ATOM      9  C   LIG    1        5.893  -1.069  -0.099  0.00  0.00    +0.125 C 
ATOM     10  C   LIG    1        5.165  -2.424   0.022  0.00  0.00    +0.153 C 
ATOM     11  O   LIG    1        4.900   1.143  -0.168  0.00  0.00    -0.275 OA
ATOM     12  C   LIG    1        3.704  -2.036   0.091  0.00  0.00    +0.244 C 
ATOM     13  O   LIG    1        2.776  -2.810   0.196  0.00  0.00    -0.273 OA
BRANCH   7  17
ATOM     14  C   LIG    1       -0.069   1.277   0.117  0.00  0.00    +0.000 A 
ATOM     15  C   LIG    1        0.285   0.428   1.149  0.00  0.00    +0.002 A 
ATOM     16  C   LIG    1        1.500  -0.230   1.118  0.00  0.00    +0.024 A 
ATOM     17  C   LIG    1        2.364  -0.038   0.049  0.00  0.00    +0.044 A 
ATOM     18  C   LIG    1        2.005   0.814  -0.986  0.00  0.00    +0.024 A 
ATOM     19  C   LIG    1        0.790   1.469  -0.950  0.00  0.00    +0.002 A 
ENDBRANCH   7  17
ENDBRANCH   1  10
BRANCH   4  20
ATOM     20  C   LIG    1        4.258  -5.477  -4.430  0.00  0.00    +0.030 A 
ATOM     21  C   LIG    1        4.076  -4.870  -5.666  0.00  0.00    +0.027 A 
ATOM     22  C   LIG    1        3.377  -5.524  -6.660  0.00  0.00    +0.047 A 
ATOM     23  C   LIG    1        2.855  -6.788  -6.425  0.00  0.00    +0.117 A 
ATOM     24  C   LIG    1        3.036  -7.395  -5.191  0.00  0.00    +0.047 A 
ATOM     25  C   LIG    1        3.740  -6.744  -4.197  0.00  0.00    +0.027 A 
BRANCH  23  26
ATOM     26  O   LIG    1        2.166  -7.432  -7.405  0.00  0.00    -0.507 OA
ATOM     27  H   LIG    1        2.719  -7.982  -7.978  0.00  0.00    +0.292 HD
ENDBRANCH  23  26
ENDBRANCH   4  20
TORSDOF 4
