REMARK  Name = ZINC35384958
REMARK                            x       y       z     vdW  Elec       q    Type
REMARK                         _______ _______ _______ _____ _____    ______ ____
ROOT
ATOM      1  C   LIG    1        0.682  -0.501  -1.248  0.00  0.00    +0.097 A 
ATOM      2  N   LIG    1        0.279  -0.226  -2.516  0.00  0.00    -0.343 N 
ATOM      3  C   LIG    1        1.159  -0.862  -3.370  0.00  0.00    +0.067 A 
ATOM      4  C   LIG    1        1.267  -0.953  -4.750  0.00  0.00    +0.028 A 
ATOM      5  C   LIG    1        2.289  -1.687  -5.319  0.00  0.00    +0.003 A 
ATOM      6  C   LIG    1        3.215  -2.340  -4.526  0.00  0.00    +0.015 A 
ATOM      7  C   LIG    1        3.130  -2.265  -3.139  0.00  0.00    +0.064 A 
ATOM      8  C   LIG    1        2.089  -1.518  -2.547  0.00  0.00    +0.101 A 
ATOM      9  H   LIG    1       -0.484   0.315  -2.773  0.00  0.00    +0.167 HD
ATOM     10  N   LIG    1        1.746  -1.253  -1.271  0.00  0.00    -0.233 NA
ENDROOT
BRANCH   1  12
ATOM     11  C   LIG    1       -0.019   1.526   0.010  0.00  0.00    -0.002 C 
ATOM     12  C   LIG    1        0.002  -0.004   0.002  0.00  0.00    -0.012 C 
ATOM     13  C   LIG    1       -1.437  -0.549   0.074  0.00  0.00    -0.007 C 
ATOM     14  C   LIG    1       -1.498  -1.356   1.391  0.00  0.00    -0.020 C 
ATOM     15  C   LIG    1       -0.333  -0.757   2.219  0.00  0.00    -0.081 C 
ATOM     16  N   LIG    1        0.716  -0.505   1.197  0.00  0.00    +0.387 N 
ATOM     17  H   LIG    1        1.366   0.190   1.530  0.00  0.00    -0.085 HD
ATOM     18  H   LIG    1        1.202  -1.362   0.978  0.00  0.00    -0.085 HD
ENDBRANCH   1  12
BRANCH   7  19
ATOM     19  C   LIG    1        4.118  -2.961  -2.295  0.00  0.00    +0.244 C 
ATOM     20  N   LIG    1        5.109  -3.673  -2.866  0.00  0.00    -0.325 N 
ATOM     21  H   LIG    1        5.760  -4.131  -2.311  0.00  0.00    +0.145 HD
ATOM     22  H   LIG    1        5.173  -3.728  -3.832  0.00  0.00    +0.145 HD
ATOM     23  O   LIG    1        4.038  -2.892  -1.083  0.00  0.00    -0.270 OA
ENDBRANCH   7  19
TORSDOF 2
