REMARK  Name = ZINC26403083
REMARK                            x       y       z     vdW  Elec       q    Type
REMARK                         _______ _______ _______ _____ _____    ______ ____
ROOT
ATOM      1  C   LIG    1       -2.429   0.317   0.225  0.00  0.00    +0.035 A 
ATOM      2  C   LIG    1       -1.240  -0.337   0.522  0.00  0.00    +0.023 A 
ATOM      3  C   LIG    1       -1.237  -1.703   0.726  0.00  0.00    +0.002 A 
ATOM      4  C   LIG    1       -2.414  -2.421   0.626  0.00  0.00    +0.000 A 
ATOM      5  C   LIG    1       -3.599  -1.775   0.325  0.00  0.00    +0.006 A 
ATOM      6  C   LIG    1       -3.610  -0.408   0.125  0.00  0.00    -0.016 A 
ENDROOT
BRANCH   1   7
ATOM      7  N   LIG    1       -2.437   1.699   0.023  0.00  0.00    -0.313 N 
ATOM      8  H   LIG    1       -3.358   2.201  -0.309  0.00  0.00    +0.152 HD
BRANCH   7  16
ATOM      9  C   LIG    1       -2.156   3.051   2.510  0.00  0.00    +0.046 C 
ATOM     10  C   LIG    1       -1.096   3.119   1.442  0.00  0.00    -0.028 A 
ATOM     11  C   LIG    1        0.052   3.858   1.653  0.00  0.00    +0.005 A 
ATOM     12  C   LIG    1        1.025   3.922   0.672  0.00  0.00    +0.002 A 
ATOM     13  C   LIG    1        0.854   3.248  -0.522  0.00  0.00    +0.022 A 
ATOM     14  C   LIG    1       -0.292   2.506  -0.740  0.00  0.00    +0.062 A 
ATOM     15 CL   LIG    1       -0.506   1.658  -2.240  0.00  0.00    -0.082 Cl
ATOM     16  C   LIG    1       -1.274   2.444   0.241  0.00  0.00    +0.053 A 
ENDBRANCH   7  16
ENDBRANCH   1   7
BRANCH   6  17
ATOM     17  C   LIG    1       -4.902   0.296  -0.203  0.00  0.00    +0.157 C 
BRANCH  17  18
ATOM     18  C   LIG    1       -5.032   0.439  -1.697  0.00  0.00    +0.309 C 
ATOM     19  O   LIG    1       -4.164   0.013  -2.422  0.00  0.00    -0.251 OA
BRANCH  18  20
ATOM     20  O   LIG    1       -6.111   1.039  -2.223  0.00  0.00    -0.480 OA
ATOM     21  H   LIG    1       -6.783   1.370  -1.661  0.00  0.00    +0.295 HD
ENDBRANCH  18  20
ENDBRANCH  17  18
ENDBRANCH   6  17
TORSDOF 5
