REMARK  Name = ZINC28763883
REMARK                            x       y       z     vdW  Elec       q    Type
REMARK                         _______ _______ _______ _____ _____    ______ ____
ROOT
ATOM      1  N   LIG    1        0.762  -1.976   1.234  0.00  0.00    -0.276 N 
ATOM      2  C   LIG    1       -0.266  -2.685   1.835  0.00  0.00    +0.169 A 
ATOM      3  C   LIG    1       -0.223  -4.076   1.813  0.00  0.00    +0.149 A 
ATOM      4  N   LIG    1       -1.355  -4.513   2.475  0.00  0.00    -0.332 N 
ATOM      5  C   LIG    1       -2.035  -3.401   2.869  0.00  0.00    +0.141 A 
ATOM      6  H   LIG    1       -1.615  -5.435   2.630  0.00  0.00    +0.168 HD
ATOM      7  C   LIG    1        0.862  -4.720   1.182  0.00  0.00    +0.282 A 
ATOM      8  N   LIG    1        1.831  -3.974   0.614  0.00  0.00    -0.259 N 
ATOM      9  O   LIG    1        0.921  -5.936   1.149  0.00  0.00    -0.265 OA
ATOM     10  N   LIG    1       -1.375  -2.327   2.481  0.00  0.00    -0.210 NA
ATOM     11  C   LIG    1        1.776  -2.631   0.637  0.00  0.00    +0.334 A 
ATOM     12  O   LIG    1        2.665  -1.992   0.110  0.00  0.00    -0.246 OA
ENDROOT
BRANCH   5  13
ATOM     13  C   LIG    1       -3.310  -3.398   3.614  0.00  0.00    +0.018 A 
ATOM     14  C   LIG    1       -3.913  -4.605   3.975  0.00  0.00    +0.015 A 
ATOM     15  C   LIG    1       -5.103  -4.598   4.670  0.00  0.00    +0.046 A 
ATOM     16  C   LIG    1       -5.703  -3.392   5.010  0.00  0.00    +0.121 A 
ATOM     17  C   LIG    1       -5.107  -2.189   4.652  0.00  0.00    +0.046 A 
ATOM     18  C   LIG    1       -3.914  -2.188   3.963  0.00  0.00    +0.015 A 
BRANCH  16  19
ATOM     19  O   LIG    1       -6.876  -3.389   5.694  0.00  0.00    -0.483 OA
BRANCH  19  20
ATOM     20  C   LIG    1       -7.439  -2.115   6.012  0.00  0.00    +0.324 C 
BRANCH  20  21
ATOM     21  C   LIG    1       -8.729  -2.309   6.766  0.00  0.00    +0.251 C 
ATOM     22  N   LIG    1       -9.440  -1.239   7.172  0.00  0.00    -0.314 N 
ATOM     23  H   LIG    1       -9.122  -0.343   6.979  0.00  0.00    +0.149 HD
ATOM     24  O   LIG    1       -9.128  -3.429   7.007  0.00  0.00    -0.272 OA
BRANCH  22  25
ATOM     25  C   LIG    1      -10.695  -1.428   7.905  0.00  0.00    +0.085 C 
BRANCH  25  26
ATOM     26  C   LIG    1      -11.297  -0.063   8.245  0.00  0.00    -0.067 C 
BRANCH  26  27
ATOM     27  N   LIG    1      -12.555  -0.253   8.980  0.00  0.00    +0.379 N 
ATOM     28  H   LIG    1      -12.952   0.647   9.204  0.00  0.00    -0.090 HD
ATOM     29  H   LIG    1      -12.373  -0.762   9.832  0.00  0.00    -0.090 HD
ATOM     30  H   LIG    1      -13.203  -0.774   8.409  0.00  0.00    -0.090 HD
ENDBRANCH  26  27
ENDBRANCH  25  26
ENDBRANCH  22  25
ENDBRANCH  20  21
ENDBRANCH  19  20
ENDBRANCH  16  19
ENDBRANCH   5  13
BRANCH   1  31
ATOM     31  C   LIG    1        0.742  -0.511   1.242  0.00  0.00    +0.128 C 
BRANCH  31  33
ATOM     32  C   LIG    1       -0.019   1.526   0.010  0.00  0.00    +0.005 C 
ATOM     33  C   LIG    1        0.002  -0.004   0.002  0.00  0.00    +0.018 C 
ENDBRANCH  31  33
ENDBRANCH   1  31
BRANCH   8  34
ATOM     34  C   LIG    1        2.961  -4.637  -0.043  0.00  0.00    +0.130 C 
BRANCH  34  35
ATOM     35  C   LIG    1        2.627  -4.872  -1.517  0.00  0.00    +0.018 C 
ATOM     36  C   LIG    1        3.806  -5.565  -2.203  0.00  0.00    +0.005 C 
ENDBRANCH  34  35
ENDBRANCH   8  34
TORSDOF 11
