REMARK  Name = ZINC00060264
REMARK                            x       y       z     vdW  Elec       q    Type
REMARK                         _______ _______ _______ _____ _____    ______ ____
ROOT
ATOM      1  C   LIG    1       -0.018   1.459   0.010  0.00  0.00    +0.243 C 
ATOM      2  N   LIG    1        1.140   2.149   0.003  0.00  0.00    -0.261 N 
ATOM      3  H   LIG    1        1.987   1.675  -0.008  0.00  0.00    +0.157 HD
ATOM      4  O   LIG    1       -1.080   2.054   0.018  0.00  0.00    -0.270 OA
ENDROOT
BRANCH   2   5
ATOM      5  C   LIG    1        1.121   3.537   0.010  0.00  0.00    +0.165 A 
ATOM      6  N   LIG    1        2.132   4.386   0.005  0.00  0.00    -0.225 NA
ATOM      7  C   LIG    1        1.931   5.695   0.013  0.00  0.00    +0.080 A 
ATOM      8  C   LIG    1        0.651   6.177   0.028  0.00  0.00    +0.076 A 
ATOM      9  S   LIG    1       -0.278   4.649   0.022  0.00  0.00    -0.060 S 
BRANCH   7  10
ATOM     10  C   LIG    1        3.082   6.630   0.008  0.00  0.00    +0.001 A 
ATOM     11  C   LIG    1        2.865   8.007   0.011  0.00  0.00    +0.010 A 
ATOM     12  C   LIG    1        3.941   8.872   0.012  0.00  0.00    +0.001 A 
ATOM     13  C   LIG    1        5.231   8.375  -0.003  0.00  0.00    +0.000 A 
ATOM     14  C   LIG    1        5.452   7.009  -0.011  0.00  0.00    +0.001 A 
ATOM     15  C   LIG    1        4.385   6.135  -0.006  0.00  0.00    +0.010 A 
ENDBRANCH   7  10
ENDBRANCH   2   5
BRANCH   1  17
ATOM     16  C   LIG    1       -1.157  -0.694   0.009  0.00  0.00    +0.013 C 
ATOM     17  C   LIG    1        0.002  -0.004   0.002  0.00  0.00    +0.068 C 
BRANCH  16  21
ATOM     18  C   LIG    1       -1.099  -4.936  -0.015  0.00  0.00    +0.000 A 
ATOM     19  C   LIG    1       -2.309  -4.264   0.001  0.00  0.00    +0.001 A 
ATOM     20  C   LIG    1       -2.336  -2.885   0.009  0.00  0.00    +0.008 A 
ATOM     21  C   LIG    1       -1.137  -2.166   0.001  0.00  0.00    -0.025 A 
ATOM     22  C   LIG    1        0.082  -2.852  -0.020  0.00  0.00    +0.008 A 
ATOM     23  C   LIG    1        0.092  -4.231  -0.022  0.00  0.00    +0.001 A 
ENDBRANCH  16  21
ENDBRANCH   1  17
TORSDOF 4
