REMARK  Name = ZINC33961503
REMARK                            x       y       z     vdW  Elec       q    Type
REMARK                         _______ _______ _______ _____ _____    ______ ____
ROOT
ATOM      1  C   LIG    1       -0.867   1.494   0.086  0.00  0.00    +0.007 C 
ATOM      2  C   LIG    1       -0.519   0.006   0.025  0.00  0.00    -0.014 C 
ATOM      3  C   LIG    1       -1.797  -0.861   0.148  0.00  0.00    +0.004 C 
ATOM      4  C   LIG    1       -1.285  -2.217   0.677  0.00  0.00    +0.006 C 
ATOM      5  C   LIG    1        0.049  -1.935   1.390  0.00  0.00    -0.035 C 
ATOM      6  C   LIG    1        0.306  -0.416   1.266  0.00  0.00    +0.009 C 
ENDROOT
BRANCH   5   7
ATOM      7  C   LIG    1       -0.050  -2.333   2.864  0.00  0.00    -0.079 C 
BRANCH   7   8
ATOM      8  N   LIG    1       -0.264  -3.783   2.966  0.00  0.00    +0.378 N 
ATOM      9  H   LIG    1        0.474  -4.267   2.478  0.00  0.00    -0.090 HD
ATOM     10  H   LIG    1       -1.154  -4.021   2.553  0.00  0.00    -0.090 HD
ATOM     11  H   LIG    1       -0.261  -4.056   3.938  0.00  0.00    -0.090 HD
ENDBRANCH   7   8
ENDBRANCH   5   7
BRANCH   5  12
ATOM     12  C   LIG    1        1.180  -2.710   0.712  0.00  0.00    +0.125 C 
BRANCH  12  13
ATOM     13  C   LIG    1        2.497  -2.324   1.334  0.00  0.00    +0.305 C 
ATOM     14  O   LIG    1        2.522  -1.570   2.292  0.00  0.00    -0.251 OA
BRANCH  13  15
ATOM     15  O   LIG    1        3.539  -2.764   0.878  0.00  0.00    -0.481 OA
ATOM     16  H   LIG    1        3.520  -3.343   0.142  0.00  0.00    +0.295 HD
ENDBRANCH  13  15
ENDBRANCH  12  13
ENDBRANCH   5  12
TORSDOF 5
