REMARK  Name = ZINC31291954
REMARK                            x       y       z     vdW  Elec       q    Type
REMARK                         _______ _______ _______ _____ _____    ______ ____
ROOT
ATOM      1  C   LIG    1       -2.355   0.007   0.621  0.00  0.00    +0.001 A 
ATOM      2  C   LIG    1       -2.356   1.387   0.728  0.00  0.00    +0.001 A 
ATOM      3  C   LIG    1       -1.168   2.093   0.692  0.00  0.00    +0.012 A 
ATOM      4  C   LIG    1        0.038   1.415   0.535  0.00  0.00    +0.033 A 
ATOM      5  C   LIG    1        0.040   0.013   0.425  0.00  0.00    +0.033 A 
ATOM      6  C   LIG    1        1.315  -0.715   0.265  0.00  0.00    +0.196 C 
ATOM      7  C   LIG    1        2.583   0.029   0.220  0.00  0.00    +0.056 A 
ATOM      8  C   LIG    1        3.797  -0.650   0.069  0.00  0.00    +0.045 A 
ATOM      9  C   LIG    1        4.995   0.070   0.029  0.00  0.00    +0.055 A 
ATOM     10  C   LIG    1        4.994   1.430   0.134  0.00  0.00    +0.140 A 
ATOM     11  C   LIG    1        3.795   2.131   0.286  0.00  0.00    +0.064 A 
ATOM     12  C   LIG    1        2.582   1.436   0.330  0.00  0.00    +0.057 A 
ATOM     13  O   LIG    1        1.317  -1.928   0.169  0.00  0.00    -0.287 OA
ATOM     14  C   LIG    1        1.313   2.162   0.489  0.00  0.00    +0.196 C 
ATOM     15  O   LIG    1        1.312   3.374   0.583  0.00  0.00    -0.287 OA
ATOM     16  C   LIG    1       -1.166  -0.683   0.469  0.00  0.00    +0.012 A 
ENDROOT
BRANCH  10  17
ATOM     17  S   LIG    1        6.519   2.310   0.080  0.00  0.00    +0.111 S 
ATOM     18  O   LIG    1        6.391   3.400   0.984  0.00  0.00    -0.142 OA
ATOM     19  O   LIG    1        6.834   2.493  -1.294  0.00  0.00    -0.142 OA
BRANCH  17  20
ATOM     20  O   LIG    1        7.590   1.393   0.654  0.00  0.00    -0.250 OA
ATOM     21  H   LIG    1        7.711   0.631   0.066  0.00  0.00    +0.245 HD
ENDBRANCH  17  20
ENDBRANCH  10  17
BRANCH  11  22
ATOM     22  N   LIG    1        3.807   3.513   0.393  0.00  0.00    -0.356 N 
ATOM     23  H   LIG    1        4.761   4.059   0.359  0.00  0.00    +0.142 HD
ATOM     24  H   LIG    1        2.862   4.064   0.513  0.00  0.00    +0.142 HD
ENDBRANCH  11  22
BRANCH   8  25
ATOM     25  N   LIG    1        3.813  -2.032  -0.040  0.00  0.00    -0.314 N 
ATOM     26  H   LIG    1        4.045  -2.650   0.840  0.00  0.00    +0.152 HD
BRANCH  25  27
ATOM     27  C   LIG    1        3.533  -2.639  -1.266  0.00  0.00    +0.033 A 
ATOM     28  C   LIG    1        3.354  -1.860  -2.404  0.00  0.00    +0.025 A 
ATOM     29  C   LIG    1        3.082  -2.460  -3.618  0.00  0.00    +0.033 A 
ATOM     30  C   LIG    1        2.976  -3.835  -3.704  0.00  0.00    +0.137 A 
ATOM     31  C   LIG    1        3.149  -4.620  -2.570  0.00  0.00    +0.054 A 
ATOM     32  C   LIG    1        3.428  -4.020  -1.349  0.00  0.00    +0.048 A 
BRANCH  30  33
ATOM     33  S   LIG    1        2.623  -4.595  -5.254  0.00  0.00    +0.111 S 
ATOM     34  O   LIG    1        1.785  -5.710  -4.978  0.00  0.00    -0.142 OA
ATOM     35  O   LIG    1        3.863  -4.725  -5.935  0.00  0.00    -0.142 OA
BRANCH  33  36
ATOM     36  O   LIG    1        1.786  -3.610  -6.057  0.00  0.00    -0.250 OA
ATOM     37  H   LIG    1        2.320  -2.829  -6.269  0.00  0.00    +0.245 HD
ENDBRANCH  33  36
ENDBRANCH  30  33
BRANCH  31  38
ATOM     38  N   LIG    1        3.043  -6.010  -2.658  0.00  0.00    -0.356 N 
ATOM     39  H   LIG    1        2.822  -6.484  -3.626  0.00  0.00    +0.142 HD
ATOM     40  H   LIG    1        3.179  -6.630  -1.760  0.00  0.00    +0.142 HD
ENDBRANCH  31  38
ENDBRANCH  25  27
ENDBRANCH   8  25
TORSDOF 8
