REMARK  Name = ZINC29409561
REMARK                            x       y       z     vdW  Elec       q    Type
REMARK                         _______ _______ _______ _____ _____    ______ ____
ROOT
ATOM      1  N   LIG    1        0.798   7.754  -0.973  0.00  0.00    -0.295 NA
ATOM      2  C   LIG    1        1.454   7.202   0.221  0.00  0.00    +0.103 C 
ATOM      3  C   LIG    1        1.458   5.674   0.137  0.00  0.00    +0.122 C 
ATOM      4  N   LIG    1        0.075   5.189   0.028  0.00  0.00    -0.312 N 
ATOM      5  C   LIG    1       -0.581   5.740  -1.166  0.00  0.00    +0.122 C 
ATOM      6  C   LIG    1       -0.585   7.269  -1.082  0.00  0.00    +0.103 C 
ENDROOT
BRANCH   4   7
ATOM      7  C   LIG    1        0.034   3.799   0.021  0.00  0.00    +0.140 A 
ATOM      8  C   LIG    1       -0.607   3.122   1.056  0.00  0.00    +0.081 A 
ATOM      9 CL   LIG    1       -1.353   4.002   2.353  0.00  0.00    -0.080 Cl
ATOM     10  C   LIG    1       -0.645   1.739   1.033  0.00  0.00    +0.025 A 
ATOM     11  C   LIG    1       -0.029   1.076  -0.021  0.00  0.00    +0.021 A 
ATOM     12  C   LIG    1        0.588   1.811  -1.013  0.00  0.00    +0.113 A 
ATOM     13  N   LIG    1        0.605   3.130  -0.969  0.00  0.00    -0.239 NA
ENDBRANCH   4   7
BRANCH   1  14
ATOM     14  C   LIG    1        0.841   9.222  -0.966  0.00  0.00    +0.119 C 
BRANCH  14  18
ATOM     15  C   LIG    1       -0.449  10.704  -4.759  0.00  0.00    +0.000 A 
ATOM     16  C   LIG    1       -1.370  10.495  -3.748  0.00  0.00    +0.000 A 
ATOM     17  C   LIG    1       -0.952  10.016  -2.521  0.00  0.00    +0.005 A 
ATOM     18  C   LIG    1        0.386   9.745  -2.304  0.00  0.00    -0.033 A 
ATOM     19  C   LIG    1        1.307   9.958  -3.312  0.00  0.00    +0.005 A 
ATOM     20  C   LIG    1        0.889  10.433  -4.541  0.00  0.00    +0.000 A 
ENDBRANCH  14  18
ENDBRANCH   1  14
TORSDOF 3
