REMARK  Name = ZINC00004507
REMARK                            x       y       z     vdW  Elec       q    Type
REMARK                         _______ _______ _______ _____ _____    ______ ____
ROOT
ATOM      1  C   LIG    1        3.581   1.422  -0.738  0.00  0.00    +0.068 A 
ATOM      2  C   LIG    1        2.578   1.192   0.154  0.00  0.00    +0.094 A 
ATOM      3  N   LIG    1        2.828   0.031   0.780  0.00  0.00    -0.227 NA
ATOM      4  C   LIG    1        3.961  -0.476   0.315  0.00  0.00    +0.138 A 
ATOM      5  C   LIG    1        4.665  -1.657   0.627  0.00  0.00    +0.047 A 
ATOM      6  C   LIG    1        5.828  -1.931  -0.024  0.00  0.00    +0.005 A 
ATOM      7  C   LIG    1        6.310  -1.036  -0.993  0.00  0.00    +0.018 A 
ATOM      8  C   LIG    1        5.625   0.090  -1.281  0.00  0.00    +0.093 A 
ATOM      9  N   LIG    1        4.457   0.378  -0.636  0.00  0.00    -0.301 N 
ENDROOT
BRANCH   2  10
ATOM     10  C   LIG    1        1.405   2.070   0.390  0.00  0.00    +0.002 A 
ATOM     11  C   LIG    1        1.573   3.450   0.483  0.00  0.00    +0.011 A 
ATOM     12  C   LIG    1        0.481   4.263   0.707  0.00  0.00    +0.020 A 
ATOM     13  C   LIG    1       -0.782   3.710   0.830  0.00  0.00    +0.041 A 
ATOM     14 CL   LIG    1       -2.154   4.737   1.106  0.00  0.00    -0.084 Cl
ATOM     15  C   LIG    1       -0.955   2.339   0.738  0.00  0.00    +0.020 A 
ATOM     16  C   LIG    1        0.132   1.518   0.519  0.00  0.00    +0.011 A 
ENDBRANCH   2  10
BRANCH   1  17
ATOM     17  C   LIG    1        3.704   2.607  -1.662  0.00  0.00    +0.163 C 
BRANCH  17  19
ATOM     18  C   LIG    1        1.885   2.444  -3.276  0.00  0.00    +0.216 C 
ATOM     19  N   LIG    1        3.187   2.250  -2.985  0.00  0.00    -0.299 N 
ATOM     20  C   LIG    1        4.086   1.682  -3.993  0.00  0.00    +0.132 C 
ATOM     21  O   LIG    1        1.142   2.915  -2.441  0.00  0.00    -0.276 OA
BRANCH  18  22
ATOM     22  C   LIG    1        1.354   2.077  -4.637  0.00  0.00    +0.096 C 
BRANCH  22  24
ATOM     23  C   LIG    1       -0.680   2.024  -6.087  0.00  0.00    +0.004 C 
ATOM     24  C   LIG    1       -0.141   2.396  -4.705  0.00  0.00    +0.006 C 
ENDBRANCH  22  24
ENDBRANCH  18  22
ENDBRANCH  17  19
ENDBRANCH   1  17
TORSDOF 5
