REMARK  Name = ZINC22309057
REMARK                            x       y       z     vdW  Elec       q    Type
REMARK                         _______ _______ _______ _____ _____    ______ ____
ROOT
ATOM      1  P   LIG    1        6.804   5.538  -0.371  0.00  0.00    +0.204 P 
ATOM      2  O   LIG    1        7.393   5.418  -1.794  0.00  0.00    -0.291 OA
ENDROOT
BRANCH   1   3
ATOM      3  O   LIG    1        7.278   6.861   0.272  0.00  0.00    -0.344 OA
ATOM      4  H   LIG    1        8.247   6.867   0.321  0.00  0.00    +0.218 HD
ENDBRANCH   1   3
BRANCH   1   5
ATOM      5  C   LIG    1        4.984   5.526  -0.463  0.00  0.00    +0.112 C 
BRANCH   5   6
ATOM      6  C   LIG    1        4.513   6.629  -1.413  0.00  0.00    +0.107 C 
BRANCH   6   7
ATOM      7  C   LIG    1        4.768   6.208  -2.837  0.00  0.00    +0.308 C 
ATOM      8  O   LIG    1        5.442   6.912  -3.570  0.00  0.00    -0.251 OA
BRANCH   7   9
ATOM      9  O   LIG    1        4.300   5.163  -3.257  0.00  0.00    -0.480 OA
ATOM     10  H   LIG    1        3.781   4.623  -2.694  0.00  0.00    +0.295 HD
ENDBRANCH   7   9
ENDBRANCH   6   7
BRANCH   6  11
ATOM     11  C   LIG    1        3.016   6.871  -1.212  0.00  0.00    +0.026 C 
BRANCH  11  12
ATOM     12  C   LIG    1        2.775   7.443   0.186  0.00  0.00    +0.121 C 
BRANCH  12  13
ATOM     13  C   LIG    1        1.318   7.800   0.338  0.00  0.00    +0.305 C 
ATOM     14  O   LIG    1        0.545   7.614  -0.586  0.00  0.00    -0.251 OA
BRANCH  13  15
ATOM     15  O   LIG    1        0.913   8.274   1.386  0.00  0.00    -0.481 OA
ATOM     16  H   LIG    1        1.507   8.417   2.096  0.00  0.00    +0.295 HD
ENDBRANCH  13  15
ENDBRANCH  12  13
ENDBRANCH  11  12
ENDBRANCH   6  11
ENDBRANCH   5   6
ENDBRANCH   1   5
BRANCH   1  17
ATOM     17  C   LIG    1        7.371   4.132   0.642  0.00  0.00    +0.112 C 
BRANCH  17  18
ATOM     18  C   LIG    1        8.900   4.070   0.617  0.00  0.00    +0.107 C 
BRANCH  18  19
ATOM     19  C   LIG    1        9.462   5.160   1.493  0.00  0.00    +0.308 C 
ATOM     20  O   LIG    1       10.191   6.012   1.014  0.00  0.00    -0.251 OA
BRANCH  19  21
ATOM     21  O   LIG    1        9.188   5.190   2.680  0.00  0.00    -0.480 OA
ATOM     22  H   LIG    1        8.627   4.535   3.048  0.00  0.00    +0.295 HD
ENDBRANCH  19  21
ENDBRANCH  18  19
BRANCH  18  23
ATOM     23  C   LIG    1        9.363   2.708   1.137  0.00  0.00    +0.026 C 
BRANCH  23  24
ATOM     24  C   LIG    1       10.882   2.597   0.996  0.00  0.00    +0.121 C 
BRANCH  24  25
ATOM     25  C   LIG    1       11.338   1.256   1.509  0.00  0.00    +0.305 C 
ATOM     26  O   LIG    1       10.524   0.461   1.947  0.00  0.00    -0.251 OA
BRANCH  25  27
ATOM     27  O   LIG    1       12.522   0.964   1.486  0.00  0.00    -0.481 OA
ATOM     28  H   LIG    1       13.148   1.575   1.150  0.00  0.00    +0.295 HD
ENDBRANCH  25  27
ENDBRANCH  24  25
ENDBRANCH  23  24
ENDBRANCH  18  23
ENDBRANCH  17  18
ENDBRANCH   1  17
TORSDOF 17
