REMARK  Name = ZINC36479167
REMARK                            x       y       z     vdW  Elec       q    Type
REMARK                         _______ _______ _______ _____ _____    ______ ____
ROOT
ATOM      1  C   LIG    1        0.203   1.161  -0.533  0.00  0.00    +0.061 C 
ATOM      2  C   LIG    1       -0.005  -0.271  -0.109  0.00  0.00    +0.018 C 
ATOM      3  C   LIG    1       -1.246  -0.691   0.228  0.00  0.00    +0.041 C 
ATOM      4  C   LIG    1       -1.410  -2.137   0.648  0.00  0.00    +0.138 C 
ATOM      5  N   LIG    1       -0.197  -2.972   0.654  0.00  0.00    -0.315 N 
ATOM      6  H   LIG    1       -0.238  -3.905   0.913  0.00  0.00    +0.149 HD
ATOM      7  C   LIG    1        0.972  -2.407   0.290  0.00  0.00    +0.137 C 
ATOM      8  S   LIG    1        2.390  -3.366   0.293  0.00  0.00    -0.018 S 
ATOM      9  N   LIG    1        1.059  -1.123  -0.078  0.00  0.00    -0.289 N 
ATOM     10  C   LIG    1        2.373  -0.602  -0.462  0.00  0.00    +0.137 C 
ENDROOT
BRANCH   4  11
ATOM     11  C   LIG    1       -1.992  -2.155   2.038  0.00  0.00    -0.019 A 
ATOM     12  C   LIG    1       -1.199  -1.829   3.123  0.00  0.00    +0.006 A 
ATOM     13  C   LIG    1       -1.729  -1.844   4.399  0.00  0.00    +0.004 A 
ATOM     14  C   LIG    1       -3.054  -2.185   4.594  0.00  0.00    +0.045 A 
ATOM     15  C   LIG    1       -3.852  -2.512   3.508  0.00  0.00    +0.117 A 
ATOM     16  C   LIG    1       -3.318  -2.490   2.227  0.00  0.00    +0.051 A 
BRANCH  15  17
ATOM     17  O   LIG    1       -5.155  -2.848   3.697  0.00  0.00    -0.507 OA
ATOM     18  H   LIG    1       -5.763  -2.097   3.666  0.00  0.00    +0.292 HD
ENDBRANCH  15  17
ENDBRANCH   4  11
BRANCH   3  19
ATOM     19  C   LIG    1       -2.352   0.190   0.191  0.00  0.00    +0.193 C 
ATOM     20  O   LIG    1       -2.405   1.134   0.958  0.00  0.00    -0.287 OA
BRANCH  19  21
ATOM     21  C   LIG    1       -3.445  -0.035  -0.781  0.00  0.00    +0.022 A 
ATOM     22  C   LIG    1       -3.340  -1.052  -1.731  0.00  0.00    +0.012 A 
ATOM     23  C   LIG    1       -4.363  -1.257  -2.634  0.00  0.00    +0.001 A 
ATOM     24  C   LIG    1       -5.491  -0.458  -2.598  0.00  0.00    +0.000 A 
ATOM     25  C   LIG    1       -5.602   0.552  -1.659  0.00  0.00    +0.001 A 
ATOM     26  C   LIG    1       -4.589   0.764  -0.747  0.00  0.00    +0.012 A 
ENDBRANCH  19  21
ENDBRANCH   3  19
TORSDOF 4
