REMARK  Name = ZINC17105141
REMARK                            x       y       z     vdW  Elec       q    Type
REMARK                         _______ _______ _______ _____ _____    ______ ____
ROOT
ATOM      1  C   LIG    1       -0.018   1.461   0.010  0.00  0.00    +0.155 C 
ATOM      2  N   LIG    1        0.002  -0.004   0.002  0.00  0.00    -0.279 N 
ATOM      3  C   LIG    1       -1.188  -0.713   0.004  0.00  0.00    +0.170 A 
ATOM      4  C   LIG    1       -1.142  -2.127  -0.005  0.00  0.00    +0.168 A 
ATOM      5  N   LIG    1       -2.419  -2.551  -0.001  0.00  0.00    -0.219 NA
ATOM      6  C   LIG    1       -3.204  -1.489   0.009  0.00  0.00    +0.163 A 
ATOM      7  C   LIG    1        0.103  -2.761  -0.014  0.00  0.00    +0.226 A 
ATOM      8  N   LIG    1        1.236  -2.004  -0.015  0.00  0.00    -0.266 N 
ATOM      9  C   LIG    1        2.543  -2.666  -0.025  0.00  0.00    +0.157 C 
ATOM     10  N   LIG    1       -2.463  -0.374   0.012  0.00  0.00    -0.208 NA
ATOM     11  C   LIG    1        1.177  -0.661  -0.013  0.00  0.00    +0.333 A 
ATOM     12  O   LIG    1        2.212  -0.023  -0.019  0.00  0.00    -0.246 OA
ENDROOT
BRANCH   6  13
ATOM     13  C   LIG    1       -4.686  -1.526   0.016  0.00  0.00    +0.019 A 
ATOM     14  C   LIG    1       -5.415  -0.338   0.020  0.00  0.00    +0.013 A 
ATOM     15  C   LIG    1       -6.795  -0.378   0.026  0.00  0.00    +0.021 A 
ATOM     16  C   LIG    1       -7.454  -1.595   0.028  0.00  0.00    +0.041 A 
ATOM     17 CL   LIG    1       -9.190  -1.638   0.035  0.00  0.00    -0.084 Cl
ATOM     18  C   LIG    1       -6.735  -2.778   0.024  0.00  0.00    +0.021 A 
ATOM     19  C   LIG    1       -5.355  -2.749   0.012  0.00  0.00    +0.013 A 
ENDBRANCH   6  13
BRANCH   7  20
ATOM     20  O   LIG    1        0.183  -4.104  -0.022  0.00  0.00    -0.492 OA
ATOM     21  H   LIG    1       -0.600  -4.619  -0.022  0.00  0.00    +0.294 HD
ENDBRANCH   7  20
TORSDOF 2
