REMARK  Name = ZINC28897535
REMARK                            x       y       z     vdW  Elec       q    Type
REMARK                         _______ _______ _______ _____ _____    ______ ____
ROOT
ATOM      1  C   LIG    1       -1.217   1.751   0.017  0.00  0.00    +0.002 A 
ATOM      2  C   LIG    1       -1.237   3.134   0.029  0.00  0.00    +0.004 A 
ATOM      3  C   LIG    1       -0.051   3.845   0.022  0.00  0.00    -0.031 A 
ATOM      4  C   LIG    1        1.157   3.176   0.008  0.00  0.00    +0.027 A 
ATOM      5  C   LIG    1        1.181   1.788   0.000  0.00  0.00    +0.025 A 
ATOM      6  C   LIG    1       -0.013   1.076   0.008  0.00  0.00    +0.023 A 
ENDROOT
BRANCH   5   7
ATOM      7  N   LIG    1        2.401   1.108  -0.015  0.00  0.00    -0.358 N 
ATOM      8  H   LIG    1        3.345   1.673  -0.021  0.00  0.00    +0.142 HD
ATOM      9  H   LIG    1        2.418   0.008  -0.021  0.00  0.00    +0.142 HD
ENDBRANCH   5   7
BRANCH   3  10
ATOM     10  C   LIG    1       -0.078   5.352   0.030  0.00  0.00    +0.137 C 
BRANCH  10  11
ATOM     11  C   LIG    1       -0.785   5.835   1.270  0.00  0.00    +0.313 C 
ATOM     12  O   LIG    1       -1.223   5.038   2.065  0.00  0.00    -0.250 OA
BRANCH  11  13
ATOM     13  O   LIG    1       -0.929   7.152   1.490  0.00  0.00    -0.480 OA
ATOM     14  H   LIG    1       -0.589   7.770   0.873  0.00  0.00    +0.295 HD
ENDBRANCH  11  13
ENDBRANCH  10  11
BRANCH  10  15
ATOM     15  C   LIG    1       -0.819   5.855  -1.210  0.00  0.00    +0.085 C 
BRANCH  15  16
ATOM     16  S   LIG    1       -0.724   7.665  -1.278  0.00  0.00    -0.177 S 
ATOM     17  H   LIG    1       -1.202   8.211  -2.105  0.00  0.00    +0.102 HD
ENDBRANCH  15  16
ENDBRANCH  10  15
ENDBRANCH   3  10
TORSDOF 6
