REMARK  Name = ZINC33359232
REMARK                            x       y       z     vdW  Elec       q    Type
REMARK                         _______ _______ _______ _____ _____    ______ ____
ROOT
ATOM      1  N   LIG    1        4.009  -3.726  -1.442  0.00  0.00    -0.287 NA
ENDROOT
BRANCH   1   2
ATOM      2  C   LIG    1        4.989  -2.695  -1.808  0.00  0.00    +0.106 C 
ATOM      3  C   LIG    1        6.360  -3.085  -1.258  0.00  0.00    +0.025 C 
ATOM      4  C   LIG    1        7.404  -2.117  -1.826  0.00  0.00    +0.007 C 
ATOM      5  C   LIG    1        7.563  -2.403  -3.319  0.00  0.00    +0.037 C 
ATOM      6  C   LIG    1        6.221  -2.427  -3.998  0.00  0.00    -0.025 A 
ATOM      7  C   LIG    1        6.188  -2.304  -5.384  0.00  0.00    +0.007 A 
ATOM      8  C   LIG    1        4.965  -2.330  -6.028  0.00  0.00    +0.020 A 
ATOM      9  C   LIG    1        3.816  -2.475  -5.273  0.00  0.00    +0.111 A 
ATOM     10  N   LIG    1        3.885  -2.586  -3.964  0.00  0.00    -0.258 NA
ATOM     11  C   LIG    1        5.038  -2.565  -3.308  0.00  0.00    +0.062 A 
ENDBRANCH   1   2
BRANCH   1  12
ATOM     12  C   LIG    1        3.623  -3.608  -0.029  0.00  0.00    +0.159 C 
BRANCH  12  19
ATOM     13  C   LIG    1       -0.322   0.895   0.649  0.00  0.00    +0.002 A 
ATOM     14  C   LIG    1        0.838   1.648   0.768  0.00  0.00    +0.002 A 
ATOM     15  C   LIG    1        2.066   1.056   0.681  0.00  0.00    +0.030 A 
ATOM     16  C   LIG    1        2.160  -0.322   0.470  0.00  0.00    +0.089 A 
ATOM     17  C   LIG    1        0.987  -1.085   0.349  0.00  0.00    +0.066 A 
ATOM     18  N   LIG    1        1.399  -2.388   0.151  0.00  0.00    -0.341 N 
ATOM     19  C   LIG    1        2.759  -2.388   0.155  0.00  0.00    +0.122 A 
ATOM     20  H   LIG    1        0.824  -3.160   0.030  0.00  0.00    +0.167 HD
ATOM     21  N   LIG    1        3.205  -1.180   0.341  0.00  0.00    -0.231 NA
ATOM     22  C   LIG    1       -0.252  -0.466   0.440  0.00  0.00    +0.028 A 
ENDBRANCH  12  19
ENDBRANCH   1  12
BRANCH   1  23
ATOM     23  C   LIG    1        4.524  -5.070  -1.736  0.00  0.00    +0.085 C 
BRANCH  23  24
ATOM     24  C   LIG    1        4.529  -5.294  -3.250  0.00  0.00    +0.013 C 
BRANCH  24  25
ATOM     25  C   LIG    1        5.066  -6.694  -3.557  0.00  0.00    -0.018 C 
BRANCH  25  26
ATOM     26  C   LIG    1        5.071  -6.918  -5.070  0.00  0.00    -0.086 C 
BRANCH  26  27
ATOM     27  N   LIG    1        5.586  -8.262  -5.364  0.00  0.00    +0.378 N 
ATOM     28  H   LIG    1        5.589  -8.409  -6.362  0.00  0.00    -0.090 HD
ATOM     29  H   LIG    1        4.996  -8.952  -4.924  0.00  0.00    -0.090 HD
ATOM     30  H   LIG    1        6.526  -8.347  -5.009  0.00  0.00    -0.090 HD
ENDBRANCH  26  27
ENDBRANCH  25  26
ENDBRANCH  24  25
ENDBRANCH  23  24
ENDBRANCH   1  23
TORSDOF 8
