REMARK  Name = ZINC45348296
REMARK                            x       y       z     vdW  Elec       q    Type
REMARK                         _______ _______ _______ _____ _____    ______ ____
ROOT
ATOM      1  N   LIG    1        7.871  -3.019   1.291  0.00  0.00    -0.260 N 
ATOM      2  C   LIG    1        8.662  -2.143   2.036  0.00  0.00    +0.048 A 
ATOM      3  C   LIG    1        9.209  -0.907   1.721  0.00  0.00    +0.028 A 
ATOM      4  C   LIG    1        9.970  -0.224   2.650  0.00  0.00    +0.048 A 
ATOM      5  C   LIG    1       10.201  -0.762   3.909  0.00  0.00    +0.131 A 
ATOM      6  C   LIG    1        9.665  -1.994   4.243  0.00  0.00    +0.059 A 
ATOM      7  C   LIG    1        8.895  -2.688   3.309  0.00  0.00    +0.052 A 
ATOM      8  C   LIG    1        8.198  -3.987   3.347  0.00  0.00    +0.250 C 
ATOM      9  O   LIG    1        8.150  -4.775   4.268  0.00  0.00    -0.282 OA
ATOM     10  C   LIG    1        7.557  -4.118   1.997  0.00  0.00    +0.292 C 
ATOM     11  O   LIG    1        6.880  -5.049   1.612  0.00  0.00    -0.266 OA
ENDROOT
BRANCH   1  12
ATOM     12  C   LIG    1        7.434  -2.768  -0.085  0.00  0.00    +0.149 C 
BRANCH  12  16
ATOM     13  C   LIG    1        3.699  -0.689  -0.037  0.00  0.00    -0.018 A 
ATOM     14  C   LIG    1        4.896   0.024  -0.040  0.00  0.00    +0.009 A 
ATOM     15  C   LIG    1        6.099  -0.652  -0.055  0.00  0.00    +0.006 A 
ATOM     16  C   LIG    1        6.118  -2.035  -0.068  0.00  0.00    -0.030 A 
ATOM     17  C   LIG    1        4.932  -2.748  -0.066  0.00  0.00    +0.006 A 
ATOM     18  C   LIG    1        3.724  -2.082  -0.045  0.00  0.00    +0.009 A 
BRANCH  13  22
ATOM     19  C   LIG    1       -0.017   1.379   0.010  0.00  0.00    +0.000 A 
ATOM     20  C   LIG    1        1.169   2.092   0.002  0.00  0.00    +0.001 A 
ATOM     21  C   LIG    1        2.377   1.426  -0.013  0.00  0.00    +0.008 A 
ATOM     22  C   LIG    1        2.402   0.033  -0.021  0.00  0.00    -0.018 A 
ATOM     23  C   LIG    1        1.205  -0.680  -0.013  0.00  0.00    +0.008 A 
ATOM     24  C   LIG    1        0.002  -0.004   0.002  0.00  0.00    +0.001 A 
ENDBRANCH  13  22
ENDBRANCH  12  16
ENDBRANCH   1  12
BRANCH   5  25
ATOM     25  O   LIG    1       10.953  -0.080   4.814  0.00  0.00    -0.406 OA
BRANCH  25  26
ATOM     26  C   LIG    1       11.475   1.185   4.401  0.00  0.00    +0.575 C 
ATOM     27  F   LIG    1       12.299   1.008   3.284  0.00  0.00    -0.133 F 
ATOM     28  F   LIG    1       12.219   1.746   5.444  0.00  0.00    -0.133 F 
ATOM     29  F   LIG    1       10.418   2.040   4.069  0.00  0.00    -0.133 F 
ENDBRANCH  25  26
ENDBRANCH   5  25
TORSDOF 5
