REMARK  Name = ZINC49089294
REMARK                            x       y       z     vdW  Elec       q    Type
REMARK                         _______ _______ _______ _____ _____    ______ ____
ROOT
ATOM      1  N   LIG    1       -4.934  -3.867   0.033  0.00  0.00    -0.175 NA
ATOM      2  C   LIG    1       -6.107  -4.485   0.042  0.00  0.00    +0.173 C 
ATOM      3  C   LIG    1       -6.377  -5.937   0.048  0.00  0.00    +0.144 C 
ATOM      4  N   LIG    1       -7.693  -6.051   0.055  0.00  0.00    -0.142 NA
ATOM      5  N   LIG    1       -8.266  -4.907   0.055  0.00  0.00    -0.109 NA
ATOM      6  C   LIG    1       -7.410  -3.907   0.053  0.00  0.00    +0.262 C 
ENDROOT
BRANCH   3   7
ATOM      7  C   LIG    1       -5.384  -7.032   0.045  0.00  0.00    +0.093 A 
ATOM      8  C   LIG    1       -5.816  -8.360   0.046  0.00  0.00    +0.030 A 
ATOM      9  C   LIG    1       -4.875  -9.373   0.044  0.00  0.00    +0.004 A 
ATOM     10  C   LIG    1       -3.530  -9.028   0.041  0.00  0.00    +0.020 A 
ATOM     11  C   LIG    1       -3.171  -7.693   0.040  0.00  0.00    +0.111 A 
ATOM     12  N   LIG    1       -4.087  -6.746   0.037  0.00  0.00    -0.253 NA
ENDBRANCH   3   7
BRANCH   1  13
ATOM     13  N   LIG    1       -4.884  -2.578   0.035  0.00  0.00    -0.237 N 
ATOM     14  H   LIG    1       -5.705  -2.061   0.042  0.00  0.00    +0.174 HD
BRANCH  13  18
ATOM     15  C   LIG    1       -1.200  -0.637   0.010  0.00  0.00    +0.120 A 
ATOM     16  C   LIG    1       -2.374   0.103   0.019  0.00  0.00    +0.047 A 
ATOM     17  C   LIG    1       -3.596  -0.539   0.028  0.00  0.00    +0.028 A 
ATOM     18  C   LIG    1       -3.650  -1.928   0.026  0.00  0.00    +0.049 A 
ATOM     19  C   LIG    1       -2.474  -2.669   0.016  0.00  0.00    +0.028 A 
ATOM     20  C   LIG    1       -1.253  -2.025   0.003  0.00  0.00    +0.047 A 
BRANCH  15  22
ATOM     21  C   LIG    1       -0.017   1.425   0.010  0.00  0.00    +0.277 C 
ATOM     22  O   LIG    1        0.002  -0.004   0.002  0.00  0.00    -0.495 OA
ENDBRANCH  15  22
ENDBRANCH  13  18
ENDBRANCH   1  13
BRANCH   6  23
ATOM     23  O   LIG    1       -7.710  -2.583   0.059  0.00  0.00    -0.490 OA
ATOM     24  H   LIG    1       -7.022  -1.947   0.057  0.00  0.00    +0.294 HD
ENDBRANCH   6  23
TORSDOF 5
