REMARK  Name = ZINC49070819
REMARK                            x       y       z     vdW  Elec       q    Type
REMARK                         _______ _______ _______ _____ _____    ______ ____
ROOT
ATOM      1  C   LIG    1        1.779  -3.796   5.873  0.00  0.00    +0.077 C 
ENDROOT
BRANCH   1   6
ATOM      2  C   LIG    1        1.492  -2.540   2.454  0.00  0.00    +0.034 A 
ATOM      3  C   LIG    1        2.823  -2.696   2.587  0.00  0.00    +0.105 A 
ATOM      4  N   LIG    1        3.065  -3.160   3.821  0.00  0.00    -0.350 N 
ATOM      5  H   LIG    1        3.942  -3.362   4.183  0.00  0.00    +0.166 HD
ATOM      6  C   LIG    1        1.935  -3.299   4.459  0.00  0.00    +0.085 A 
ATOM      7  N   LIG    1        0.928  -2.917   3.643  0.00  0.00    -0.347 N 
ATOM      8  H   LIG    1       -0.017  -2.912   3.860  0.00  0.00    +0.167 HD
BRANCH   2   9
ATOM      9  C   LIG    1        0.763  -2.041   1.233  0.00  0.00    +0.061 C 
BRANCH   9  10
ATOM     10  C   LIG    1        0.742  -0.511   1.242  0.00  0.00    -0.030 C 
ATOM     11  C   LIG    1        0.026  -0.018   2.500  0.00  0.00    +0.011 C 
ATOM     12  C   LIG    1        2.178   0.019   1.231  0.00  0.00    +0.011 C 
BRANCH  10  14
ATOM     13  C   LIG    1       -0.019   1.526   0.010  0.00  0.00    +0.004 C 
ATOM     14  C   LIG    1        0.002  -0.004   0.002  0.00  0.00    +0.003 C 
ENDBRANCH  10  14
ENDBRANCH   9  10
ENDBRANCH   2   9
ENDBRANCH   1   6
BRANCH   1  15
ATOM     15  C   LIG    1        1.836  -2.612   6.840  0.00  0.00    +0.043 C 
BRANCH  15  16
ATOM     16  C   LIG    1        1.681  -3.110   8.253  0.00  0.00    -0.047 A 
ATOM     17  C   LIG    1        0.419  -3.215   8.812  0.00  0.00    +0.004 A 
ATOM     18  C   LIG    1        0.271  -3.670  10.106  0.00  0.00    +0.010 A 
ATOM     19  C   LIG    1        1.395  -4.024  10.851  0.00  0.00    +0.000 A 
ATOM     20  C   LIG    1        2.663  -3.916  10.283  0.00  0.00    +0.010 A 
ATOM     21  C   LIG    1        2.799  -3.465   8.986  0.00  0.00    +0.004 A 
BRANCH  19  22
ATOM     22  C   LIG    1        1.241  -4.513  12.243  0.00  0.00    +0.071 A 
ATOM     23  C   LIG    1        2.371  -4.860  12.982  0.00  0.00    +0.028 A 
ATOM     24  C   LIG    1        2.212  -5.315  14.279  0.00  0.00    +0.004 A 
ATOM     25  C   LIG    1        0.927  -5.409  14.796  0.00  0.00    +0.020 A 
ATOM     26  C   LIG    1       -0.149  -5.048  14.006  0.00  0.00    +0.111 A 
ATOM     27  N   LIG    1        0.030  -4.613  12.775  0.00  0.00    -0.255 NA
ENDBRANCH  19  22
ENDBRANCH  15  16
ENDBRANCH   1  15
TORSDOF 7
