REMARK  Name = ZINC36379291
REMARK                            x       y       z     vdW  Elec       q    Type
REMARK                         _______ _______ _______ _____ _____    ______ ____
ROOT
ATOM      1  N   LIG    1       -1.217  -0.987  -0.074  0.00  0.00    -0.315 N 
ATOM      2  C   LIG    1       -1.895  -1.470   1.004  0.00  0.00    +0.201 A 
ATOM      3  N   LIG    1       -3.128  -1.732   0.675  0.00  0.00    -0.231 NA
ATOM      4  C   LIG    1       -3.320  -1.436  -0.630  0.00  0.00    +0.148 A 
ATOM      5  C   LIG    1       -4.415  -1.511  -1.510  0.00  0.00    +0.155 A 
ATOM      6  N   LIG    1       -4.250  -1.111  -2.764  0.00  0.00    -0.201 NA
ATOM      7  C   LIG    1       -3.075  -0.660  -3.192  0.00  0.00    +0.236 A 
ATOM      8  N   LIG    1       -2.017  -0.577  -2.398  0.00  0.00    -0.199 NA
ATOM      9  C   LIG    1       -2.096  -0.948  -1.128  0.00  0.00    +0.167 A 
ENDROOT
BRANCH   1  11
ATOM     10  C   LIG    1        0.288   0.929   0.133  0.00  0.00    +0.027 C 
ATOM     11  C   LIG    1        0.190  -0.579  -0.102  0.00  0.00    +0.121 C 
ENDBRANCH   1  11
BRANCH   5  12
ATOM     12  N   LIG    1       -5.644  -1.978  -1.072  0.00  0.00    -0.297 N 
ATOM     13  H   LIG    1       -5.780  -2.179  -0.133  0.00  0.00    +0.154 HD
BRANCH  12  14
ATOM     14  C   LIG    1       -6.687  -2.161  -1.984  0.00  0.00    +0.038 A 
ATOM     15  C   LIG    1       -6.412  -2.572  -3.282  0.00  0.00    +0.061 A 
ATOM     16  C   LIG    1       -7.447  -2.753  -4.182  0.00  0.00    +0.128 A 
ATOM     17  F   LIG    1       -7.180  -3.153  -5.445  0.00  0.00    -0.205 F 
ATOM     18  C   LIG    1       -8.755  -2.524  -3.791  0.00  0.00    +0.076 A 
ATOM     19  C   LIG    1       -9.031  -2.114  -2.497  0.00  0.00    +0.128 A 
ATOM     20  F   LIG    1      -10.309  -1.891  -2.118  0.00  0.00    -0.205 F 
ATOM     21  C   LIG    1       -8.001  -1.937  -1.592  0.00  0.00    +0.061 A 
ENDBRANCH  12  14
ENDBRANCH   5  12
BRANCH   7  22
ATOM     22  C   LIG    1       -2.948  -0.250  -4.558  0.00  0.00    +0.140 C 
ATOM     23  N   LIG    1       -2.848   0.076  -5.642  0.00  0.00    -0.188 NA
ENDBRANCH   7  22
TORSDOF 4
