REMARK  Name = ZINC38140873
REMARK                            x       y       z     vdW  Elec       q    Type
REMARK                         _______ _______ _______ _____ _____    ______ ____
ROOT
ATOM      1  C   LIG    1       -0.082   1.257  -0.160  0.00  0.00    +0.028 C 
ATOM      2  C   LIG    1        0.130  -0.258  -0.136  0.00  0.00    +0.024 C 
ATOM      3  C   LIG    1        1.109  -0.689  -1.271  0.00  0.00    +0.010 C 
ATOM      4  C   LIG    1        1.026  -2.245  -1.288  0.00  0.00    +0.005 C 
ATOM      5  C   LIG    1        1.723  -2.689   0.018  0.00  0.00    +0.004 C 
ATOM      6  C   LIG    1        2.162  -1.358   0.702  0.00  0.00    -0.003 C 
ATOM      7  C   LIG    1        2.491  -0.459  -0.564  0.00  0.00    +0.009 C 
ATOM      8  C   LIG    1        0.837  -0.683   1.172  0.00  0.00    -0.014 C 
ATOM      9  C   LIG    1        1.113   0.539   2.050  0.00  0.00    +0.013 C 
ATOM     10  C   LIG    1       -0.013  -1.705   1.930  0.00  0.00    +0.013 C 
ENDROOT
BRANCH   2  11
ATOM     11  N   LIG    1       -1.155  -0.956  -0.273  0.00  0.00    -0.313 NA
ATOM     12  H   LIG    1       -1.041  -1.952  -0.152  0.00  0.00    +0.122 HD
ATOM     13  C   LIG    1       -1.784  -0.652  -1.565  0.00  0.00    +0.101 C 
ENDBRANCH   2  11
TORSDOF 1
