REMARK  Name = ZINC00033019
REMARK                            x       y       z     vdW  Elec       q    Type
REMARK                         _______ _______ _______ _____ _____    ______ ____
ROOT
ATOM      1  N   LIG    1        1.200  -2.090  -0.021  0.00  0.00    -0.280 N 
ATOM      2  H   LIG    1        2.037  -2.572  -0.113  0.00  0.00    +0.155 HD
ATOM      3  C   LIG    1        0.040  -2.769   0.087  0.00  0.00    +0.248 C 
ATOM      4  O   LIG    1       -1.017  -2.168   0.101  0.00  0.00    -0.270 OA
ENDROOT
BRANCH   1  13
ATOM      5  C   LIG    1        0.154   1.380   0.640  0.00  0.00    +0.003 A 
ATOM      6  C   LIG    1        1.151   2.103   0.058  0.00  0.00    +0.010 A 
ATOM      7  C   LIG    1        2.213   1.444  -0.580  0.00  0.00    +0.002 A 
ATOM      8  C   LIG    1        3.259   2.163  -1.191  0.00  0.00    +0.011 A 
ATOM      9  C   LIG    1        4.261   1.456  -1.793  0.00  0.00    +0.020 A 
ATOM     10  C   LIG    1        4.228   0.064  -1.790  0.00  0.00    +0.111 A 
ATOM     11  N   LIG    1        3.253  -0.602  -1.220  0.00  0.00    -0.253 NA
ATOM     12  C   LIG    1        2.243   0.029  -0.614  0.00  0.00    +0.092 A 
ATOM     13  C   LIG    1        1.196  -0.694  -0.002  0.00  0.00    +0.060 A 
ATOM     14  C   LIG    1        0.170  -0.011   0.614  0.00  0.00    +0.025 A 
ENDBRANCH   1  13
BRANCH   3  15
ATOM     15  C   LIG    1        0.053  -4.243   0.190  0.00  0.00    +0.039 A 
ATOM     16  C   LIG    1        1.266  -4.936   0.181  0.00  0.00    +0.013 A 
ATOM     17  C   LIG    1        1.271  -6.311   0.277  0.00  0.00    +0.003 A 
ATOM     18  C   LIG    1        0.079  -7.005   0.382  0.00  0.00    +0.032 A 
ATOM     19  C   LIG    1       -1.126  -6.325   0.392  0.00  0.00    +0.122 A 
ATOM     20  C   LIG    1       -1.145  -4.949   0.303  0.00  0.00    +0.045 A 
BRANCH  19  21
ATOM     21  N   LIG    1       -2.397  -7.076   0.505  0.00  0.00    +0.006 N 
ATOM     22  O   LIG    1       -2.381  -8.282   0.588  0.00  0.00    -0.130 OA
BRANCH  21  23
ATOM     23  O   LIG    1       -3.450  -6.483   0.514  0.00  0.00    -0.396 OA
ATOM     24  H   LIG    1       -3.462  -5.549   0.449  0.00  0.00    +0.329 HD
ENDBRANCH  21  23
ENDBRANCH  19  21
ENDBRANCH   3  15
TORSDOF 4
