REMARK  Name = ZINC15659798
REMARK                            x       y       z     vdW  Elec       q    Type
REMARK                         _______ _______ _______ _____ _____    ______ ____
ROOT
ATOM      1  C   LIG    1        4.647   4.365  -0.019  0.00  0.00    +0.136 A 
ATOM      2  C   LIG    1        5.592   3.364  -0.033  0.00  0.00    +0.050 A 
ATOM      3  C   LIG    1        4.901   2.150  -0.026  0.00  0.00    +0.050 A 
ATOM      4  C   LIG    1        3.552   2.457  -0.018  0.00  0.00    +0.130 A 
ATOM      5  O   LIG    1        3.426   3.801  -0.010  0.00  0.00    -0.455 OA
ENDROOT
BRANCH   4   6
ATOM      6  C   LIG    1        2.492   1.527  -0.013  0.00  0.00    +0.066 C 
ATOM      7  C   LIG    1        1.199   1.965   0.001  0.00  0.00    +0.082 C 
ATOM      8  C   LIG    1       -0.014   1.214   0.009  0.00  0.00    +0.258 C 
ATOM      9  N   LIG    1       -1.157   1.879   0.018  0.00  0.00    -0.243 N 
ATOM     10  H   LIG    1       -1.994   1.390   0.019  0.00  0.00    +0.159 HD
ATOM     11  C   LIG    1       -1.175   3.230   0.030  0.00  0.00    +0.283 C 
ATOM     12  O   LIG    1       -2.132   3.980   0.043  0.00  0.00    -0.262 OA
ATOM     13  O   LIG    1        0.002  -0.004   0.002  0.00  0.00    -0.269 OA
ATOM     14  S   LIG    1        0.565   3.636   0.015  0.00  0.00    -0.026 S 
ENDBRANCH   4   6
BRANCH   1  20
ATOM     15  C   LIG    1        6.250   6.271  -0.023  0.00  0.00    +0.015 A 
ATOM     16  C   LIG    1        6.517   7.622  -0.019  0.00  0.00    +0.047 A 
ATOM     17  C   LIG    1        5.476   8.541  -0.005  0.00  0.00    +0.131 A 
ATOM     18  C   LIG    1        4.145   8.094   0.004  0.00  0.00    +0.101 A 
ATOM     19  C   LIG    1        3.874   6.727  -0.005  0.00  0.00    +0.030 A 
ATOM     20  C   LIG    1        4.927   5.814  -0.014  0.00  0.00    +0.018 A 
BRANCH  17  21
ATOM     21  O   LIG    1        5.745   9.870  -0.001  0.00  0.00    -0.506 OA
ATOM     22  H   LIG    1        5.815  10.260  -0.883  0.00  0.00    +0.292 HD
ENDBRANCH  17  21
BRANCH  18  23
ATOM     23  C   LIG    1        3.038   9.068   0.019  0.00  0.00    +0.340 C 
ATOM     24  O   LIG    1        3.277  10.259   0.023  0.00  0.00    -0.245 OA
BRANCH  23  25
ATOM     25  O   LIG    1        1.762   8.636   0.028  0.00  0.00    -0.477 OA
ATOM     26  H   LIG    1        1.578   7.717   0.025  0.00  0.00    +0.295 HD
ENDBRANCH  23  25
ENDBRANCH  18  23
ENDBRANCH   1  20
TORSDOF 5
