REMARK  Name = ZINC49019597
REMARK                            x       y       z     vdW  Elec       q    Type
REMARK                         _______ _______ _______ _____ _____    ______ ____
ROOT
ATOM      1  C   LIG    1        0.606  -0.607  -1.056  0.00  0.00    +0.150 A 
ATOM      2  C   LIG    1        1.173   0.164  -2.062  0.00  0.00    +0.048 A 
ATOM      3  C   LIG    1        1.786  -0.445  -3.136  0.00  0.00    +0.015 A 
ATOM      4  C   LIG    1        1.836  -1.836  -3.211  0.00  0.00    +0.023 A 
ATOM      5  C   LIG    1        1.266  -2.607  -2.200  0.00  0.00    +0.048 A 
ATOM      6  C   LIG    1        0.659  -1.992  -1.125  0.00  0.00    +0.164 A 
ENDROOT
BRANCH   4   7
ATOM      7  C   LIG    1        2.495  -2.495  -4.367  0.00  0.00    +0.182 A 
ATOM      8  N   LIG    1        3.079  -1.864  -5.391  0.00  0.00    -0.207 NA
ATOM      9  C   LIG    1        3.562  -2.747  -6.238  0.00  0.00    +0.157 A 
ATOM     10  N   LIG    1        3.289  -3.982  -5.757  0.00  0.00    -0.258 N 
ATOM     11  H   LIG    1        3.524  -4.830  -6.167  0.00  0.00    +0.191 HD
ATOM     12  N   LIG    1        2.604  -3.794  -4.546  0.00  0.00    -0.152 NA
BRANCH   9  13
ATOM     13  C   LIG    1        4.280  -2.443  -7.497  0.00  0.00    +0.022 A 
ATOM     14  C   LIG    1        4.746  -3.470  -8.325  0.00  0.00    +0.031 A 
ATOM     15  C   LIG    1        5.410  -3.141  -9.489  0.00  0.00    +0.111 A 
ATOM     16  N   LIG    1        5.606  -1.880  -9.824  0.00  0.00    -0.263 NA
ATOM     17  C   LIG    1        5.184  -0.882  -9.072  0.00  0.00    +0.111 A 
ATOM     18  C   LIG    1        4.506  -1.121  -7.894  0.00  0.00    +0.031 A 
ENDBRANCH   9  13
ENDBRANCH   4   7
BRANCH   1  20
ATOM     19  C   LIG    1       -0.017   1.425   0.010  0.00  0.00    +0.277 C 
ATOM     20  O   LIG    1        0.002  -0.004   0.002  0.00  0.00    -0.493 OA
ENDBRANCH   1  20
BRANCH   6  21
ATOM     21  N   LIG    1        0.059  -2.811  -0.047  0.00  0.00    +0.010 N 
ATOM     22  O   LIG    1        0.106  -4.017  -0.107  0.00  0.00    -0.130 OA
BRANCH  21  23
ATOM     23  O   LIG    1       -0.477  -2.272   0.893  0.00  0.00    -0.396 OA
ATOM     24  H   LIG    1       -0.513  -1.337   0.939  0.00  0.00    +0.329 HD
ENDBRANCH  21  23
ENDBRANCH   6  21
TORSDOF 5
