REMARK  Name = ZINC13808173
REMARK                            x       y       z     vdW  Elec       q    Type
REMARK                         _______ _______ _______ _____ _____    ______ ____
ROOT
ATOM      1  S   LIG    1        5.231  -2.823  -0.063  0.00  0.00    +0.095 S 
ATOM      2  O   LIG    1        6.181  -1.923  -0.619  0.00  0.00    -0.148 OA
ATOM      3  O   LIG    1        4.984  -4.107  -0.618  0.00  0.00    -0.148 OA
ENDROOT
BRANCH   1   9
ATOM      4  C   LIG    1       -0.016   1.357   0.009  0.00  0.00    +0.001 A 
ATOM      5  C   LIG    1        1.169   2.091   0.002  0.00  0.00    +0.001 A 
ATOM      6  C   LIG    1        2.378   1.468  -0.013  0.00  0.00    +0.008 A 
ATOM      7  C   LIG    1        2.438   0.063  -0.021  0.00  0.00    -0.016 A 
ATOM      8  C   LIG    1        3.668  -0.615  -0.036  0.00  0.00    +0.037 A 
ATOM      9  C   LIG    1        3.687  -1.976  -0.043  0.00  0.00    +0.112 A 
ATOM     10  C   LIG    1        2.502  -2.710  -0.036  0.00  0.00    +0.029 A 
ATOM     11  C   LIG    1        1.292  -2.087  -0.021  0.00  0.00    +0.010 A 
ATOM     12  C   LIG    1        1.233  -0.683  -0.013  0.00  0.00    -0.018 A 
ATOM     13  C   LIG    1        0.002  -0.004   0.002  0.00  0.00    +0.008 A 
ENDBRANCH   1   9
BRANCH   1  14
ATOM     14  N   LIG    1        5.677  -3.066   1.513  0.00  0.00    -0.108 N 
ATOM     15  H   LIG    1        6.507  -2.692   1.846  0.00  0.00    +0.211 HD
BRANCH  14  16
ATOM     16  N   LIG    1        4.854  -3.813   2.366  0.00  0.00    -0.173 N 
ATOM     17  H   LIG    1        4.023  -4.187   2.034  0.00  0.00    +0.289 HD
ATOM     18  C   LIG    1        5.203  -4.004   3.603  0.00  0.00    +0.362 C 
BRANCH  18  19
ATOM     19  N   LIG    1        4.387  -4.744   4.448  0.00  0.00    -0.290 N 
ATOM     20  H   LIG    1        4.648  -4.886   5.372  0.00  0.00    +0.255 HD
ATOM     21  H   LIG    1        3.556  -5.118   4.115  0.00  0.00    +0.255 HD
ENDBRANCH  18  19
BRANCH  18  22
ATOM     22  N   LIG    1        6.391  -3.468   4.079  0.00  0.00    -0.290 N 
ATOM     23  H   LIG    1        6.652  -3.610   5.002  0.00  0.00    +0.255 HD
ATOM     24  H   LIG    1        6.961  -2.951   3.488  0.00  0.00    +0.255 HD
ENDBRANCH  18  22
ENDBRANCH  14  16
ENDBRANCH   1  14
TORSDOF 5
