REMARK  Name = ZINC38145808
REMARK                            x       y       z     vdW  Elec       q    Type
REMARK                         _______ _______ _______ _____ _____    ______ ____
ROOT
ATOM      1  C   LIG    1       -1.142   7.727   0.052  0.00  0.00    +0.336 C 
ENDROOT
BRANCH   1   2
ATOM      2  C   LIG    1       -1.108   8.222   1.475  0.00  0.00    +0.350 C 
ATOM      3  O   LIG    1       -0.965   9.411   1.704  0.00  0.00    -0.247 OA
BRANCH   2   4
ATOM      4  O   LIG    1       -1.224   7.433   2.398  0.00  0.00    -0.478 OA
ATOM      5  H   LIG    1       -1.334   6.519   2.222  0.00  0.00    +0.295 HD
ENDBRANCH   2   4
ENDBRANCH   1   2
BRANCH   1   6
ATOM      6  C   LIG    1       -2.376   8.291  -0.655  0.00  0.00    +0.336 C 
BRANCH   6   7
ATOM      7  C   LIG    1       -2.477   7.700  -2.037  0.00  0.00    +0.350 C 
ATOM      8  O   LIG    1       -3.416   6.978  -2.325  0.00  0.00    -0.247 OA
BRANCH   7   9
ATOM      9  O   LIG    1       -1.619   7.945  -2.869  0.00  0.00    -0.478 OA
ATOM     10  H   LIG    1       -0.898   8.500  -2.648  0.00  0.00    +0.295 HD
ENDBRANCH   7   9
ENDBRANCH   6   7
BRANCH   6  11
ATOM     11  O   LIG    1       -3.547   7.957   0.093  0.00  0.00    -0.442 OA
BRANCH  11  12
ATOM     12  C   LIG    1       -4.585   8.818   0.023  0.00  0.00    +0.333 C 
ATOM     13  O   LIG    1       -4.495   9.825  -0.654  0.00  0.00    -0.246 OA
BRANCH  12  14
ATOM     14  C   LIG    1       -5.778   8.549   0.740  0.00  0.00    +0.092 C 
ATOM     15  C   LIG    1       -6.816   9.411   0.670  0.00  0.00    +0.015 C 
BRANCH  15  16
ATOM     16  C   LIG    1       -8.053   9.132   1.412  0.00  0.00    -0.021 A 
ATOM     17  C   LIG    1       -9.133  10.021   1.337  0.00  0.00    +0.057 A 
ATOM     18  C   LIG    1      -10.293   9.753   2.037  0.00  0.00    +0.159 A 
ATOM     19  C   LIG    1      -10.387   8.601   2.816  0.00  0.00    +0.158 A 
ATOM     20  C   LIG    1       -9.317   7.719   2.892  0.00  0.00    +0.050 A 
ATOM     21  C   LIG    1       -8.158   7.975   2.192  0.00  0.00    +0.012 A 
BRANCH  19  22
ATOM     22  O   LIG    1      -11.529   8.340   3.504  0.00  0.00    -0.503 OA
ATOM     23  H   LIG    1      -12.177   7.821   3.008  0.00  0.00    +0.292 HD
ENDBRANCH  19  22
BRANCH  18  24
ATOM     24  O   LIG    1      -11.343  10.614   1.966  0.00  0.00    -0.503 OA
ATOM     25  H   LIG    1      -11.964  10.419   1.250  0.00  0.00    +0.292 HD
ENDBRANCH  18  24
ENDBRANCH  15  16
ENDBRANCH  12  14
ENDBRANCH  11  12
ENDBRANCH   6  11
ENDBRANCH   1   6
BRANCH   1  26
ATOM     26  O   LIG    1       -1.201   6.299   0.045  0.00  0.00    -0.442 OA
BRANCH  26  27
ATOM     27  C   LIG    1       -0.025   5.638   0.031  0.00  0.00    +0.333 C 
ATOM     28  O   LIG    1        1.022   6.258   0.025  0.00  0.00    -0.246 OA
BRANCH  27  30
ATOM     29  C   LIG    1        1.169   3.558   0.009  0.00  0.00    +0.015 C 
ATOM     30  C   LIG    1       -0.008   4.221   0.024  0.00  0.00    +0.092 C 
BRANCH  29  32
ATOM     31  C   LIG    1       -0.017   1.373   0.010  0.00  0.00    +0.012 A 
ATOM     32  C   LIG    1        1.186   2.089   0.002  0.00  0.00    -0.021 A 
ATOM     33  C   LIG    1        2.405   1.401  -0.013  0.00  0.00    +0.057 A 
ATOM     34  C   LIG    1        2.414   0.020  -0.021  0.00  0.00    +0.159 A 
ATOM     35  C   LIG    1        1.212  -0.686  -0.014  0.00  0.00    +0.158 A 
ATOM     36  C   LIG    1        0.002  -0.004   0.002  0.00  0.00    +0.050 A 
BRANCH  35  37
ATOM     37  O   LIG    1        1.224  -2.044  -0.022  0.00  0.00    -0.503 OA
ATOM     38  H   LIG    1        1.236  -2.442   0.859  0.00  0.00    +0.292 HD
ENDBRANCH  35  37
BRANCH  34  39
ATOM     39  O   LIG    1        3.597  -0.651  -0.036  0.00  0.00    -0.503 OA
ATOM     40  H   LIG    1        3.947  -0.850   0.843  0.00  0.00    +0.292 HD
ENDBRANCH  34  39
ENDBRANCH  29  32
ENDBRANCH  27  30
ENDBRANCH  26  27
ENDBRANCH   1  26
TORSDOF 17
