REMARK  Name = ZINC38450402
REMARK                            x       y       z     vdW  Elec       q    Type
REMARK                         _______ _______ _______ _____ _____    ______ ____
ROOT
ATOM      1  C   LIG    1        8.557   0.595  -2.152  0.00  0.00    +0.135 C 
ENDROOT
BRANCH   1   2
ATOM      2  O   LIG    1        8.649   1.802  -2.910  0.00  0.00    -0.390 OA
ATOM      3  H   LIG    1        8.416   1.700  -3.843  0.00  0.00    +0.210 HD
ENDBRANCH   1   2
BRANCH   1   4
ATOM      4  C   LIG    1        7.121   0.069  -2.203  0.00  0.00    +0.258 C 
BRANCH   4   5
ATOM      5  O   LIG    1        6.252   0.994  -1.548  0.00  0.00    -0.489 OA
BRANCH   5   9
ATOM      6  C   LIG    1        2.240   0.024  -1.415  0.00  0.00    +0.048 A 
ATOM      7  C   LIG    1        2.689   1.205  -0.838  0.00  0.00    +0.028 A 
ATOM      8  C   LIG    1        4.031   1.528  -0.882  0.00  0.00    +0.047 A 
ATOM      9  C   LIG    1        4.931   0.674  -1.504  0.00  0.00    +0.121 A 
ATOM     10  C   LIG    1        4.483  -0.505  -2.081  0.00  0.00    +0.047 A 
ATOM     11  C   LIG    1        3.142  -0.833  -2.032  0.00  0.00    +0.028 A 
BRANCH   6  12
ATOM     12  N   LIG    1        0.881  -0.304  -1.369  0.00  0.00    -0.221 N 
ATOM     13  H   LIG    1        0.334  -0.215  -2.165  0.00  0.00    +0.173 HD
BRANCH  12  15
ATOM     14  C   LIG    1        1.053  -2.412   0.394  0.00  0.00    +0.218 C 
ATOM     15  S   LIG    1        0.207  -0.845   0.044  0.00  0.00    +0.040 S 
ATOM     16  O   LIG    1        0.564   0.131   1.013  0.00  0.00    -0.155 OA
ATOM     17  O   LIG    1       -1.157  -1.086  -0.274  0.00  0.00    -0.155 OA
ENDBRANCH  12  15
ENDBRANCH   6  12
ENDBRANCH   5   9
ENDBRANCH   4   5
ENDBRANCH   1   4
BRANCH   1  18
ATOM     18  C   LIG    1        9.505  -0.452  -2.743  0.00  0.00    -0.048 C 
BRANCH  18  19
ATOM     19  N   LIG    1       10.893   0.001  -2.585  0.00  0.00    +0.381 N 
ATOM     20  H   LIG    1       11.098   0.125  -1.605  0.00  0.00    -0.086 HD
ATOM     21  H   LIG    1       11.018   0.878  -3.068  0.00  0.00    -0.086 HD
BRANCH  19  22
ATOM     22  C   LIG    1       11.803  -1.004  -3.152  0.00  0.00    -0.078 C 
BRANCH  22  23
ATOM     23  C   LIG    1       13.249  -0.532  -2.988  0.00  0.00    +0.016 C 
BRANCH  23  24
ATOM     24  C   LIG    1       14.183  -1.563  -3.569  0.00  0.00    -0.048 A 
ATOM     25  C   LIG    1       14.664  -2.586  -2.774  0.00  0.00    +0.005 A 
ATOM     26  C   LIG    1       15.520  -3.531  -3.306  0.00  0.00    +0.022 A 
ATOM     27  C   LIG    1       15.896  -3.454  -4.635  0.00  0.00    +0.059 A 
ATOM     28 CL   LIG    1       16.972  -4.641  -5.304  0.00  0.00    -0.082 Cl
ATOM     29  C   LIG    1       15.414  -2.430  -5.432  0.00  0.00    +0.059 A 
ATOM     30 CL   LIG    1       15.885  -2.332  -7.100  0.00  0.00    -0.082 Cl
ATOM     31  C   LIG    1       14.553  -1.488  -4.899  0.00  0.00    +0.025 A 
ENDBRANCH  23  24
ENDBRANCH  22  23
ENDBRANCH  19  22
ENDBRANCH  18  19
ENDBRANCH   1  18
TORSDOF 11
