REMARK  Name = ZINC13783217
REMARK                            x       y       z     vdW  Elec       q    Type
REMARK                         _______ _______ _______ _____ _____    ______ ____
ROOT
ATOM      1  C   LIG    1       -0.025   1.501  -0.065  0.00  0.00    +0.035 C 
ATOM      2  C   LIG    1        0.002  -0.004   0.002  0.00  0.00    -0.023 C 
ATOM      3  C   LIG    1       -1.139  -0.688   0.110  0.00  0.00    -0.003 C 
ATOM      4  C   LIG    1       -1.276  -2.148   0.227  0.00  0.00    +0.160 C 
ATOM      5  C   LIG    1       -2.759  -2.470   0.316  0.00  0.00    +0.084 C 
ATOM      6  C   LIG    1       -3.440  -1.243  -0.364  0.00  0.00    +0.010 C 
ATOM      7  C   LIG    1       -3.320  -1.472  -1.876  0.00  0.00    -0.002 C 
ATOM      8  C   LIG    1       -4.367  -2.514  -2.260  0.00  0.00    +0.008 C 
ATOM      9  C   LIG    1       -4.787  -2.417  -3.720  0.00  0.00    +0.032 C 
ATOM     10  C   LIG    1       -3.667  -1.803  -4.522  0.00  0.00    -0.060 C 
ATOM     11  C   LIG    1       -3.104  -2.472  -5.523  0.00  0.00    +0.046 C 
ATOM     12  C   LIG    1       -2.010  -1.889  -6.297  0.00  0.00    +0.156 C 
ATOM     13  C   LIG    1       -1.484  -0.520  -5.945  0.00  0.00    +0.080 C 
ATOM     14  C   LIG    1       -1.721  -0.265  -4.452  0.00  0.00    +0.019 C 
ATOM     15  O   LIG    1       -1.525  -2.506  -7.222  0.00  0.00    -0.293 OA
ATOM     16  C   LIG    1       -3.197  -0.376  -4.142  0.00  0.00    -0.007 C 
ATOM     17  C   LIG    1       -3.984   0.655  -4.954  0.00  0.00    +0.016 C 
ATOM     18  C   LIG    1       -3.458  -0.155  -2.646  0.00  0.00    +0.002 C 
ATOM     19  C   LIG    1       -2.416   0.861  -2.155  0.00  0.00    +0.005 C 
ATOM     20  C   LIG    1       -2.665   1.155  -0.678  0.00  0.00    +0.012 C 
ATOM     21  O   LIG    1       -0.367  -2.952   0.250  0.00  0.00    -0.292 OA
ATOM     22  C   LIG    1       -2.532  -0.108   0.141  0.00  0.00    -0.001 C 
ATOM     23  C   LIG    1       -2.901   0.220   1.590  0.00  0.00    +0.016 C 
ENDROOT
TORSDOF 0
