REMARK  Name = ZINC18115268
REMARK                            x       y       z     vdW  Elec       q    Type
REMARK                         _______ _______ _______ _____ _____    ______ ____
ROOT
ATOM      1  C   LIG    1        1.517   0.246  -4.903  0.00  0.00    +0.110 C 
ENDROOT
BRANCH   1   2
ATOM      2  S   LIG    1        1.690  -0.298  -3.182  0.00  0.00    -0.151 S 
BRANCH   2   3
ATOM      3  C   LIG    1       -0.001  -0.725  -2.684  0.00  0.00    +0.124 C 
BRANCH   3   6
ATOM      4  C   LIG    1       -0.363   1.056  -0.135  0.00  0.00    +0.065 C 
ATOM      5  C   LIG    1       -0.155  -0.436  -0.155  0.00  0.00    +0.034 A 
ATOM      6  C   LIG    1        0.001  -1.199  -1.254  0.00  0.00    +0.046 A 
ATOM      7  N   LIG    1        0.161  -2.488  -0.822  0.00  0.00    -0.349 N 
ATOM      8  C   LIG    1        0.097  -2.468   0.527  0.00  0.00    +0.171 A 
ATOM      9  H   LIG    1        0.295  -3.270  -1.380  0.00  0.00    +0.166 HD
ATOM     10  N   LIG    1       -0.087  -1.237   0.919  0.00  0.00    -0.350 N 
ATOM     11  H   LIG    1       -0.164  -0.947   1.842  0.00  0.00    +0.166 HD
ENDBRANCH   3   6
ENDBRANCH   2   3
ENDBRANCH   1   2
BRANCH   1  12
ATOM     12  C   LIG    1        2.889   0.640  -5.454  0.00  0.00    +0.254 C 
BRANCH  12  13
ATOM     13  N   LIG    1        2.749   1.080  -6.845  0.00  0.00    -0.112 NA
ATOM     14  C   LIG    1        3.040   2.307  -7.172  0.00  0.00    +0.395 C 
BRANCH  14  15
ATOM     15  N   LIG    1        3.599   3.152  -6.243  0.00  0.00    -0.278 N 
ATOM     16  H   LIG    1        3.835   2.818  -5.364  0.00  0.00    +0.258 HD
ATOM     17  C   LIG    1        3.838   4.557  -6.582  0.00  0.00    +0.239 C 
ENDBRANCH  14  15
BRANCH  14  18
ATOM     18  N   LIG    1        2.786   2.758  -8.451  0.00  0.00    -0.178 N 
ATOM     19  H   LIG    1        2.391   2.161  -9.106  0.00  0.00    +0.278 HD
BRANCH  18  20
ATOM     20  C   LIG    1        3.088   4.034  -8.792  0.00  0.00    +0.255 C 
ATOM     21  N   LIG    1        3.342   5.104  -9.077  0.00  0.00    -0.154 NA
ENDBRANCH  18  20
ENDBRANCH  14  18
ENDBRANCH  12  13
ENDBRANCH   1  12
TORSDOF 8
