REMARK  Name = ZINC14975987
REMARK                            x       y       z     vdW  Elec       q    Type
REMARK                         _______ _______ _______ _____ _____    ______ ____
ROOT
ATOM      1  N   LIG    1        1.561   1.556  -7.347  0.00  0.00    -0.333 N 
ATOM      2  C   LIG    1        0.338   0.873  -6.904  0.00  0.00    +0.086 C 
ATOM      3  C   LIG    1       -0.164   1.519  -5.611  0.00  0.00    -0.060 C 
ATOM      4  N   LIG    1        0.890   1.407  -4.582  0.00  0.00    +0.382 N 
ATOM      5  H   LIG    1        1.115   0.415  -4.441  0.00  0.00    -0.082 HD
ATOM      6  C   LIG    1        2.108   2.117  -5.028  0.00  0.00    -0.060 C 
ATOM      7  C   LIG    1        2.610   1.471  -6.321  0.00  0.00    +0.086 C 
ENDROOT
BRANCH   1  13
ATOM      8  C   LIG    1        2.010   1.843  -9.710  0.00  0.00    +0.003 A 
ATOM      9  C   LIG    1        2.463   1.320 -10.918  0.00  0.00    +0.010 A 
ATOM     10  C   LIG    1        2.899   0.012 -10.982  0.00  0.00    +0.001 A 
ATOM     11  C   LIG    1        2.893  -0.782  -9.849  0.00  0.00    +0.002 A 
ATOM     12  C   LIG    1        2.451  -0.273  -8.643  0.00  0.00    +0.024 A 
ATOM     13  C   LIG    1        2.009   1.040  -8.563  0.00  0.00    +0.037 A 
BRANCH   8  17
ATOM     14  C   LIG    1        0.648   5.865  -9.502  0.00  0.00    +0.000 A 
ATOM     15  C   LIG    1        1.915   5.591  -9.983  0.00  0.00    +0.001 A 
ATOM     16  C   LIG    1        2.362   4.288 -10.053  0.00  0.00    +0.008 A 
ATOM     17  C   LIG    1        1.535   3.246  -9.637  0.00  0.00    -0.016 A 
ATOM     18  C   LIG    1        0.257   3.528  -9.157  0.00  0.00    +0.008 A 
ATOM     19  C   LIG    1       -0.178   4.836  -9.086  0.00  0.00    +0.001 A 
ENDBRANCH   8  17
ENDBRANCH   1  13
BRANCH   4  20
ATOM     20  C   LIG    1        0.413   1.977  -3.304  0.00  0.00    -0.079 C 
BRANCH  20  21
ATOM     21  C   LIG    1        1.427   1.649  -2.206  0.00  0.00    -0.019 C 
BRANCH  21  22
ATOM     22  C   LIG    1        0.935   2.214  -0.872  0.00  0.00    -0.001 C 
BRANCH  22  23
ATOM     23  C   LIG    1        1.950   1.886   0.225  0.00  0.00    +0.009 C 
BRANCH  23  24
ATOM     24  C   LIG    1        1.458   2.451   1.559  0.00  0.00    +0.096 C 
BRANCH  24  25
ATOM     25  C   LIG    1        2.457   2.128   2.640  0.00  0.00    +0.213 C 
ATOM     26  N   LIG    1        2.233   2.530   3.907  0.00  0.00    -0.308 N 
ATOM     27  H   LIG    1        1.428   3.027   4.123  0.00  0.00    +0.149 HD
ATOM     28  O   LIG    1        3.463   1.506   2.370  0.00  0.00    -0.276 OA
BRANCH  26  29
ATOM     29  C   LIG    1        3.204   2.215   4.958  0.00  0.00    +0.103 C 
ATOM     30  C   LIG    1        2.494   2.196   6.311  0.00  0.00    +0.027 C 
ATOM     31  C   LIG    1        3.555   2.082   7.412  0.00  0.00    +0.007 C 
ATOM     32  C   LIG    1        4.328   3.397   7.474  0.00  0.00    +0.035 C 
ATOM     33  C   LIG    1        4.817   3.790   6.105  0.00  0.00    -0.042 A 
ATOM     34  C   LIG    1        5.831   4.736   6.027  0.00  0.00    +0.004 A 
ATOM     35  C   LIG    1        6.319   5.142   4.802  0.00  0.00    +0.000 A 
ATOM     36  C   LIG    1        5.795   4.603   3.642  0.00  0.00    +0.000 A 
ATOM     37  C   LIG    1        4.789   3.661   3.717  0.00  0.00    +0.006 A 
ATOM     38  C   LIG    1        4.298   3.250   4.949  0.00  0.00    -0.024 A 
ENDBRANCH  26  29
ENDBRANCH  24  25
ENDBRANCH  23  24
ENDBRANCH  22  23
ENDBRANCH  21  22
ENDBRANCH  20  21
ENDBRANCH   4  20
TORSDOF 9
