REMARK  Name = ZINC49739406
REMARK                            x       y       z     vdW  Elec       q    Type
REMARK                         _______ _______ _______ _____ _____    ______ ____
ROOT
ATOM      1  C   LIG    1       -0.086   1.307   0.449  0.00  0.00    +0.020 A 
ATOM      2  C   LIG    1        1.093   2.034   0.480  0.00  0.00    +0.015 A 
ATOM      3  C   LIG    1        2.300   1.342   0.337  0.00  0.00    +0.048 A 
ATOM      4  C   LIG    1        2.266  -0.054   0.159  0.00  0.00    +0.123 A 
ATOM      5  C   LIG    1        3.542  -0.796  -0.024  0.00  0.00    +0.227 C 
ATOM      6  C   LIG    1        4.806  -0.046   0.250  0.00  0.00    +0.110 C 
ATOM      7  C   LIG    1        4.826   1.411  -0.181  0.00  0.00    +0.203 C 
ATOM      8 CL   LIG    1        4.821   1.517  -1.981  0.00  0.00    -0.106 Cl
ATOM      9  N   LIG    1        5.819  -0.603   0.821  0.00  0.00    -0.281 NA
ATOM     10  O   LIG    1        3.557  -1.957  -0.380  0.00  0.00    -0.284 OA
ATOM     11  N   LIG    1        1.111  -0.700   0.144  0.00  0.00    -0.251 NA
ATOM     12  C   LIG    1        3.582   2.067   0.376  0.00  0.00    +0.189 C 
ATOM     13  O   LIG    1        3.639   3.180   0.852  0.00  0.00    -0.290 OA
ATOM     14  C   LIG    1       -0.037  -0.068   0.281  0.00  0.00    +0.111 A 
ENDROOT
BRANCH   9  15
ATOM     15  C   LIG    1        7.087   0.123   0.932  0.00  0.00    +0.157 C 
BRANCH  15  16
ATOM     16  C   LIG    1        7.386   0.404   2.406  0.00  0.00    +0.107 C 
BRANCH  16  17
ATOM     17  N   LIG    1        8.657   1.132   2.518  0.00  0.00    -0.296 NA
ATOM     18  C   LIG    1        9.785   0.290   2.094  0.00  0.00    +0.112 C 
ATOM     19  C   LIG    1       11.079   1.105   2.169  0.00  0.00    +0.175 C 
ATOM     20  O   LIG    1       11.246   1.603   3.499  0.00  0.00    -0.377 OA
ATOM     21  C   LIG    1       10.166   2.428   3.945  0.00  0.00    +0.175 C 
ATOM     22  C   LIG    1        8.863   1.626   3.887  0.00  0.00    +0.112 C 
ENDBRANCH  16  17
ENDBRANCH  15  16
ENDBRANCH   9  15
TORSDOF 3
