REMARK  Name = ZINC47639227
REMARK                            x       y       z     vdW  Elec       q    Type
REMARK                         _______ _______ _______ _____ _____    ______ ____
ROOT
ATOM      1  N   LIG    1       -1.792  -2.450  -4.456  0.00  0.00    -0.296 N 
ATOM      2  H   LIG    1       -2.608  -1.942  -4.591  0.00  0.00    +0.151 HD
ATOM      3  C   LIG    1       -1.598  -3.603  -5.126  0.00  0.00    +0.300 C 
ATOM      4  N   LIG    1       -2.537  -4.052  -5.982  0.00  0.00    -0.297 N 
ATOM      5  H   LIG    1       -3.352  -3.544  -6.117  0.00  0.00    +0.151 HD
ATOM      6  O   LIG    1       -0.575  -4.239  -4.957  0.00  0.00    -0.253 OA
ENDROOT
BRANCH   1  12
ATOM      7  C   LIG    1        0.035  -0.763   1.303  0.00  0.00    +0.109 C 
ATOM      8  C   LIG    1        0.002  -0.004   0.002  0.00  0.00    +0.212 C 
ATOM      9  N   LIG    1        0.102  -0.666  -1.167  0.00  0.00    -0.302 N 
ATOM     10  C   LIG    1        0.197   0.067  -2.437  0.00  0.00    +0.109 C 
ATOM     11  C   LIG    1       -0.893  -0.444  -3.385  0.00  0.00    +0.041 C 
ATOM     12  C   LIG    1       -0.771  -1.962  -3.525  0.00  0.00    +0.077 C 
ATOM     13  C   LIG    1       -0.972  -2.621  -2.158  0.00  0.00    +0.041 C 
ATOM     14  C   LIG    1        0.123  -2.135  -1.197  0.00  0.00    +0.109 C 
ATOM     15  O   LIG    1       -0.114   1.203   0.007  0.00  0.00    -0.276 OA
ENDBRANCH   1  12
BRANCH   4  16
ATOM     16  C   LIG    1       -2.325  -5.306  -6.710  0.00  0.00    +0.074 C 
ATOM     17  C   LIG    1       -2.782  -6.464  -5.865  0.00  0.00    +0.022 C 
ATOM     18  C   LIG    1       -1.926  -7.726  -6.082  0.00  0.00    +0.002 C 
ATOM     19  C   LIG    1       -1.583  -7.968  -7.564  0.00  0.00    +0.000 C 
ATOM     20  C   LIG    1       -2.752  -7.710  -8.475  0.00  0.00    +0.000 C 
ATOM     21  C   LIG    1       -2.663  -6.258  -8.988  0.00  0.00    +0.002 C 
ATOM     22  C   LIG    1       -3.151  -5.294  -8.013  0.00  0.00    +0.022 C 
ENDBRANCH   4  16
TORSDOF 2
