REMARK  Name = ZINC19370978
REMARK                            x       y       z     vdW  Elec       q    Type
REMARK                         _______ _______ _______ _____ _____    ______ ____
ROOT
ATOM      1  C   LIG    1       -3.692  -0.803   0.018  0.00  0.00    +0.104 C 
ENDROOT
BRANCH   1   2
ATOM      2  C   LIG    1       -2.397  -0.033   0.016  0.00  0.00    -0.024 A 
ATOM      3  C   LIG    1       -2.415   1.349   0.026  0.00  0.00    +0.009 A 
ATOM      4  C   LIG    1       -1.229   2.059   0.019  0.00  0.00    +0.050 A 
ATOM      5  C   LIG    1       -0.017   1.385   0.010  0.00  0.00    +0.162 A 
ATOM      6  C   LIG    1        0.002  -0.004   0.002  0.00  0.00    +0.162 A 
ATOM      7  O   LIG    1        1.181  -0.685  -0.007  0.00  0.00    -0.485 OA
ATOM      8  C   LIG    1        2.347   0.053  -0.387  0.00  0.00    +0.270 C 
ATOM      9  C   LIG    1        2.334   1.392   0.364  0.00  0.00    +0.270 C 
ATOM     10  O   LIG    1        1.143   2.098   0.002  0.00  0.00    -0.485 OA
ATOM     11  C   LIG    1       -1.192  -0.710   0.004  0.00  0.00    +0.055 A 
ENDBRANCH   1   2
BRANCH   1  12
ATOM     12  N   LIG    1       -4.647  -0.149   0.915  0.00  0.00    -0.307 N 
ATOM     13  H   LIG    1       -4.552   0.925   1.132  0.00  0.00    +0.149 HD
ATOM     14  C   LIG    1       -5.643  -0.864   1.476  0.00  0.00    +0.235 C 
ATOM     15  O   LIG    1       -5.749  -2.048   1.237  0.00  0.00    -0.274 OA
BRANCH  14  16
ATOM     16  C   LIG    1       -6.626  -0.191   2.399  0.00  0.00    +0.240 C 
BRANCH  16  17
ATOM     17  N   LIG    1       -7.603  -1.175   2.873  0.00  0.00    -0.243 N 
ATOM     18  C   LIG    1       -7.898  -1.466   4.152  0.00  0.00    +0.219 A 
ATOM     19  N   LIG    1       -8.821  -2.394   4.154  0.00  0.00    -0.223 NA
ATOM     20  C   LIG    1       -9.132  -2.725   2.902  0.00  0.00    +0.245 A 
ATOM     21  N   LIG    1       -8.413  -2.005   2.081  0.00  0.00    -0.158 NA
ENDBRANCH  16  17
ENDBRANCH  14  16
ENDBRANCH   1  12
BRANCH   1  22
ATOM     22  C   LIG    1       -4.266  -0.838  -1.400  0.00  0.00    +0.032 C 
BRANCH  22  23
ATOM     23  C   LIG    1       -5.514  -1.723  -1.423  0.00  0.00    +0.037 C 
BRANCH  23  27
ATOM     24  C   LIG    1       -7.118  -1.822  -5.381  0.00  0.00    +0.000 A 
ATOM     25  C   LIG    1       -6.179  -2.759  -4.992  0.00  0.00    +0.000 A 
ATOM     26  C   LIG    1       -5.659  -2.727  -3.711  0.00  0.00    +0.003 A 
ATOM     27  C   LIG    1       -6.080  -1.758  -2.819  0.00  0.00    -0.047 A 
ATOM     28  C   LIG    1       -7.024  -0.825  -3.206  0.00  0.00    +0.003 A 
ATOM     29  C   LIG    1       -7.539  -0.854  -4.488  0.00  0.00    +0.000 A 
ENDBRANCH  23  27
ENDBRANCH  22  23
ENDBRANCH   1  22
TORSDOF 7
