REMARK  Name = ZINC13808035
REMARK                            x       y       z     vdW  Elec       q    Type
REMARK                         _______ _______ _______ _____ _____    ______ ____
ROOT
ATOM      1  S   LIG    1       -1.512  -0.905   0.012  0.00  0.00    +0.155 S 
ATOM      2  O   LIG    1       -2.492  -0.046   0.577  0.00  0.00    -0.132 OA
ATOM      3  O   LIG    1       -1.218  -2.186   0.553  0.00  0.00    -0.132 OA
ENDROOT
BRANCH   1  10
ATOM      4  C   LIG    1       -0.017   1.378   0.010  0.00  0.00    +0.032 A 
ATOM      5  C   LIG    1        1.171   2.086   0.002  0.00  0.00    +0.022 A 
ATOM      6  C   LIG    1        2.378   1.410  -0.013  0.00  0.00    +0.041 A 
ATOM      7 CL   LIG    1        3.870   2.298  -0.023  0.00  0.00    -0.084 Cl
ATOM      8  C   LIG    1        2.396   0.027  -0.021  0.00  0.00    +0.022 A 
ATOM      9  C   LIG    1        1.208  -0.679  -0.013  0.00  0.00    +0.032 A 
ATOM     10  C   LIG    1        0.002  -0.004   0.002  0.00  0.00    +0.127 A 
ENDBRANCH   1  10
BRANCH   1  11
ATOM     11  N   LIG    1       -1.948  -1.147  -1.567  0.00  0.00    +0.061 NA
ATOM     12  C   LIG    1       -3.043  -1.796  -1.848  0.00  0.00    +0.403 C 
BRANCH  12  13
ATOM     13  N   LIG    1       -3.405  -1.997  -3.159  0.00  0.00    -0.288 N 
ATOM     14  H   LIG    1       -4.220  -2.480  -3.369  0.00  0.00    +0.255 HD
ATOM     15  H   LIG    1       -2.846  -1.656  -3.875  0.00  0.00    +0.255 HD
ENDBRANCH  12  13
BRANCH  12  16
ATOM     16  N   LIG    1       -3.836  -2.279  -0.834  0.00  0.00    -0.288 N 
ATOM     17  H   LIG    1       -4.651  -2.762  -1.044  0.00  0.00    +0.255 HD
ATOM     18  H   LIG    1       -3.580  -2.138   0.091  0.00  0.00    +0.255 HD
ENDBRANCH  12  16
ENDBRANCH   1  11
TORSDOF 4
