REMARK  Name = ZINC15722101
REMARK                            x       y       z     vdW  Elec       q    Type
REMARK                         _______ _______ _______ _____ _____    ______ ____
ROOT
ATOM      1  CA  VAL A  1       -3.016  -1.360  -1.318  0.00  0.00    +0.161 C 
ENDROOT
BRANCH   1   4
ATOM      2  N   VAL A  1       -0.998  -0.241  -0.428  0.00  0.00    -0.303 N 
ATOM      3  H   VAL A  1       -1.467  -0.131   0.414  0.00  0.00    +0.149 HD
ATOM      4  C   VAL A  1       -1.625  -0.805  -1.479  0.00  0.00    +0.234 C 
ATOM      5  O   VAL A  1       -1.069  -0.866  -2.555  0.00  0.00    -0.274 OA
BRANCH   2   7
ATOM      6  CB  VAL A  1        0.421   1.617  -1.144  0.00  0.00    +0.038 C 
ATOM      7  CA  VAL A  1        0.392   0.205  -0.557  0.00  0.00    +0.156 C 
BRANCH   7   8
ATOM      8  C   VAL A  1        1.045   0.212   0.801  0.00  0.00    +0.234 C 
ATOM      9  N   ASP A  2        2.332   0.591   0.928  0.00  0.00    -0.304 N 
ATOM     10  H   ASP A  2        2.838   0.858   0.145  0.00  0.00    +0.149 HD
ATOM     11  O   VAL A  1        0.412  -0.122   1.780  0.00  0.00    -0.274 OA
BRANCH   9  12
ATOM     12  CA  ASP A  2        2.967   0.598   2.248  0.00  0.00    +0.146 C 
BRANCH  12  13
ATOM     13  C   ASP A  2        2.667   1.901   2.943  0.00  0.00    +0.246 C 
ATOM     14  O   ASP A  2        1.992   2.737   2.393  0.00  0.00    -0.299 OA
ENDBRANCH  12  13
BRANCH  12  15
ATOM     15  CB  ASP A  2        4.481   0.443   2.087  0.00  0.00    +0.150 C 
BRANCH  15  16
ATOM     16  CG  ASP A  2        4.788  -0.912   1.504  0.00  0.00    +0.307 C 
ATOM     17  OD1 ASP A  2        3.880  -1.683   1.242  0.00  0.00    -0.251 OA
BRANCH  16  18
ATOM     18  OD2 ASP A  2        5.944  -1.238   1.295  0.00  0.00    -0.481 OA
ATOM     19  HD2 ASP A  2        6.642  -0.646   1.496  0.00  0.00    +0.295 HD
ENDBRANCH  16  18
ENDBRANCH  15  16
ENDBRANCH  12  15
ENDBRANCH   9  12
ENDBRANCH   7   8
ENDBRANCH   2   7
ENDBRANCH   1   4
BRANCH   1  20
ATOM     20  N   VAL A  1       -3.643  -1.497  -2.635  0.00  0.00    -0.302 N 
ATOM     21  H   VAL A  1       -3.092  -1.600  -3.426  0.00  0.00    +0.150 HD
ATOM     22  C   UNK A  0       -4.986  -1.480  -2.747  0.00  0.00    +0.234 C 
ATOM     23  O   UNK A  0       -5.676  -1.351  -1.758  0.00  0.00    -0.274 OA
BRANCH  22  24
ATOM     24  C   UNK A  0       -5.631  -1.621  -4.102  0.00  0.00    +0.166 C 
BRANCH  24  25
ATOM     25  N   UNK A  0       -7.048  -1.956  -3.936  0.00  0.00    -0.293 N 
ATOM     26  C   UNK A  0       -7.514  -3.144  -4.370  0.00  0.00    +0.213 C 
ATOM     27  C   UNK A  0       -6.561  -4.172  -4.923  0.00  0.00    +0.109 C 
ATOM     28  O   UNK A  0       -8.702  -3.385  -4.315  0.00  0.00    -0.276 OA
ATOM     29  C   UNK A  0       -7.957  -1.001  -3.298  0.00  0.00    +0.133 C 
ENDBRANCH  24  25
BRANCH  24  30
ATOM     30  C   UNK A  0       -5.506  -0.302  -4.866  0.00  0.00    +0.067 C 
BRANCH  30  31
ATOM     31  C   UNK A  0       -6.012  -0.486  -6.273  0.00  0.00    -0.045 A 
ATOM     32  C   UNK A  0       -5.144  -0.887  -7.272  0.00  0.00    +0.007 A 
ATOM     33  C   UNK A  0       -5.605  -1.057  -8.563  0.00  0.00    +0.045 A 
ATOM     34  C   UNK A  0       -6.941  -0.825  -8.857  0.00  0.00    +0.117 A 
ATOM     35  C   UNK A  0       -7.810  -0.423  -7.853  0.00  0.00    +0.045 A 
ATOM     36  C   UNK A  0       -7.345  -0.260  -6.563  0.00  0.00    +0.007 A 
BRANCH  34  37
ATOM     37  O   UNK A  0       -7.398  -0.991 -10.126  0.00  0.00    -0.507 OA
ATOM     38  H   UNK A  0       -7.715  -1.884 -10.316  0.00  0.00    +0.292 HD
ENDBRANCH  34  37
ENDBRANCH  30  31
ENDBRANCH  24  30
ENDBRANCH  22  24
ENDBRANCH   1  20
BRANCH   1  39
ATOM     39  CB  VAL A  1       -2.944  -2.731  -0.642  0.00  0.00    +0.012 C 
ATOM     40  CG2 VAL A  1       -4.345  -3.341  -0.574  0.00  0.00    +0.009 C 
ATOM     41  CG1 VAL A  1       -2.386  -2.573   0.774  0.00  0.00    +0.009 C 
ENDBRANCH   1  39
TORSDOF 15
