REMARK  Name = ZINC14977914
REMARK                            x       y       z     vdW  Elec       q    Type
REMARK                         _______ _______ _______ _____ _____    ______ ____
ROOT
ATOM      1  C   LIG    1        2.777   3.521  -0.005  0.00  0.00    +0.090 A 
ATOM      2  C   LIG    1        1.435   3.389   0.007  0.00  0.00    +0.010 A 
ATOM      3  C   LIG    1        1.136   2.010   0.002  0.00  0.00    +0.100 A 
ATOM      4  C   LIG    1        2.362   1.336  -0.013  0.00  0.00    +0.130 A 
ATOM      5  C   LIG    1        2.354  -0.074  -0.020  0.00  0.00    +0.275 A 
ATOM      6  N   LIG    1        1.162  -0.711  -0.012  0.00  0.00    -0.312 N 
ATOM      7  H   LIG    1        1.125  -1.810  -0.018  0.00  0.00    +0.170 HD
ATOM      8  C   LIG    1        0.002  -0.004   0.002  0.00  0.00    +0.199 A 
ATOM      9  O   LIG    1        3.398  -0.705  -0.033  0.00  0.00    -0.266 OA
ATOM     10  N   LIG    1       -0.016   1.297   0.009  0.00  0.00    -0.235 NA
ATOM     11  N   LIG    1        3.354   2.288  -0.018  0.00  0.00    -0.355 N 
ATOM     12  H   LIG    1        4.450   2.193  -0.029  0.00  0.00    +0.166 HD
ENDROOT
BRANCH   2  13
ATOM     13  C   LIG    1        0.433   4.515   0.023  0.00  0.00    +0.123 C 
BRANCH  13  14
ATOM     14  N   LIG    1       -0.059   4.713   1.393  0.00  0.00    -0.297 NA
ATOM     15  C   LIG    1        0.962   5.368   2.231  0.00  0.00    +0.091 C 
ATOM     16  C   LIG    1       -0.162   6.220   2.837  0.00  0.00    +0.042 C 
ATOM     17  C   LIG    1       -0.856   5.950   1.494  0.00  0.00    +0.091 C 
BRANCH  16  18
ATOM     18  C   LIG    1        0.216   7.686   3.063  0.00  0.00    +0.161 C 
BRANCH  18  19
ATOM     19  O   LIG    1        0.745   7.843   4.381  0.00  0.00    -0.395 OA
ATOM     20  H   LIG    1        1.073   8.835   4.727  0.00  0.00    +0.209 HD
ENDBRANCH  18  19
ENDBRANCH  16  18
ENDBRANCH  13  14
ENDBRANCH   2  13
TORSDOF 4
