REMARK  Name = ZINC00040854
REMARK                            x       y       z     vdW  Elec       q    Type
REMARK                         _______ _______ _______ _____ _____    ______ ____
ROOT
ATOM      1  N   LIG    1       -0.017   1.394   0.010  0.00  0.00    -0.281 N 
ATOM      2  H   LIG    1       -0.878   1.841   0.021  0.00  0.00    +0.155 HD
ATOM      3  C   LIG    1        1.119   2.120   0.003  0.00  0.00    +0.248 C 
ATOM      4  O   LIG    1        2.195   1.563  -0.101  0.00  0.00    -0.270 OA
ENDROOT
BRANCH   3   5
ATOM      5  C   LIG    1        1.057   3.591   0.123  0.00  0.00    +0.038 A 
ATOM      6  C   LIG    1       -0.178   4.233   0.238  0.00  0.00    +0.014 A 
ATOM      7  C   LIG    1       -0.230   5.606   0.356  0.00  0.00    +0.022 A 
ATOM      8  C   LIG    1        0.938   6.350   0.349  0.00  0.00    +0.059 A 
ATOM      9 CL   LIG    1        0.864   8.078   0.490  0.00  0.00    -0.082 Cl
ATOM     10  C   LIG    1        2.167   5.719   0.230  0.00  0.00    +0.060 A 
ATOM     11 CL   LIG    1        3.626   6.659   0.223  0.00  0.00    -0.082 Cl
ATOM     12  C   LIG    1        2.232   4.345   0.117  0.00  0.00    +0.034 A 
ENDBRANCH   3   5
BRANCH   1  15
ATOM     13  C   LIG    1       -0.834  -2.129   0.672  0.00  0.00    +0.003 A 
ATOM     14  C   LIG    1       -0.898  -0.749   0.689  0.00  0.00    +0.023 A 
ATOM     15  C   LIG    1        0.045  -0.003  -0.006  0.00  0.00    +0.035 A 
ATOM     16  C   LIG    1        1.047  -0.647  -0.721  0.00  0.00    +0.043 A 
ATOM     17  C   LIG    1        1.109  -2.027  -0.729  0.00  0.00    +0.043 A 
ATOM     18 CL   LIG    1        2.365  -2.834  -1.617  0.00  0.00    -0.083 Cl
ATOM     19  C   LIG    1        0.167  -2.768  -0.036  0.00  0.00    +0.020 A 
ENDBRANCH   1  15
TORSDOF 2
