REMARK  Name = ZINC14947181
REMARK                            x       y       z     vdW  Elec       q    Type
REMARK                         _______ _______ _______ _____ _____    ______ ____
ROOT
ATOM      1  CA  GLU A  2        6.628   0.409  -1.873  0.00  0.00    +0.159 C 
ENDROOT
BRANCH   1   3
ATOM      2  C   ILE A  1        8.979   0.769  -2.402  0.00  0.00    +0.234 C 
ATOM      3  N   GLU A  2        7.916   1.064  -1.629  0.00  0.00    -0.302 N 
ATOM      4  H   GLU A  2        8.002   1.710  -0.910  0.00  0.00    +0.150 HD
ATOM      5  O   ILE A  1        8.848   0.039  -3.361  0.00  0.00    -0.274 OA
BRANCH   2   6
ATOM      6  CA  ILE A  1       10.332   1.347  -2.075  0.00  0.00    +0.162 C 
BRANCH   6   7
ATOM      7  N   ILE A  1       11.335   0.789  -2.985  0.00  0.00    -0.304 N 
ATOM      8  H   ILE A  1       11.111   0.632  -3.916  0.00  0.00    +0.149 HD
ATOM      9  C   UNK A  0       12.568   0.493  -2.529  0.00  0.00    +0.211 C 
ATOM     10  C   UNK A  0       13.562  -0.190  -3.433  0.00  0.00    +0.109 C 
ATOM     11  O   UNK A  0       12.879   0.777  -1.391  0.00  0.00    -0.276 OA
ENDBRANCH   6   7
BRANCH   6  12
ATOM     12  CB  ILE A  1       10.289   2.868  -2.234  0.00  0.00    +0.015 C 
ATOM     13  CG2 ILE A  1       11.598   3.472  -1.723  0.00  0.00    +0.010 C 
BRANCH  12  15
ATOM     14  CD1 ILE A  1        8.720   2.773  -4.176  0.00  0.00    +0.004 C 
ATOM     15  CG1 ILE A  1       10.107   3.221  -3.712  0.00  0.00    +0.002 C 
ENDBRANCH  12  15
ENDBRANCH   6  12
ENDBRANCH   2   6
ENDBRANCH   1   3
BRANCH   1  16
ATOM     16  C   GLU A  2        5.514   1.283  -1.358  0.00  0.00    +0.234 C 
ATOM     17  N   THR A  3        4.233   0.881  -1.475  0.00  0.00    -0.300 N 
ATOM     18  H   THR A  3        4.028   0.029  -1.891  0.00  0.00    +0.150 HD
ATOM     19  O   GLU A  2        5.770   2.348  -0.837  0.00  0.00    -0.274 OA
BRANCH  17  20
ATOM     20  CA  THR A  3        3.150   1.730  -0.974  0.00  0.00    +0.187 C 
BRANCH  20  21
ATOM     21  C   THR A  3        1.950   0.877  -0.651  0.00  0.00    +0.236 C 
ATOM     22  N   ASP A  4        1.027   1.317   0.226  0.00  0.00    -0.304 N 
ATOM     23  H   ASP A  4        1.168   2.150   0.702  0.00  0.00    +0.149 HD
ATOM     24  O   THR A  3        1.817  -0.206  -1.180  0.00  0.00    -0.274 OA
BRANCH  22  25
ATOM     25  CA  ASP A  4       -0.191   0.537   0.461  0.00  0.00    +0.146 C 
BRANCH  25  26
ATOM     26  C   ASP A  4       -1.222   0.889  -0.581  0.00  0.00    +0.246 C 
ATOM     27  O   ASP A  4       -0.966   1.708  -1.431  0.00  0.00    -0.299 OA
ENDBRANCH  25  26
BRANCH  25  28
ATOM     28  CB  ASP A  4       -0.742   0.857   1.852  0.00  0.00    +0.150 C 
BRANCH  28  29
ATOM     29  CG  ASP A  4        0.237   0.392   2.899  0.00  0.00    +0.307 C 
ATOM     30  OD1 ASP A  4        1.270  -0.141   2.566  0.00  0.00    -0.251 OA
BRANCH  29  31
ATOM     31  OD2 ASP A  4       -0.037   0.569   4.200  0.00  0.00    -0.481 OA
ATOM     32  HD2 ASP A  4       -0.838   0.982   4.458  0.00  0.00    +0.295 HD
ENDBRANCH  29  31
ENDBRANCH  28  29
ENDBRANCH  25  28
ENDBRANCH  22  25
ENDBRANCH  20  21
BRANCH  20  33
ATOM     33  CB  THR A  3        2.771   2.758  -2.043  0.00  0.00    +0.141 C 
ATOM     34  CG2 THR A  3        1.736   3.729  -1.472  0.00  0.00    +0.040 C 
BRANCH  33  35
ATOM     35  OG1 THR A  3        3.937   3.483  -2.440  0.00  0.00    -0.390 OA
ATOM     36  HG1 THR A  3        4.637   2.929  -2.812  0.00  0.00    +0.210 HD
ENDBRANCH  33  35
ENDBRANCH  20  33
ENDBRANCH  17  20
ENDBRANCH   1  16
BRANCH   1  37
ATOM     37  CB  GLU A  2        6.596  -0.939  -1.149  0.00  0.00    +0.043 C 
BRANCH  37  38
ATOM     38  CG  GLU A  2        7.646  -1.870  -1.758  0.00  0.00    +0.123 C 
BRANCH  38  39
ATOM     39  CD  GLU A  2        7.614  -3.197  -1.045  0.00  0.00    +0.305 C 
ATOM     40  OE1 GLU A  2        6.832  -3.380  -0.143  0.00  0.00    -0.251 OA
BRANCH  39  41
ATOM     41  OE2 GLU A  2        8.455  -4.177  -1.413  0.00  0.00    -0.481 OA
ATOM     42  HE2 GLU A  2        9.062  -4.035  -2.113  0.00  0.00    +0.295 HD
ENDBRANCH  39  41
ENDBRANCH  38  39
ENDBRANCH  37  38
ENDBRANCH   1  37
TORSDOF 19
