REMARK  Name = ZINC35052131
REMARK                            x       y       z     vdW  Elec       q    Type
REMARK                         _______ _______ _______ _____ _____    ______ ____
ROOT
ATOM      1  C   LIG    1        3.611  -2.152  -0.071  0.00  0.00    +0.064 A 
ATOM      2  C   LIG    1        2.362  -2.784  -0.117  0.00  0.00    +0.017 A 
ATOM      3  C   LIG    1        2.285  -4.145  -0.149  0.00  0.00    +0.024 A 
ATOM      4  C   LIG    1        3.446  -4.918  -0.135  0.00  0.00    +0.033 A 
ATOM      5  C   LIG    1        4.693  -4.307  -0.090  0.00  0.00    +0.069 A 
ATOM      6  C   LIG    1        4.784  -2.926  -0.064  0.00  0.00    +0.129 A 
ENDROOT
BRANCH   4   7
ATOM      7  N   LIG    1        3.355  -6.304  -0.167  0.00  0.00    -0.325 N 
ATOM      8  C   LIG    1        2.058  -6.975  -0.347  0.00  0.00    +0.133 C 
ATOM      9  C   LIG    1        2.197  -8.002  -1.476  0.00  0.00    +0.178 C 
ATOM     10  O   LIG    1        3.317  -8.848  -1.207  0.00  0.00    -0.377 OA
ATOM     11  C   LIG    1        4.571  -8.164  -1.167  0.00  0.00    +0.178 C 
ATOM     12  C   LIG    1        4.555  -7.145  -0.027  0.00  0.00    +0.133 C 
ENDBRANCH   4   7
BRANCH   1  13
ATOM     13  C   LIG    1        3.696  -0.684  -0.037  0.00  0.00    +0.197 C 
ATOM     14  O   LIG    1        3.445  -0.084   0.991  0.00  0.00    -0.287 OA
BRANCH  13  18
ATOM     15  C   LIG    1        4.814   1.461  -3.529  0.00  0.00    +0.000 A 
ATOM     16  C   LIG    1        4.431   2.149  -2.391  0.00  0.00    +0.001 A 
ATOM     17  C   LIG    1        4.067   1.458  -1.254  0.00  0.00    +0.012 A 
ATOM     18  C   LIG    1        4.085   0.062  -1.252  0.00  0.00    +0.022 A 
ATOM     19  C   LIG    1        4.472  -0.626  -2.404  0.00  0.00    +0.012 A 
ATOM     20  C   LIG    1        4.834   0.077  -3.534  0.00  0.00    +0.001 A 
ENDBRANCH  13  18
ENDBRANCH   1  13
BRANCH   6  21
ATOM     21  O   LIG    1        5.999  -2.324  -0.025  0.00  0.00    -0.506 OA
ATOM     22  H   LIG    1        6.333  -2.168   0.869  0.00  0.00    +0.292 HD
ENDBRANCH   6  21
TORSDOF 4
