REMARK  Name = ZINC26973597
REMARK                            x       y       z     vdW  Elec       q    Type
REMARK                         _______ _______ _______ _____ _____    ______ ____
ROOT
ATOM      1  C   LIG    1       -0.013   1.086   0.008  0.00  0.00    +0.177 C 
ATOM      2  C   LIG    1       -0.753   1.593  -1.232  0.00  0.00    +0.192 C 
ATOM      3  C   LIG    1       -0.037   1.099  -2.490  0.00  0.00    +0.178 C 
ATOM      4  C   LIG    1        1.399   1.629  -2.501  0.00  0.00    +0.193 C 
ATOM      5  C   LIG    1        2.139   1.122  -1.262  0.00  0.00    +0.193 C 
ATOM      6  C   LIG    1        1.423   1.615  -0.003  0.00  0.00    +0.177 C 
ENDROOT
BRANCH   1   7
ATOM      7  O   LIG    1       -0.682   1.547   1.184  0.00  0.00    -0.386 OA
ATOM      8  H   LIG    1       -0.266   1.262   2.009  0.00  0.00    +0.210 HD
ENDBRANCH   1   7
BRANCH   3   9
ATOM      9  O   LIG    1       -0.728   1.573  -3.648  0.00  0.00    -0.386 OA
ATOM     10  H   LIG    1       -1.646   1.275  -3.707  0.00  0.00    +0.210 HD
ENDBRANCH   3   9
BRANCH   6  11
ATOM     11  O   LIG    1        2.114   1.142   1.155  0.00  0.00    -0.386 OA
ATOM     12  H   LIG    1        1.714   1.417   1.991  0.00  0.00    +0.210 HD
ENDBRANCH   6  11
BRANCH   2  13
ATOM     13  O   LIG    1       -0.772   3.022  -1.224  0.00  0.00    -0.278 OA
BRANCH  13  14
ATOM     14  P   LIG    1       -2.134   3.880  -1.206  0.00  0.00    +0.473 P 
ATOM     15  O   LIG    1       -3.039   3.448  -2.410  0.00  0.00    -0.228 OA
BRANCH  14  16
ATOM     16  O   LIG    1       -1.792   5.404  -1.330  0.00  0.00    -0.303 OA
ATOM     17  H   LIG    1       -1.321   5.563  -2.162  0.00  0.00    +0.222 HD
ENDBRANCH  14  16
BRANCH  14  18
ATOM     18  O   LIG    1       -2.896   3.623   0.139  0.00  0.00    -0.303 OA
ATOM     19  H   LIG    1       -3.107   2.679   0.215  0.00  0.00    +0.222 HD
ENDBRANCH  14  18
ENDBRANCH  13  14
ENDBRANCH   2  13
BRANCH   4  20
ATOM     20  O   LIG    1        1.379   3.058  -2.493  0.00  0.00    -0.278 OA
BRANCH  20  21
ATOM     21  P   LIG    1        2.031   3.950  -3.664  0.00  0.00    +0.473 P 
ATOM     22  O   LIG    1        3.533   3.545  -3.855  0.00  0.00    -0.228 OA
BRANCH  21  23
ATOM     23  O   LIG    1        1.944   5.465  -3.276  0.00  0.00    -0.303 OA
ATOM     24  H   LIG    1        2.427   5.615  -2.448  0.00  0.00    +0.222 HD
ENDBRANCH  21  23
BRANCH  21  25
ATOM     25  O   LIG    1        1.252   3.708  -5.001  0.00  0.00    -0.303 OA
ATOM     26  H   LIG    1        1.306   2.769  -5.241  0.00  0.00    +0.222 HD
ENDBRANCH  21  25
ENDBRANCH  20  21
ENDBRANCH   4  20
BRANCH   5  27
ATOM     27  O   LIG    1        3.479   1.617  -1.272  0.00  0.00    -0.278 OA
BRANCH  27  28
ATOM     28  P   LIG    1        4.769   0.653  -1.289  0.00  0.00    +0.473 P 
ATOM     29  O   LIG    1        4.671  -0.318  -2.487  0.00  0.00    -0.228 OA
BRANCH  28  30
ATOM     30  O   LIG    1        4.826  -0.155   0.026  0.00  0.00    -0.303 OA
ATOM     31  H   LIG    1        4.023  -0.692   0.111  0.00  0.00    +0.222 HD
ENDBRANCH  28  30
BRANCH  28  32
ATOM     32  O   LIG    1        6.103   1.545  -1.429  0.00  0.00    -0.303 OA
ATOM     33  H   LIG    1        6.921   1.029  -1.447  0.00  0.00    +0.222 HD
ENDBRANCH  28  32
ENDBRANCH  27  28
ENDBRANCH   5  27
TORSDOF 15
