REMARK  Name = ZINC27617674
REMARK                            x       y       z     vdW  Elec       q    Type
REMARK                         _______ _______ _______ _____ _____    ______ ____
ROOT
ATOM      1  C   LIG    1        3.317   3.884   0.652  0.00  0.00    +0.322 C 
ATOM      2  N   LIG    1        2.347   3.822  -0.165  0.00  0.00    -0.039 NA
ATOM      3  C   LIG    1        1.263   3.009  -0.200  0.00  0.00    +0.208 A 
ATOM      4  C   LIG    1        0.001   3.553  -0.450  0.00  0.00    +0.167 A 
ATOM      5  N   LIG    1       -1.068   2.782  -0.498  0.00  0.00    -0.259 NA
ATOM      6  C   LIG    1       -1.006   1.476  -0.322  0.00  0.00    +0.112 A 
ATOM      7  C   LIG    1        0.203   0.854  -0.061  0.00  0.00    +0.039 A 
ATOM      8  C   LIG    1        1.354   1.624   0.000  0.00  0.00    +0.066 A 
ATOM      9  S   LIG    1        2.913   0.875   0.329  0.00  0.00    -0.084 S 
ATOM     10  C   LIG    1        3.439   1.669   1.813  0.00  0.00    +0.028 A 
ATOM     11  C   LIG    1        3.701   0.919   2.947  0.00  0.00    +0.016 A 
ATOM     12  C   LIG    1        4.124   1.543   4.107  0.00  0.00    +0.001 A 
ATOM     13  C   LIG    1        4.284   2.917   4.136  0.00  0.00    +0.001 A 
ATOM     14  C   LIG    1        4.023   3.676   3.014  0.00  0.00    +0.017 A 
ATOM     15  C   LIG    1        3.593   3.062   1.833  0.00  0.00    +0.079 A 
ENDROOT
BRANCH   1  20
ATOM     16  C   LIG    1        7.630   6.342  -1.603  0.00  0.00    +0.105 C 
ATOM     17  N   LIG    1        6.447   6.128  -0.758  0.00  0.00    -0.298 NA
ATOM     18  C   LIG    1        5.250   5.894  -1.578  0.00  0.00    +0.128 C 
ATOM     19  C   LIG    1        4.015   5.857  -0.673  0.00  0.00    +0.241 C 
ATOM     20  N   LIG    1        4.244   4.866   0.391  0.00  0.00    -0.218 N 
ATOM     21  C   LIG    1        5.487   4.958   1.170  0.00  0.00    +0.241 C 
ATOM     22  C   LIG    1        6.668   5.027   0.189  0.00  0.00    +0.128 C 
ENDBRANCH   1  20
TORSDOF 1
