REMARK  Name = ZINC27647189
REMARK                            x       y       z     vdW  Elec       q    Type
REMARK                         _______ _______ _______ _____ _____    ______ ____
ROOT
ATOM      1  N   LIG    1       -4.644   2.240   1.222  0.00  0.00    -0.269 N 
ATOM      2  H   LIG    1       -4.331   1.575   2.041  0.00  0.00    +0.156 HD
ATOM      3  C   LIG    1       -3.795   2.509   0.210  0.00  0.00    +0.306 C 
ATOM      4  N   LIG    1       -2.624   1.847   0.120  0.00  0.00    -0.285 N 
ATOM      5  C   LIG    1       -1.742   2.041  -1.039  0.00  0.00    +0.109 C 
ATOM      6  C   LIG    1       -0.346   2.423  -0.538  0.00  0.00    +0.023 C 
ATOM      7  C   LIG    1        0.143   1.364   0.453  0.00  0.00    -0.004 C 
ATOM      8  C   LIG    1       -0.804   1.312   1.654  0.00  0.00    +0.023 C 
ATOM      9  C   LIG    1       -2.205   0.918   1.178  0.00  0.00    +0.109 C 
ATOM     10  O   LIG    1       -4.084   3.348  -0.620  0.00  0.00    -0.252 OA
ENDROOT
BRANCH   1  14
ATOM     11  C   LIG    1       -8.453   3.928   1.247  0.00  0.00    +0.000 A 
ATOM     12  C   LIG    1       -7.795   3.692   2.440  0.00  0.00    +0.002 A 
ATOM     13  C   LIG    1       -6.532   3.133   2.435  0.00  0.00    +0.023 A 
ATOM     14  C   LIG    1       -5.923   2.807   1.230  0.00  0.00    +0.035 A 
ATOM     15  C   LIG    1       -6.585   3.049   0.034  0.00  0.00    +0.023 A 
ATOM     16  C   LIG    1       -7.850   3.604   0.046  0.00  0.00    +0.002 A 
ENDBRANCH   1  14
BRANCH   7  17
ATOM     17  C   LIG    1        1.552   1.724   0.929  0.00  0.00    +0.040 C 
BRANCH  17  18
ATOM     18  C   LIG    1        2.082   0.621   1.808  0.00  0.00    -0.028 A 
ATOM     19  C   LIG    1        2.781  -0.416   1.258  0.00  0.00    +0.015 A 
ATOM     20  C   LIG    1        3.257  -1.425   2.115  0.00  0.00    +0.001 A 
ATOM     21  C   LIG    1        3.982  -2.522   1.621  0.00  0.00    +0.010 A 
ATOM     22  C   LIG    1        4.427  -3.477   2.483  0.00  0.00    +0.001 A 
ATOM     23  C   LIG    1        4.172  -3.382   3.850  0.00  0.00    +0.002 A 
ATOM     24  C   LIG    1        3.472  -2.333   4.362  0.00  0.00    +0.028 A 
ATOM     25  C   LIG    1        2.996  -1.326   3.504  0.00  0.00    +0.071 A 
ATOM     26  N   LIG    1        2.305  -0.285   3.979  0.00  0.00    -0.255 NA
ATOM     27  C   LIG    1        1.865   0.660   3.184  0.00  0.00    +0.115 A 
ENDBRANCH  17  18
ENDBRANCH   7  17
TORSDOF 3
