REMARK  Name = ZINC28396457
REMARK                            x       y       z     vdW  Elec       q    Type
REMARK                         _______ _______ _______ _____ _____    ______ ____
ROOT
ATOM      1  C   LIG    1        3.774   3.188  -0.017  0.00  0.00    +0.223 C 
ATOM      2  N   LIG    1        3.575   1.855  -0.022  0.00  0.00    -0.264 N 
ATOM      3  H   LIG    1        4.436   1.170  -0.033  0.00  0.00    +0.157 HD
ATOM      4  O   LIG    1        2.825   3.943  -0.004  0.00  0.00    -0.275 OA
ENDROOT
BRANCH   2   5
ATOM      5  C   LIG    1        2.282   1.345  -0.013  0.00  0.00    +0.165 A 
ATOM      6  N   LIG    1        1.135   1.996   0.002  0.00  0.00    -0.232 NA
ATOM      7  C   LIG    1       -0.016   1.352   0.009  0.00  0.00    +0.136 A 
ATOM      8  C   LIG    1        0.002  -0.004   0.002  0.00  0.00    +0.076 A 
ATOM      9 BR   LIG    1       -1.437  -1.230   0.009  0.00  0.00    -0.041 Br
ATOM     10  S   LIG    1        1.762  -0.312  -0.016  0.00  0.00    -0.045 S 
ENDBRANCH   2   5
BRANCH   1  11
ATOM     11  C   LIG    1        5.176   3.740  -0.026  0.00  0.00    +0.131 C 
BRANCH  11  15
ATOM     12  C   LIG    1        5.025   8.009  -0.003  0.00  0.00    +0.000 A 
ATOM     13  C   LIG    1        5.061   7.312   1.190  0.00  0.00    +0.000 A 
ATOM     14  C   LIG    1        5.109   5.931   1.183  0.00  0.00    +0.004 A 
ATOM     15  C   LIG    1        5.123   5.246  -0.018  0.00  0.00    -0.039 A 
ATOM     16  C   LIG    1        5.093   5.944  -1.211  0.00  0.00    +0.004 A 
ATOM     17  C   LIG    1        5.038   7.325  -1.204  0.00  0.00    +0.000 A 
ENDBRANCH  11  15
ENDBRANCH   1  11
TORSDOF 3
