REMARK  Name = ZINC13907839
REMARK                            x       y       z     vdW  Elec       q    Type
REMARK                         _______ _______ _______ _____ _____    ______ ____
ROOT
ATOM      1  C   LIG    1       -1.105   1.753   0.000  0.00  0.00    +0.248 C 
ATOM      2  N   LIG    1       -0.011   0.966   0.007  0.00  0.00    -0.281 N 
ATOM      3  H   LIG    1       -0.120  -0.128   0.048  0.00  0.00    +0.155 HD
ATOM      4  O   LIG    1       -0.987   2.957  -0.114  0.00  0.00    -0.270 OA
ENDROOT
BRANCH   2   5
ATOM      5  C   LIG    1        1.258   1.538  -0.036  0.00  0.00    +0.046 A 
ATOM      6  C   LIG    1        1.492   2.712  -0.744  0.00  0.00    +0.044 A 
ATOM      7  C   LIG    1        2.766   3.252  -0.758  0.00  0.00    +0.115 A 
ATOM      8  N   LIG    1        3.768   2.676  -0.126  0.00  0.00    -0.237 NA
ATOM      9  C   LIG    1        3.609   1.551   0.562  0.00  0.00    +0.140 A 
ATOM     10  N   LIG    1        4.469   0.767   1.292  0.00  0.00    -0.346 N 
ATOM     11  H   LIG    1        5.528   1.049   1.382  0.00  0.00    +0.167 HD
ATOM     12  C   LIG    1        3.796  -0.306   1.814  0.00  0.00    +0.085 A 
ATOM     13  C   LIG    1        2.506  -0.257   1.448  0.00  0.00    +0.031 A 
ATOM     14  C   LIG    1        2.343   0.944   0.628  0.00  0.00    +0.040 A 
ENDBRANCH   2   5
BRANCH   1  18
ATOM     15  C   LIG    1       -4.967   0.024   0.375  0.00  0.00    -0.062 A 
ATOM     16  C   LIG    1       -4.836   1.395   0.245  0.00  0.00    +0.003 A 
ATOM     17  C   LIG    1       -3.584   1.963   0.123  0.00  0.00    +0.013 A 
ATOM     18  C   LIG    1       -2.449   1.151   0.131  0.00  0.00    +0.037 A 
ATOM     19  C   LIG    1       -2.589  -0.232   0.256  0.00  0.00    +0.013 A 
ATOM     20  C   LIG    1       -3.845  -0.787   0.382  0.00  0.00    +0.003 A 
BRANCH  15  22
ATOM     21  C   LIG    1       -6.778  -1.151  -0.846  0.00  0.00    -0.009 C 
ATOM     22  C   LIG    1       -6.337  -0.589   0.508  0.00  0.00    -0.047 C 
BRANCH  22  23
ATOM     23  N   LIG    1       -6.294  -1.675   1.497  0.00  0.00    +0.382 N 
ATOM     24  H   LIG    1       -7.294  -2.122   1.594  0.00  0.00    -0.089 HD
ATOM     25  H   LIG    1       -5.578  -2.443   1.168  0.00  0.00    -0.089 HD
ATOM     26  H   LIG    1       -5.976  -1.271   2.470  0.00  0.00    -0.089 HD
ENDBRANCH  22  23
ENDBRANCH  15  22
ENDBRANCH   1  18
TORSDOF 4
