REMARK  Name = ZINC49069486
REMARK                            x       y       z     vdW  Elec       q    Type
REMARK                         _______ _______ _______ _____ _____    ______ ____
ROOT
ATOM      1  C   LIG    1       -0.017   1.374   0.010  0.00  0.00    +0.003 A 
ATOM      2  C   LIG    1        1.163   2.097   0.002  0.00  0.00    +0.015 A 
ATOM      3  C   LIG    1        2.392   1.438  -0.013  0.00  0.00    +0.062 A 
ATOM      4  C   LIG    1        2.424   0.037  -0.021  0.00  0.00    +0.079 A 
ATOM      5  C   LIG    1        1.221  -0.689  -0.013  0.00  0.00    +0.090 A 
ATOM      6  N   LIG    1        1.548  -2.005  -0.024  0.00  0.00    -0.228 NA
ATOM      7  C   LIG    1        2.853  -2.132  -0.038  0.00  0.00    +0.142 A 
ATOM      8  N   LIG    1        3.438  -0.893  -0.037  0.00  0.00    -0.337 N 
ATOM      9  H   LIG    1        4.389  -0.706  -0.046  0.00  0.00    +0.167 HD
ATOM     10  C   LIG    1        0.002  -0.004   0.002  0.00  0.00    +0.030 A 
ENDROOT
BRANCH   7  11
ATOM     11  C   LIG    1        3.583  -3.417  -0.053  0.00  0.00    +0.052 A 
ATOM     12  C   LIG    1        4.978  -3.431  -0.061  0.00  0.00    +0.014 A 
ATOM     13  C   LIG    1        5.654  -4.633  -0.075  0.00  0.00    +0.003 A 
ATOM     14  C   LIG    1        4.952  -5.826  -0.081  0.00  0.00    -0.059 A 
ATOM     15  C   LIG    1        3.569  -5.822  -0.073  0.00  0.00    +0.041 A 
ATOM     16  C   LIG    1        2.879  -4.624  -0.053  0.00  0.00    +0.134 A 
ATOM     17  F   LIG    1        1.528  -4.621  -0.040  0.00  0.00    -0.205 F 
BRANCH  14  18
ATOM     18  C   LIG    1        5.698  -7.135  -0.097  0.00  0.00    -0.041 C 
ATOM     19  C   LIG    1        5.693  -7.725  -1.523  0.00  0.00    -0.013 C 
ATOM     20  C   LIG    1        5.521  -9.246  -1.271  0.00  0.00    -0.020 C 
ATOM     21  C   LIG    1        4.581  -9.256  -0.040  0.00  0.00    -0.082 C 
ATOM     22  N   LIG    1        5.024  -8.107   0.784  0.00  0.00    +0.384 N 
ATOM     23  H   LIG    1        4.225  -7.673   1.220  0.00  0.00    -0.085 HD
ATOM     24  H   LIG    1        5.667  -8.424   1.494  0.00  0.00    -0.085 HD
ENDBRANCH  14  18
ENDBRANCH   7  11
BRANCH   3  25
ATOM     25  C   LIG    1        3.648   2.211  -0.022  0.00  0.00    +0.244 C 
ATOM     26  N   LIG    1        3.611   3.558  -0.015  0.00  0.00    -0.325 N 
ATOM     27  H   LIG    1        4.438   4.066  -0.021  0.00  0.00    +0.145 HD
ATOM     28  H   LIG    1        2.758   4.020  -0.004  0.00  0.00    +0.145 HD
ATOM     29  O   LIG    1        4.718   1.632  -0.036  0.00  0.00    -0.270 OA
ENDBRANCH   3  25
TORSDOF 3
