REMARK  Name = ZINC00001655
REMARK                            x       y       z     vdW  Elec       q    Type
REMARK                         _______ _______ _______ _____ _____    ______ ____
ROOT
ATOM      1  N   LIG    1        0.044  -2.800   2.354  0.00  0.00    -0.312 N 
ATOM      2  H   LIG    1       -0.164  -2.333   3.179  0.00  0.00    +0.152 HD
ENDROOT
BRANCH   1   9
ATOM      3  C   LIG    1        0.646   1.459  -0.029  0.00  0.00    +0.045 C 
ATOM      4  C   LIG    1        0.403  -0.028  -0.036  0.00  0.00    -0.030 A 
ATOM      5  C   LIG    1        0.247  -0.697  -1.237  0.00  0.00    +0.006 A 
ATOM      6  C   LIG    1        0.024  -2.061  -1.249  0.00  0.00    +0.022 A 
ATOM      7  C   LIG    1       -0.044  -2.762  -0.059  0.00  0.00    +0.064 A 
ATOM      8 CL   LIG    1       -0.326  -4.475  -0.075  0.00  0.00    -0.082 Cl
ATOM      9  C   LIG    1        0.113  -2.094   1.149  0.00  0.00    +0.069 A 
ATOM     10  C   LIG    1        0.342  -0.723   1.157  0.00  0.00    +0.066 A 
ATOM     11 CL   LIG    1        0.546   0.116   2.663  0.00  0.00    -0.081 Cl
ENDBRANCH   1   9
BRANCH   1  12
ATOM     12  C   LIG    1        0.274  -4.168   2.371  0.00  0.00    +0.045 A 
ATOM     13  C   LIG    1       -0.778  -5.051   2.583  0.00  0.00    +0.024 A 
ATOM     14  C   LIG    1       -0.547  -6.411   2.599  0.00  0.00    +0.002 A 
ATOM     15  C   LIG    1        0.732  -6.909   2.404  0.00  0.00    +0.001 A 
ATOM     16  C   LIG    1        1.788  -6.052   2.193  0.00  0.00    +0.017 A 
ATOM     17  C   LIG    1        1.571  -4.670   2.168  0.00  0.00    +0.080 A 
BRANCH  17  18
ATOM     18  C   LIG    1        2.693  -3.748   1.936  0.00  0.00    +0.339 C 
ATOM     19  O   LIG    1        3.799  -4.189   1.653  0.00  0.00    -0.245 OA
BRANCH  18  20
ATOM     20  O   LIG    1        2.521  -2.540   2.028  0.00  0.00    -0.477 OA
ATOM     21  H   LIG    1        1.675  -2.202   2.245  0.00  0.00    +0.295 HD
ENDBRANCH  18  20
ENDBRANCH  17  18
ENDBRANCH   1  12
TORSDOF 4
