REMARK  Name = ZINC26569563
REMARK                            x       y       z     vdW  Elec       q    Type
REMARK                         _______ _______ _______ _____ _____    ______ ____
ROOT
ATOM      1  C   LIG    1       -0.171   1.494   0.048  0.00  0.00    +0.066 C 
ATOM      2  C   LIG    1       -0.072  -0.010   0.020  0.00  0.00    +0.049 C 
ATOM      3  C   LIG    1       -1.223  -0.744  -0.013  0.00  0.00    +0.069 C 
ATOM      4  C   LIG    1       -1.091  -2.256  -0.041  0.00  0.00    +0.096 C 
ATOM      5  C   LIG    1        0.328  -2.797  -0.030  0.00  0.00    +0.065 C 
ATOM      6  C   LIG    1        1.365  -1.862   0.004  0.00  0.00    +0.049 C 
ATOM      7  C   LIG    1        2.791  -2.347   0.016  0.00  0.00    +0.066 C 
ATOM      8  C   LIG    1        0.582  -4.151  -0.054  0.00  0.00    +0.285 C 
ATOM      9  N   LIG    1        1.128  -0.570   0.022  0.00  0.00    -0.256 NA
ENDROOT
BRANCH   4  10
ATOM     10  C   LIG    1       -1.775  -2.765  -1.284  0.00  0.00    -0.033 A 
ATOM     11  C   LIG    1       -1.340  -2.354  -2.530  0.00  0.00    +0.005 A 
ATOM     12  C   LIG    1       -1.968  -2.821  -3.669  0.00  0.00    +0.003 A 
ATOM     13  C   LIG    1       -3.030  -3.699  -3.563  0.00  0.00    +0.032 A 
ATOM     14  C   LIG    1       -3.464  -4.111  -2.317  0.00  0.00    +0.122 A 
ATOM     15  C   LIG    1       -2.834  -3.647  -1.177  0.00  0.00    +0.037 A 
BRANCH  14  16
ATOM     16  N   LIG    1       -4.602  -5.050  -2.203  0.00  0.00    +0.006 N 
ATOM     17  O   LIG    1       -5.152  -5.458  -3.199  0.00  0.00    -0.130 OA
BRANCH  16  18
ATOM     18  O   LIG    1       -4.982  -5.410  -1.113  0.00  0.00    -0.396 OA
ATOM     19  H   LIG    1       -4.556  -5.094  -0.340  0.00  0.00    +0.329 HD
ENDBRANCH  16  18
ENDBRANCH  14  16
ENDBRANCH   4  10
BRANCH   3  20
ATOM     20  C   LIG    1       -2.484  -0.122  -0.019  0.00  0.00    +0.338 C 
ATOM     21  O   LIG    1       -2.564   1.093   0.005  0.00  0.00    -0.245 OA
BRANCH  20  22
ATOM     22  O   LIG    1       -3.606  -0.873  -0.051  0.00  0.00    -0.457 OA
BRANCH  22  23
ATOM     23  C   LIG    1       -4.853  -0.175  -0.056  0.00  0.00    +0.192 C 
ATOM     24  C   LIG    1       -5.378  -0.004   1.388  0.00  0.00    +0.061 C 
ATOM     25  C   LIG    1       -6.902  -0.233   1.233  0.00  0.00    +0.088 C 
ATOM     26  N   LIG    1       -6.982  -1.311   0.214  0.00  0.00    -0.295 NA
ATOM     27  C   LIG    1       -5.928  -1.006  -0.781  0.00  0.00    +0.129 C 
BRANCH  26  28
ATOM     28  C   LIG    1       -8.308  -1.342  -0.417  0.00  0.00    +0.119 C 
BRANCH  28  29
ATOM     29  C   LIG    1       -9.328  -1.828   0.580  0.00  0.00    -0.033 A 
ATOM     30  C   LIG    1       -9.598  -3.179   0.690  0.00  0.00    +0.005 A 
ATOM     31  C   LIG    1      -10.533  -3.625   1.605  0.00  0.00    +0.000 A 
ATOM     32  C   LIG    1      -11.199  -2.720   2.410  0.00  0.00    +0.000 A 
ATOM     33  C   LIG    1      -10.928  -1.368   2.301  0.00  0.00    +0.000 A 
ATOM     34  C   LIG    1       -9.989  -0.923   1.389  0.00  0.00    +0.005 A 
ENDBRANCH  28  29
ENDBRANCH  26  28
ENDBRANCH  22  23
ENDBRANCH  20  22
ENDBRANCH   3  20
BRANCH   8  35
ATOM     35  O   LIG    1        1.848  -4.597  -0.169  0.00  0.00    -0.467 OA
ATOM     36  C   LIG    1        2.038  -6.013  -0.187  0.00  0.00    +0.280 C 
ENDBRANCH   8  35
BRANCH   8  37
ATOM     37  O   LIG    1       -0.437  -5.029   0.037  0.00  0.00    -0.480 OA
ATOM     38  H   LIG    1       -1.317  -4.718   0.116  0.00  0.00    +0.295 HD
ENDBRANCH   8  37
TORSDOF 10
