REMARK  Name = ZINC42988961
REMARK                            x       y       z     vdW  Elec       q    Type
REMARK                         _______ _______ _______ _____ _____    ______ ____
ROOT
ATOM      1  C   LIG    1        2.541  -4.183   0.046  0.00  0.00    +0.034 A 
ATOM      2  C   LIG    1        1.387  -4.957   0.041  0.00  0.00    +0.026 A 
ATOM      3  C   LIG    1        1.479  -6.332   0.121  0.00  0.00    +0.041 A 
ATOM      4  C   LIG    1        2.720  -6.940   0.207  0.00  0.00    +0.135 A 
ATOM      5  F   LIG    1        2.808  -8.286   0.286  0.00  0.00    -0.205 F 
ATOM      6  C   LIG    1        3.872  -6.171   0.213  0.00  0.00    +0.092 A 
ATOM      7  C   LIG    1        3.785  -4.795   0.126  0.00  0.00    +0.038 A 
ENDROOT
BRANCH   1   9
ATOM      8  C   LIG    1        1.429  -2.144   0.562  0.00  0.00    +0.267 C 
ATOM      9  N   LIG    1        2.450  -2.789  -0.036  0.00  0.00    -0.280 N 
ATOM     10  H   LIG    1        3.122  -2.287  -0.524  0.00  0.00    +0.155 HD
ATOM     11  O   LIG    1        0.542  -2.777   1.100  0.00  0.00    -0.268 OA
BRANCH   8  16
ATOM     12  C   LIG    1        0.304   1.383   1.176  0.00  0.00    +0.004 A 
ATOM     13  C   LIG    1        1.339   2.060   0.549  0.00  0.00    +0.020 A 
ATOM     14  C   LIG    1        2.360   1.338  -0.048  0.00  0.00    +0.111 A 
ATOM     15  N   LIG    1        2.359   0.023  -0.026  0.00  0.00    -0.250 NA
ATOM     16  C   LIG    1        1.388  -0.663   0.563  0.00  0.00    +0.126 A 
ATOM     17  C   LIG    1        0.329  -0.002   1.183  0.00  0.00    +0.033 A 
ENDBRANCH   8  16
ENDBRANCH   1   9
BRANCH   6  18
ATOM     18  C   LIG    1        5.221  -6.836   0.307  0.00  0.00    +0.420 C 
ATOM     19  F   LIG    1        5.394  -7.696  -0.783  0.00  0.00    -0.166 F 
ATOM     20  F   LIG    1        5.298  -7.568   1.496  0.00  0.00    -0.166 F 
ATOM     21  F   LIG    1        6.223  -5.860   0.294  0.00  0.00    -0.166 F 
ENDBRANCH   6  18
TORSDOF 3
