REMARK  Name = ZINC20155240
REMARK                            x       y       z     vdW  Elec       q    Type
REMARK                         _______ _______ _______ _____ _____    ______ ____
ROOT
ATOM      1  C   LIG    1        1.223  -2.065  -0.125  0.00  0.00    +0.022 A 
ATOM      2  C   LIG    1        1.209  -0.685  -0.098  0.00  0.00    +0.025 A 
ATOM      3  C   LIG    1        0.004  -0.004   0.022  0.00  0.00    +0.037 A 
ATOM      4  C   LIG    1       -1.196  -0.726   0.121  0.00  0.00    +0.059 A 
ATOM      5  C   LIG    1       -1.165  -2.123   0.087  0.00  0.00    +0.035 A 
ATOM      6  C   LIG    1        0.040  -2.782  -0.032  0.00  0.00    +0.042 A 
ATOM      7 CL   LIG    1        0.076  -4.517  -0.067  0.00  0.00    -0.084 Cl
ENDROOT
BRANCH   4   8
ATOM      8  C   LIG    1       -2.480  -0.016   0.255  0.00  0.00    +0.252 C 
ATOM      9  N   LIG    1       -3.616  -0.710   0.466  0.00  0.00    -0.261 N 
ATOM     10  H   LIG    1       -3.584  -1.807   0.537  0.00  0.00    +0.157 HD
ATOM     11  O   LIG    1       -2.515   1.197   0.176  0.00  0.00    -0.270 OA
BRANCH   9  12
ATOM     12  C   LIG    1       -4.826  -0.040   0.592  0.00  0.00    +0.165 A 
ATOM     13  N   LIG    1       -5.065   1.256   0.542  0.00  0.00    -0.233 NA
ATOM     14  C   LIG    1       -6.288   1.731   0.678  0.00  0.00    +0.120 A 
ATOM     15  C   LIG    1       -7.302   0.855   0.884  0.00  0.00    +0.068 A 
ATOM     16  S   LIG    1       -6.412  -0.694   0.864  0.00  0.00    -0.061 S 
ENDBRANCH   9  12
ENDBRANCH   4   8
BRANCH   3  17
ATOM     17  N   LIG    1       -0.013   1.385   0.050  0.00  0.00    -0.357 N 
ATOM     18  H   LIG    1        0.929   1.948  -0.024  0.00  0.00    +0.142 HD
ATOM     19  H   LIG    1       -0.968   1.921   0.145  0.00  0.00    +0.142 HD
ENDBRANCH   3  17
TORSDOF 3
