REMARK  Name = ZINC28652818
REMARK                            x       y       z     vdW  Elec       q    Type
REMARK                         _______ _______ _______ _____ _____    ______ ____
ROOT
ATOM      1  S   LIG    1        0.306   0.123   2.457  0.00  0.00    +0.089 S 
ATOM      2  O   LIG    1        0.383  -0.816   3.522  0.00  0.00    -0.149 OA
ATOM      3  O   LIG    1       -0.824   0.961   2.261  0.00  0.00    -0.149 OA
ENDROOT
BRANCH   1  10
ATOM      4  C   LIG    1        0.356   1.363  -0.301  0.00  0.00    +0.046 C 
ATOM      5  C   LIG    1        0.531  -0.132  -0.251  0.00  0.00    -0.024 A 
ATOM      6  C   LIG    1        0.707  -0.847  -1.421  0.00  0.00    +0.007 A 
ATOM      7  C   LIG    1        0.868  -2.219  -1.375  0.00  0.00    +0.033 A 
ATOM      8  C   LIG    1        0.855  -2.877  -0.159  0.00  0.00    +0.123 A 
ATOM      9  C   LIG    1        0.680  -2.162   1.011  0.00  0.00    +0.061 A 
ATOM     10  C   LIG    1        0.523  -0.789   0.965  0.00  0.00    +0.115 A 
BRANCH   8  11
ATOM     11  N   LIG    1        1.026  -4.346  -0.110  0.00  0.00    +0.006 N 
ATOM     12  O   LIG    1        1.179  -4.971  -1.134  0.00  0.00    -0.130 OA
BRANCH  11  13
ATOM     13  O   LIG    1        1.014  -4.921   0.953  0.00  0.00    -0.396 OA
ATOM     14  H   LIG    1        0.896  -4.436   1.746  0.00  0.00    +0.329 HD
ENDBRANCH  11  13
ENDBRANCH   8  11
ENDBRANCH   1  10
BRANCH   1  15
ATOM     15  N   LIG    1        1.616   1.124   2.614  0.00  0.00    -0.126 N 
ATOM     16  C   LIG    1        1.490   2.550   2.300  0.00  0.00    +0.181 C 
BRANCH  15  17
ATOM     17  N   LIG    1        2.845   0.608   3.046  0.00  0.00    -0.170 NA
ATOM     18  C   LIG    1        3.873   1.394   3.169  0.00  0.00    +0.159 C 
BRANCH  18  19
ATOM     19  C   LIG    1        5.160   0.854   3.621  0.00  0.00    +0.086 A 
ATOM     20  C   LIG    1        5.434  -0.460   3.946  0.00  0.00    +0.140 A 
ATOM     21  N   LIG    1        6.711  -0.541   4.309  0.00  0.00    -0.235 NA
ATOM     22  C   LIG    1        7.274   0.660   4.232  0.00  0.00    +0.138 A 
ATOM     23  C   LIG    1        8.583   1.104   4.503  0.00  0.00    +0.048 A 
ATOM     24  C   LIG    1        8.894   2.417   4.320  0.00  0.00    +0.020 A 
ATOM     25  C   LIG    1        7.905   3.312   3.878  0.00  0.00    +0.035 A 
ATOM     26 BR   LIG    1        8.329   5.138   3.634  0.00  0.00    -0.049 Br
ATOM     27  C   LIG    1        6.653   2.871   3.628  0.00  0.00    +0.108 A 
ATOM     28  N   LIG    1        6.332   1.556   3.799  0.00  0.00    -0.297 N 
ENDBRANCH  18  19
ENDBRANCH  15  17
ENDBRANCH   1  15
TORSDOF 6
