REMARK  Name = ZINC13898716
REMARK                            x       y       z     vdW  Elec       q    Type
REMARK                         _______ _______ _______ _____ _____    ______ ____
ROOT
ATOM      1  C   LIG    1       -2.498   5.441   0.044  0.00  0.00    +0.232 C 
ENDROOT
BRANCH   1   2
ATOM      2  C   LIG    1       -3.936   5.966   0.059  0.00  0.00    +0.082 C 
BRANCH   2   3
ATOM      3  C   LIG    1       -3.920   7.496   0.062  0.00  0.00    +0.232 C 
BRANCH   3   4
ATOM      4  O   LIG    1       -5.263   7.985   0.077  0.00  0.00    -0.491 OA
BRANCH   4   5
ATOM      5  C   LIG    1       -5.427   9.332   0.081  0.00  0.00    +0.127 A 
ATOM      6  C   LIG    1       -4.313  10.167   0.072  0.00  0.00    +0.047 A 
ATOM      7  C   LIG    1       -4.471  11.533   0.076  0.00  0.00    +0.020 A 
ATOM      8  C   LIG    1       -5.754  12.088   0.089  0.00  0.00    +0.079 A 
ATOM      9  C   LIG    1       -6.876  11.246   0.099  0.00  0.00    +0.139 A 
ATOM     10  C   LIG    1       -6.705   9.872   0.089  0.00  0.00    +0.037 A 
BRANCH   8  11
ATOM     11  C   LIG    1       -5.927  13.551   0.094  0.00  0.00    +0.247 C 
ATOM     12  N   LIG    1       -4.847  14.357   0.085  0.00  0.00    -0.314 N 
ATOM     13  H   LIG    1       -3.956  13.974   0.075  0.00  0.00    +0.149 HD
ATOM     14  C   LIG    1       -5.020  15.812   0.090  0.00  0.00    +0.128 C 
ATOM     15  O   LIG    1       -7.045  14.031   0.106  0.00  0.00    -0.270 OA
ENDBRANCH   8  11
BRANCH   9  16
ATOM     16  O   LIG    1       -8.125  11.776   0.112  0.00  0.00    -0.494 OA
ATOM     17  C   LIG    1       -8.735  12.031  -1.155  0.00  0.00    +0.277 C 
ENDBRANCH   9  16
BRANCH  10  18
ATOM     18  C   LIG    1       -7.906   8.963   0.093  0.00  0.00    +0.046 C 
BRANCH  18  19
ATOM     19  C   LIG    1       -8.306   8.652   1.537  0.00  0.00    -0.006 C 
ATOM     20  C   LIG    1       -8.211   7.196   1.998  0.00  0.00    +0.004 C 
ATOM     21  C   LIG    1       -9.580   7.834   1.757  0.00  0.00    +0.004 C 
ENDBRANCH  18  19
ENDBRANCH  10  18
ENDBRANCH   4   5
ENDBRANCH   3   4
ENDBRANCH   2   3
ENDBRANCH   1   2
BRANCH   1  22
ATOM     22  O   LIG    1       -2.513   4.012   0.041  0.00  0.00    -0.491 OA
BRANCH  22  24
ATOM     23  C   LIG    1       -1.248   2.000   0.019  0.00  0.00    +0.036 A 
ATOM     24  C   LIG    1       -1.308   3.383   0.028  0.00  0.00    +0.127 A 
ATOM     25  C   LIG    1       -0.136   4.126   0.018  0.00  0.00    +0.046 A 
ATOM     26  C   LIG    1        1.086   3.484   0.005  0.00  0.00    +0.011 A 
ATOM     27  C   LIG    1        1.150   2.100   0.002  0.00  0.00    -0.005 A 
ATOM     28  C   LIG    1        2.505   1.438  -0.007  0.00  0.00    +0.042 C 
ATOM     29  C   LIG    1        2.363  -0.021  -0.447  0.00  0.00    +0.049 C 
ATOM     30  C   LIG    1        1.222  -0.657   0.357  0.00  0.00    +0.174 C 
ATOM     31  O   LIG    1        0.002  -0.004   0.002  0.00  0.00    -0.488 OA
ATOM     32  C   LIG    1       -0.016   1.354   0.009  0.00  0.00    +0.131 A 
BRANCH  30  33
ATOM     33  C   LIG    1        1.124  -2.147   0.024  0.00  0.00    +0.055 C 
BRANCH  33  34
ATOM     34  C   LIG    1        0.050  -2.796   0.900  0.00  0.00    +0.124 C 
BRANCH  34  35
ATOM     35  C   LIG    1       -0.046  -4.264   0.572  0.00  0.00    +0.305 C 
ATOM     36  O   LIG    1        0.670  -4.742  -0.276  0.00  0.00    -0.251 OA
BRANCH  35  37
ATOM     37  O   LIG    1       -0.928  -5.040   1.221  0.00  0.00    -0.481 OA
ATOM     38  H   LIG    1       -1.483  -4.670   1.878  0.00  0.00    +0.295 HD
ENDBRANCH  35  37
ENDBRANCH  34  35
ENDBRANCH  33  34
ENDBRANCH  30  33
BRANCH  23  39
ATOM     39  C   LIG    1       -2.520   1.192   0.025  0.00  0.00    +0.042 C 
BRANCH  39  41
ATOM     40  C   LIG    1       -4.233   0.095   1.475  0.00  0.00    +0.004 C 
ATOM     41  C   LIG    1       -2.941   0.915   1.469  0.00  0.00    +0.001 C 
ENDBRANCH  39  41
ENDBRANCH  23  39
ENDBRANCH  22  24
ENDBRANCH   1  22
TORSDOF 16
