REMARK  Name = ZINC40860736
REMARK                            x       y       z     vdW  Elec       q    Type
REMARK                         _______ _______ _______ _____ _____    ______ ____
ROOT
ATOM      1  N   LIG    1        4.868  -2.832  -0.260  0.00  0.00    -0.313 N 
ATOM      2  H   LIG    1        5.021  -3.325   0.561  0.00  0.00    +0.149 HD
ENDROOT
BRANCH   1   3
ATOM      3  C   LIG    1        5.842  -2.791  -1.230  0.00  0.00    +0.172 A 
ATOM      4  N   LIG    1        5.739  -2.141  -2.387  0.00  0.00    -0.328 N 
ATOM      5  C   LIG    1        6.899  -2.325  -3.092  0.00  0.00    +0.065 A 
ATOM      6  C   LIG    1        7.348  -1.892  -4.337  0.00  0.00    +0.028 A 
ATOM      7  C   LIG    1        8.602  -2.258  -4.777  0.00  0.00    +0.002 A 
ATOM      8  C   LIG    1        9.420  -3.055  -3.990  0.00  0.00    +0.002 A 
ATOM      9  C   LIG    1        8.990  -3.492  -2.755  0.00  0.00    +0.028 A 
ATOM     10  C   LIG    1        7.727  -3.132  -2.295  0.00  0.00    +0.065 A 
ATOM     11  H   LIG    1        4.972  -1.625  -2.681  0.00  0.00    +0.169 HD
ATOM     12  N   LIG    1        7.027  -3.391  -1.146  0.00  0.00    -0.328 N 
ATOM     13  H   LIG    1        7.342  -3.923  -0.398  0.00  0.00    +0.169 HD
ENDBRANCH   1   3
BRANCH   1  21
ATOM     14  C   LIG    1       -0.017   1.375   0.010  0.00  0.00    +0.000 A 
ATOM     15  C   LIG    1        1.174   2.078   0.002  0.00  0.00    +0.000 A 
ATOM     16  C   LIG    1        2.372   1.395  -0.010  0.00  0.00    +0.004 A 
ATOM     17  C   LIG    1        2.393   0.006  -0.017  0.00  0.00    -0.042 A 
ATOM     18  C   LIG    1        1.208  -0.694  -0.015  0.00  0.00    -0.044 A 
ATOM     19  C   LIG    1        1.155  -2.199  -0.038  0.00  0.00    +0.037 C 
ATOM     20  C   LIG    1        2.501  -2.790   0.375  0.00  0.00    +0.027 C 
ATOM     21  C   LIG    1        3.599  -2.130  -0.467  0.00  0.00    +0.078 C 
ATOM     22  C   LIG    1        3.737  -0.675  -0.023  0.00  0.00    +0.057 C 
ATOM     23  C   LIG    1        0.002  -0.004   0.002  0.00  0.00    +0.004 A 
ENDBRANCH   1  21
TORSDOF 2
