REMARK  Name = ZINC64633932
REMARK                            x       y       z     vdW  Elec       q    Type
REMARK                         _______ _______ _______ _____ _____    ______ ____
ROOT
ATOM      1  N   LIG    1       -3.902  -1.562   0.030  0.00  0.00    -0.281 N 
ATOM      2  H   LIG    1       -3.942  -0.691  -0.397  0.00  0.00    +0.155 HD
ENDROOT
BRANCH   1   3
ATOM      3  C   LIG    1       -4.995  -2.038   0.737  0.00  0.00    +0.222 A 
ATOM      4  N   LIG    1       -4.881  -3.170   1.416  0.00  0.00    -0.220 NA
ATOM      5  C   LIG    1       -5.907  -3.668   2.090  0.00  0.00    +0.144 A 
ATOM      6  C   LIG    1       -7.115  -2.983   2.090  0.00  0.00    +0.106 A 
ATOM      7  C   LIG    1       -7.191  -1.779   1.388  0.00  0.00    +0.163 A 
ATOM      8  N   LIG    1       -8.343  -1.006   1.425  0.00  0.00    -0.326 N 
ATOM      9  C   LIG    1       -9.079  -0.710   0.194  0.00  0.00    +0.151 C 
ATOM     10  C   LIG    1       -8.790  -0.516   2.649  0.00  0.00    +0.056 A 
ATOM     11  C   LIG    1       -8.894   0.854   2.848  0.00  0.00    +0.026 A 
ATOM     12  C   LIG    1       -9.305   1.346   4.071  0.00  0.00    +0.002 A 
ATOM     13  C   LIG    1       -9.611   0.478   5.106  0.00  0.00    +0.001 A 
ATOM     14  C   LIG    1       -9.525  -0.885   4.921  0.00  0.00    +0.015 A 
ATOM     15  C   LIG    1       -9.127  -1.399   3.682  0.00  0.00    +0.063 A 
ATOM     16  C   LIG    1       -9.113  -2.851   3.468  0.00  0.00    +0.261 A 
ATOM     17  O   LIG    1      -10.001  -3.498   3.988  0.00  0.00    -0.267 OA
ATOM     18  N   LIG    1       -8.216  -3.518   2.757  0.00  0.00    -0.307 N 
ATOM     19  C   LIG    1       -8.400  -4.968   2.662  0.00  0.00    +0.152 C 
ATOM     20  N   LIG    1       -6.126  -1.347   0.722  0.00  0.00    -0.195 NA
ENDBRANCH   1   3
BRANCH   1  26
ATOM     21  C   LIG    1       -1.490  -1.721  -0.119  0.00  0.00    +0.143 A 
ATOM     22  C   LIG    1       -0.342  -2.490  -0.211  0.00  0.00    +0.070 A 
ATOM     23  C   LIG    1       -0.437  -3.874  -0.260  0.00  0.00    +0.033 A 
ATOM     24  C   LIG    1       -1.682  -4.487  -0.216  0.00  0.00    +0.025 A 
ATOM     25  C   LIG    1       -2.828  -3.721  -0.124  0.00  0.00    +0.029 A 
ATOM     26  C   LIG    1       -2.737  -2.338  -0.070  0.00  0.00    +0.076 A 
BRANCH  23  27
ATOM     27  N   LIG    1        0.723  -4.652  -0.353  0.00  0.00    -0.330 N 
ATOM     28  C   LIG    1        2.038  -4.018  -0.525  0.00  0.00    +0.107 C 
ATOM     29  C   LIG    1        2.724  -4.632  -1.749  0.00  0.00    +0.050 C 
ATOM     30  C   LIG    1        2.776  -6.153  -1.590  0.00  0.00    +0.118 C 
ATOM     31  C   LIG    1        1.352  -6.708  -1.507  0.00  0.00    +0.050 C 
ATOM     32  C   LIG    1        0.650  -6.117  -0.275  0.00  0.00    +0.107 C 
BRANCH  30  33
ATOM     33  O   LIG    1        3.445  -6.727  -2.715  0.00  0.00    -0.392 OA
ATOM     34  H   LIG    1        3.515  -7.691  -2.682  0.00  0.00    +0.210 HD
ENDBRANCH  30  33
ENDBRANCH  23  27
BRANCH  21  35
ATOM     35  O   LIG    1       -1.399  -0.365  -0.072  0.00  0.00    -0.490 OA
BRANCH  35  37
ATOM     36  C   LIG    1       -0.186   1.726  -0.062  0.00  0.00    +0.048 C 
ATOM     37  C   LIG    1       -0.088   0.200  -0.127  0.00  0.00    +0.226 C 
ENDBRANCH  35  37
ENDBRANCH  21  35
ENDBRANCH   1  26
TORSDOF 6
