REMARK  Name = ZINC43076136
REMARK                            x       y       z     vdW  Elec       q    Type
REMARK                         _______ _______ _______ _____ _____    ______ ____
ROOT
ATOM      1  C   LIG    1        3.065  -2.722   5.316  0.00  0.00    +0.201 A 
ATOM      2  N   LIG    1        2.662  -3.741   4.599  0.00  0.00    -0.214 NA
ATOM      3  C   LIG    1        2.946  -4.899   5.252  0.00  0.00    +0.092 A 
ATOM      4  C   LIG    1        2.740  -6.243   4.950  0.00  0.00    +0.043 A 
ATOM      5  C   LIG    1        3.156  -7.220   5.851  0.00  0.00    +0.039 A 
ATOM      6  C   LIG    1        3.776  -6.853   7.051  0.00  0.00    +0.015 A 
ATOM      7  C   LIG    1        3.979  -5.536   7.350  0.00  0.00    +0.029 A 
ATOM      8  C   LIG    1        3.571  -4.548   6.463  0.00  0.00    +0.070 A 
ATOM      9  N   LIG    1        3.638  -3.167   6.474  0.00  0.00    -0.307 N 
ENDROOT
BRANCH   5  10
ATOM     10  C   LIG    1        2.942  -8.648   5.539  0.00  0.00    +0.242 C 
ATOM     11  N   LIG    1        3.344  -9.595   6.410  0.00  0.00    -0.325 N 
ATOM     12  H   LIG    1        3.204 -10.533   6.205  0.00  0.00    +0.145 HD
ATOM     13  H   LIG    1        3.774  -9.339   7.241  0.00  0.00    +0.145 HD
ATOM     14  O   LIG    1        2.404  -8.969   4.497  0.00  0.00    -0.270 OA
ENDBRANCH   5  10
BRANCH   1  15
ATOM     15  N   LIG    1        2.935  -1.397   4.955  0.00  0.00    -0.285 N 
ATOM     16  H   LIG    1        3.338  -0.704   5.501  0.00  0.00    +0.155 HD
BRANCH  15  20
ATOM     17  C   LIG    1        0.812  -0.372   1.515  0.00  0.00    +0.008 A 
ATOM     18  C   LIG    1        0.528  -1.559   2.179  0.00  0.00    +0.016 A 
ATOM     19  C   LIG    1        1.231  -1.899   3.317  0.00  0.00    +0.024 A 
ATOM     20  C   LIG    1        2.223  -1.053   3.799  0.00  0.00    +0.034 A 
ATOM     21  C   LIG    1        2.507   0.133   3.135  0.00  0.00    +0.024 A 
ATOM     22  C   LIG    1        1.808   0.470   1.994  0.00  0.00    +0.016 A 
BRANCH  17  24
ATOM     23  C   LIG    1       -1.248  -1.314  -0.163  0.00  0.00    +0.090 C 
ATOM     24  S   LIG    1       -0.085   0.061   0.061  0.00  0.00    -0.129 S 
ENDBRANCH  17  24
ENDBRANCH  15  20
ENDBRANCH   1  15
BRANCH   9  25
ATOM     25  C   LIG    1        4.213  -2.335   7.534  0.00  0.00    +0.160 C 
BRANCH  25  26
ATOM     26  C   LIG    1        3.179  -2.098   8.604  0.00  0.00    -0.016 A 
ATOM     27  C   LIG    1        1.886  -2.557   8.430  0.00  0.00    +0.006 A 
ATOM     28  C   LIG    1        0.938  -2.340   9.412  0.00  0.00    +0.000 A 
ATOM     29  C   LIG    1        1.282  -1.664  10.568  0.00  0.00    +0.001 A 
ATOM     30  C   LIG    1        2.574  -1.206  10.742  0.00  0.00    +0.013 A 
ATOM     31  C   LIG    1        3.524  -1.427   9.762  0.00  0.00    +0.060 A 
BRANCH  31  32
ATOM     32  C   LIG    1        4.934  -0.932   9.954  0.00  0.00    +0.418 C 
ATOM     33  F   LIG    1        5.220   0.047   8.997  0.00  0.00    -0.166 F 
ATOM     34  F   LIG    1        5.827  -2.000   9.810  0.00  0.00    -0.166 F 
ATOM     35  F   LIG    1        5.066  -0.384  11.235  0.00  0.00    -0.166 F 
ENDBRANCH  31  32
ENDBRANCH  25  26
ENDBRANCH   9  25
TORSDOF 7
