REMARK  Name = ZINC20325159
REMARK                            x       y       z     vdW  Elec       q    Type
REMARK                         _______ _______ _______ _____ _____    ______ ____
ROOT
ATOM      1  C   LIG    1        6.972   0.376   2.296  0.00  0.00    +0.071 C 
ATOM      2  C   LIG    1        7.098  -0.768   1.287  0.00  0.00    +0.042 C 
ATOM      3  C   LIG    1        6.412  -0.161   3.615  0.00  0.00    +0.071 C 
ATOM      4  C   LIG    1        4.960  -0.516   3.443  0.00  0.00    -0.024 A 
ATOM      5  C   LIG    1        4.225  -0.057   2.395  0.00  0.00    +0.022 A 
ATOM      6  C   LIG    1        4.834   0.822   1.333  0.00  0.00    +0.199 C 
ATOM      7  C   LIG    1        2.874  -0.404   2.286  0.00  0.00    +0.128 A 
ATOM      8  N   LIG    1        2.304  -1.177   3.197  0.00  0.00    -0.224 NA
ATOM      9  C   LIG    1        2.990  -1.647   4.218  0.00  0.00    +0.113 A 
ATOM     10  S   LIG    1        2.567  -2.690   5.592  0.00  0.00    -0.064 S 
ATOM     11  C   LIG    1        4.140  -2.736   6.406  0.00  0.00    +0.080 A 
ATOM     12  C   LIG    1        4.621  -3.347   7.555  0.00  0.00    +0.136 A 
ATOM     13  N   LIG    1        5.900  -3.162   7.881  0.00  0.00    -0.220 NA
ATOM     14  C   LIG    1        6.675  -2.413   7.117  0.00  0.00    +0.224 A 
ATOM     15  N   LIG    1        6.255  -1.823   6.026  0.00  0.00    -0.234 NA
ATOM     16  C   LIG    1        4.976  -1.946   5.607  0.00  0.00    +0.093 A 
ATOM     17  C   LIG    1        4.350  -1.350   4.412  0.00  0.00    +0.037 A 
ATOM     18  O   LIG    1        6.070   1.368   1.792  0.00  0.00    -0.369 OA
ENDROOT
BRANCH   7  19
ATOM     19  N   LIG    1        2.125   0.070   1.217  0.00  0.00    -0.310 N 
ATOM     20  C   LIG    1        1.625  -1.039   0.392  0.00  0.00    +0.134 C 
ATOM     21  C   LIG    1        0.857  -0.471  -0.805  0.00  0.00    +0.178 C 
ATOM     22  O   LIG    1       -0.198   0.370  -0.332  0.00  0.00    -0.377 OA
ATOM     23  C   LIG    1        0.253   1.461   0.476  0.00  0.00    +0.178 C 
ATOM     24  C   LIG    1        1.015   0.912   1.685  0.00  0.00    +0.134 C 
ENDBRANCH   7  19
BRANCH   1  26
ATOM     25  C   LIG    1        8.901   1.538   1.215  0.00  0.00    +0.007 C 
ATOM     26  C   LIG    1        8.346   1.004   2.537  0.00  0.00    +0.032 C 
ENDBRANCH   1  26
BRANCH  12  27
ATOM     27  N   LIG    1        3.792  -4.129   8.345  0.00  0.00    -0.327 N 
ATOM     28  H   LIG    1        2.739  -4.272   8.063  0.00  0.00    +0.148 HD
BRANCH  27  29
ATOM     29  C   LIG    1        4.320  -4.764   9.555  0.00  0.00    +0.118 C 
BRANCH  29  30
ATOM     30  C   LIG    1        3.208  -5.564  10.237  0.00  0.00    +0.103 C 
BRANCH  30  31
ATOM     31  N   LIG    1        3.737  -6.201  11.450  0.00  0.00    -0.297 NA
ATOM     32  C   LIG    1        4.738  -7.224  11.114  0.00  0.00    +0.112 C 
ATOM     33  C   LIG    1        5.305  -7.819  12.406  0.00  0.00    +0.175 C 
ATOM     34  O   LIG    1        4.234  -8.348  13.192  0.00  0.00    -0.377 OA
ATOM     35  C   LIG    1        3.240  -7.379  13.538  0.00  0.00    +0.175 C 
ATOM     36  C   LIG    1        2.653  -6.779  12.258  0.00  0.00    +0.112 C 
ENDBRANCH  30  31
ENDBRANCH  29  30
ENDBRANCH  27  29
ENDBRANCH  12  27
TORSDOF 6
