REMARK  Name = ZINC13761818
REMARK                            x       y       z     vdW  Elec       q    Type
REMARK                         _______ _______ _______ _____ _____    ______ ____
ROOT
ATOM      1  C   LIG    1        3.657   2.161  -0.012  0.00  0.00    +0.075 A 
ATOM      2  C   LIG    1        3.794   3.521  -0.004  0.00  0.00    +0.062 A 
ATOM      3  C   LIG    1        5.157   3.814  -0.030  0.00  0.00    +0.166 A 
ATOM      4  N   LIG    1        5.827   2.689  -0.053  0.00  0.00    -0.162 NA
ATOM      5  N   LIG    1        4.914   1.627  -0.037  0.00  0.00    -0.232 N 
ENDROOT
BRANCH   1   8
ATOM      6  C   LIG    1        1.157  -0.587   0.540  0.00  0.00    +0.006 A 
ATOM      7  C   LIG    1        2.347   0.111   0.523  0.00  0.00    +0.010 A 
ATOM      8  C   LIG    1        2.385   1.407   0.009  0.00  0.00    +0.000 A 
ATOM      9  C   LIG    1        1.217   1.990  -0.485  0.00  0.00    +0.010 A 
ATOM     10  C   LIG    1        0.033   1.281  -0.462  0.00  0.00    +0.006 A 
ATOM     11  C   LIG    1        0.003  -0.004   0.049  0.00  0.00    -0.022 A 
BRANCH  11  12
ATOM     12  C   LIG    1       -1.294  -0.772   0.071  0.00  0.00    +0.191 C 
BRANCH  12  13
ATOM     13  O   LIG    1       -1.975  -0.521   1.302  0.00  0.00    -0.390 OA
ATOM     14  H   LIG    1       -2.820  -0.984   1.385  0.00  0.00    +0.210 HD
ENDBRANCH  12  13
ENDBRANCH  11  12
ENDBRANCH   1   8
BRANCH   5  15
ATOM     15  C   LIG    1        5.233   0.263  -0.047  0.00  0.00    +0.066 A 
ATOM     16  C   LIG    1        4.560  -0.602  -0.899  0.00  0.00    +0.030 A 
ATOM     17  C   LIG    1        4.876  -1.946  -0.908  0.00  0.00    +0.030 A 
ATOM     18  C   LIG    1        5.863  -2.431  -0.068  0.00  0.00    +0.105 A 
ATOM     19  C   LIG    1        6.535  -1.572   0.782  0.00  0.00    +0.030 A 
ATOM     20  C   LIG    1        6.227  -0.226   0.790  0.00  0.00    +0.030 A 
BRANCH  18  21
ATOM     21  S   LIG    1        6.263  -4.147  -0.082  0.00  0.00    +0.056 S 
ATOM     22  O   LIG    1        5.117  -4.828  -0.571  0.00  0.00    -0.153 OA
ATOM     23  O   LIG    1        6.840  -4.439   1.184  0.00  0.00    -0.153 OA
BRANCH  21  24
ATOM     24  N   LIG    1        7.459  -4.362  -1.207  0.00  0.00    -0.204 NA
ATOM     25  H   LIG    1        7.821  -5.247  -1.367  0.00  0.00    +0.144 HD
ATOM     26  H   LIG    1        7.796  -3.602  -1.707  0.00  0.00    +0.144 HD
ENDBRANCH  21  24
ENDBRANCH  18  21
ENDBRANCH   5  15
BRANCH   3  27
ATOM     27  C   LIG    1        5.759   5.196  -0.032  0.00  0.00    +0.436 C 
ATOM     28  F   LIG    1        4.885   6.085  -0.667  0.00  0.00    -0.164 F 
ATOM     29  F   LIG    1        6.979   5.172  -0.717  0.00  0.00    -0.164 F 
ATOM     30  F   LIG    1        5.973   5.613   1.286  0.00  0.00    -0.164 F 
ENDBRANCH   3  27
TORSDOF 7
