REMARK  Name = ZINC00057300
REMARK                            x       y       z     vdW  Elec       q    Type
REMARK                         _______ _______ _______ _____ _____    ______ ____
ROOT
ATOM      1  C   LIG    1       -0.261   5.749   1.254  0.00  0.00    +0.022 A 
ATOM      2  C   LIG    1        0.954   5.112   1.421  0.00  0.00    -0.046 A 
ATOM      3  C   LIG    1        2.110   5.853   1.584  0.00  0.00    +0.022 A 
ATOM      4  C   LIG    1        2.055   7.234   1.569  0.00  0.00    +0.061 A 
ATOM      5 BR   LIG    1        3.637   8.246   1.784  0.00  0.00    -0.046 Br
ATOM      6  C   LIG    1        0.836   7.877   1.402  0.00  0.00    +0.145 A 
ATOM      7  C   LIG    1       -0.323   7.130   1.244  0.00  0.00    +0.061 A 
ATOM      8 BR   LIG    1       -1.986   8.002   1.015  0.00  0.00    -0.046 Br
ENDROOT
BRANCH   6   9
ATOM      9  O   LIG    1        0.778   9.235   1.392  0.00  0.00    -0.505 OA
ATOM     10  H   LIG    1        0.642   9.629   2.264  0.00  0.00    +0.292 HD
ENDBRANCH   6   9
BRANCH   2  11
ATOM     11  C   LIG    1        1.018   3.606   1.432  0.00  0.00    +0.030 C 
BRANCH  11  12
ATOM     12  CA  LIG    1        1.235   3.094   0.007  0.00  0.00    +0.040 C 
BRANCH  12  13
ATOM     13  N   LIG    1        2.547   3.561  -0.475  0.00  0.00    +0.387 N 
ATOM     14  H1  LIG    1        2.578   4.586  -0.430  0.00  0.00    -0.089 HD
ATOM     15  H2  LIG    1        2.691   3.265  -1.439  0.00  0.00    -0.089 HD
ATOM     16  H3  LIG    1        3.289   3.180   0.110  0.00  0.00    -0.089 HD
ENDBRANCH  12  13
BRANCH  12  17
ATOM     17  C   LIG    1        1.177   1.588  -0.001  0.00  0.00    +0.290 C 
ATOM     18  O   LIG    1        2.199   0.944  -0.014  0.00  0.00    -0.253 OA
BRANCH  17  19
ATOM     19  OXT LIG    1       -0.011   0.963   0.007  0.00  0.00    -0.482 OA
ATOM     20  HXT LIG    1       -0.804   1.462   0.018  0.00  0.00    +0.295 HD
ENDBRANCH  17  19
ENDBRANCH  12  17
ENDBRANCH  11  12
ENDBRANCH   2  11
TORSDOF 6
