REMARK  Name = ZINC19966204
REMARK                            x       y       z     vdW  Elec       q    Type
REMARK                         _______ _______ _______ _____ _____    ______ ____
ROOT
ATOM      1  C   LIG    1        5.462  -1.917   2.807  0.00  0.00    +0.137 C 
ENDROOT
BRANCH   1   7
ATOM      2  C   LIG    1        7.942  -2.024   2.499  0.00  0.00    +0.009 A 
ATOM      3  C   LIG    1        9.234  -1.876   2.970  0.00  0.00    +0.049 A 
ATOM      4  C   LIG    1        9.453  -1.472   4.277  0.00  0.00    +0.158 A 
ATOM      5  C   LIG    1        8.371  -1.210   5.112  0.00  0.00    +0.159 A 
ATOM      6  C   LIG    1        7.079  -1.355   4.632  0.00  0.00    +0.054 A 
ATOM      7  C   LIG    1        6.868  -1.759   3.327  0.00  0.00    -0.027 A 
BRANCH   4   8
ATOM      8  O   LIG    1       10.723  -1.331   4.743  0.00  0.00    -0.503 OA
ATOM      9  H   LIG    1       10.895  -1.010   5.781  0.00  0.00    +0.292 HD
ENDBRANCH   4   8
BRANCH   5  10
ATOM     10  O   LIG    1        8.580  -0.812   6.395  0.00  0.00    -0.503 OA
ATOM     11  H   LIG    1        7.724  -0.605   7.054  0.00  0.00    +0.292 HD
ENDBRANCH   5  10
ENDBRANCH   1   7
BRANCH   1  12
ATOM     12  N   LIG    1        5.010  -0.648   2.229  0.00  0.00    -0.340 N 
ATOM     13  H   LIG    1        5.678   0.225   2.228  0.00  0.00    +0.146 HD
BRANCH  12  14
ATOM     14  C   LIG    1        3.727  -0.548   1.679  0.00  0.00    +0.031 A 
ATOM     15  C   LIG    1        2.883  -1.651   1.680  0.00  0.00    +0.027 A 
ATOM     16  C   LIG    1        1.616  -1.553   1.136  0.00  0.00    +0.051 A 
ATOM     17  C   LIG    1        1.184  -0.356   0.590  0.00  0.00    +0.166 A 
ATOM     18  C   LIG    1        2.029   0.752   0.587  0.00  0.00    +0.168 A 
ATOM     19  O   LIG    1        1.376   1.797  -0.001  0.00  0.00    -0.453 OA
ATOM     20  C   LIG    1       -0.018   1.436   0.010  0.00  0.00    +0.466 C 
ATOM     21  O   LIG    1        0.002  -0.004   0.002  0.00  0.00    -0.453 OA
ATOM     22  C   LIG    1        3.298   0.653   1.132  0.00  0.00    +0.072 A 
ENDBRANCH  12  14
ENDBRANCH   1  12
TORSDOF 5
