REMARK  Name = ZINC18456279
REMARK                            x       y       z     vdW  Elec       q    Type
REMARK                         _______ _______ _______ _____ _____    ______ ____
ROOT
ATOM      1  C   UNK A  0       -0.006   1.391   0.057  0.00  0.00    +0.015 A 
ATOM      2  C   UNK A  0        1.176   2.095   0.039  0.00  0.00    +0.023 A 
ATOM      3  C   UNK A  0        2.392   1.416   0.017  0.00  0.00    +0.027 A 
ATOM      4  C   UNK A  0        2.415   0.024   0.012  0.00  0.00    +0.023 A 
ATOM      5  C   UNK A  0        1.236  -0.685   0.029  0.00  0.00    +0.015 A 
ATOM      6  C   UNK A  0        0.014  -0.007   0.052  0.00  0.00    +0.037 A 
ENDROOT
BRANCH   6   7
ATOM      7  C   UNK A  0       -1.251  -0.765   0.072  0.00  0.00    +0.245 C 
ATOM      8  N   GLU A  1       -1.230  -2.112   0.068  0.00  0.00    -0.298 N 
ATOM      9  H   GLU A  1       -0.383  -2.584   0.052  0.00  0.00    +0.150 HD
ATOM     10  O   UNK A  0       -2.314  -0.174   0.091  0.00  0.00    -0.270 OA
BRANCH   8  11
ATOM     11  CA  GLU A  1       -2.487  -2.865   0.087  0.00  0.00    +0.182 C 
BRANCH  11  12
ATOM     12  C   GLU A  1       -2.957  -3.021   1.510  0.00  0.00    +0.325 C 
ATOM     13  O   GLU A  1       -2.303  -2.547   2.424  0.00  0.00    -0.249 OA
BRANCH  12  14
ATOM     14  OXT GLU A  1       -3.992  -3.620   1.748  0.00  0.00    -0.479 OA
ATOM     15  HXT GLU A  1       -4.494  -3.984   1.046  0.00  0.00    +0.295 HD
ENDBRANCH  12  14
ENDBRANCH  11  12
BRANCH  11  16
ATOM     16  CB  GLU A  1       -2.263  -4.247  -0.531  0.00  0.00    +0.045 C 
BRANCH  16  17
ATOM     17  CG  GLU A  1       -1.907  -4.093  -2.010  0.00  0.00    +0.123 C 
BRANCH  17  18
ATOM     18  CD  GLU A  1       -1.687  -5.454  -2.619  0.00  0.00    +0.305 C 
ATOM     19  OE1 GLU A  1       -1.804  -6.455  -1.932  0.00  0.00    -0.251 OA
BRANCH  18  20
ATOM     20  OE2 GLU A  1       -1.391  -5.554  -3.797  0.00  0.00    -0.481 OA
ATOM     21  HE2 GLU A  1       -1.301  -4.785  -4.325  0.00  0.00    +0.295 HD
ENDBRANCH  18  20
ENDBRANCH  17  18
ENDBRANCH  16  17
ENDBRANCH  11  16
ENDBRANCH   8  11
ENDBRANCH   6   7
BRANCH   3  22
ATOM     22  N   UNK A  0        3.585   2.130  -0.002  0.00  0.00    -0.342 N 
ATOM     23  H   UNK A  0        3.569   3.100   0.001  0.00  0.00    +0.146 HD
BRANCH  22  24
ATOM     24  C   UNK A  0        4.864   1.418  -0.025  0.00  0.00    +0.126 C 
BRANCH  24  25
ATOM     25  C   UNK A  0        6.011   2.431  -0.042  0.00  0.00    +0.115 C 
ATOM     26  C   UNK A  0        7.350   1.697  -0.211  0.00  0.00    +0.127 C 
ATOM     27  N   UNK A  0        7.350   1.039  -1.526  0.00  0.00    -0.327 N 
ATOM     28  H   UNK A  0        7.654   0.122  -1.617  0.00  0.00    +0.148 HD
ATOM     29  C   UNK A  0        6.912   1.741  -2.629  0.00  0.00    +0.126 A 
ATOM     30  C   UNK A  0        6.169   2.877  -2.473  0.00  0.00    +0.142 A 
ATOM     31  C   UNK A  0        5.730   3.572  -3.620  0.00  0.00    +0.298 A 
ATOM     32  O   UNK A  0        5.061   4.590  -3.507  0.00  0.00    -0.264 OA
ATOM     33  N   UNK A  0        6.053   3.105  -4.837  0.00  0.00    -0.176 NA
ATOM     34  C   UNK A  0        6.772   2.011  -4.975  0.00  0.00    +0.195 A 
ATOM     35  N   UNK A  0        7.214   1.311  -3.894  0.00  0.00    -0.315 N 
ATOM     36  H   UNK A  0        7.743   0.508  -4.020  0.00  0.00    +0.170 HD
ATOM     37  N   UNK A  0        5.850   3.348  -1.182  0.00  0.00    -0.261 N 
ATOM     38  C   UNK A  0        5.408   4.607  -0.996  0.00  0.00    +0.333 C 
ATOM     39  O   UNK A  0        5.045   4.966   0.105  0.00  0.00    -0.279 OA
BRANCH  34  40
ATOM     40  N   UNK A  0        7.082   1.567  -6.234  0.00  0.00    -0.329 N 
ATOM     41  H   UNK A  0        7.611   0.762  -6.348  0.00  0.00    +0.145 HD
ATOM     42  H   UNK A  0        6.773   2.058  -7.011  0.00  0.00    +0.145 HD
ENDBRANCH  34  40
ENDBRANCH  24  25
ENDBRANCH  22  24
ENDBRANCH   3  22
TORSDOF 12
