REMARK  Name = ZINC26498982
REMARK                            x       y       z     vdW  Elec       q    Type
REMARK                         _______ _______ _______ _____ _____    ______ ____
ROOT
ATOM      1  C   LIG    1        2.290   1.926   3.596  0.00  0.00    +0.121 A 
ATOM      2  C   LIG    1        3.501   1.254   3.525  0.00  0.00    +0.049 A 
ATOM      3  C   LIG    1        3.955   0.781   2.311  0.00  0.00    +0.049 A 
ATOM      4  C   LIG    1        3.203   0.974   1.157  0.00  0.00    +0.126 A 
ATOM      5  C   LIG    1        1.992   1.642   1.229  0.00  0.00    +0.030 A 
ATOM      6  C   LIG    1        1.153   1.861   0.001  0.00  0.00    +0.144 C 
ATOM      7  C   LIG    1        0.550   3.247   0.014  0.00  0.00    +0.249 C 
ATOM      8  N   LIG    1       -0.786   3.059   0.025  0.00  0.00    -0.238 N 
ATOM      9  H   LIG    1       -1.463   3.925   0.040  0.00  0.00    +0.159 HD
ATOM     10  C   LIG    1       -1.100   1.758   0.016  0.00  0.00    +0.307 C 
ATOM     11  O   LIG    1       -2.241   1.338   0.019  0.00  0.00    -0.252 OA
ATOM     12  O   LIG    1        1.143   4.305   0.014  0.00  0.00    -0.273 OA
ATOM     13  C   LIG    1        1.980   1.652  -1.263  0.00  0.00    +0.081 C 
ATOM     14  C   LIG    1        2.774   0.347  -1.110  0.00  0.00    +0.232 C 
ATOM     15  N   LIG    1       -0.011   0.966   0.007  0.00  0.00    -0.281 N 
ATOM     16  H   LIG    1        0.134  -0.125   0.005  0.00  0.00    +0.152 HD
ATOM     17  O   LIG    1        3.686   0.498  -0.021  0.00  0.00    -0.492 OA
ATOM     18  C   LIG    1        1.539   2.118   2.448  0.00  0.00    +0.055 A 
ENDROOT
BRANCH   1  20
ATOM     19  C   LIG    1        2.667   2.162   5.932  0.00  0.00    +0.277 C 
ATOM     20  O   LIG    1        1.840   2.396   4.790  0.00  0.00    -0.495 OA
ENDBRANCH   1  20
TORSDOF 1
