REMARK  Name = ZINC27552075
REMARK                            x       y       z     vdW  Elec       q    Type
REMARK                         _______ _______ _______ _____ _____    ______ ____
ROOT
ATOM      1  C   LIG    1       -2.514   0.980   0.019  0.00  0.00    -0.018 C 
ATOM      2  C   LIG    1       -3.399   0.989  -1.228  0.00  0.00    +0.012 C 
ATOM      3  C   LIG    1       -2.631  -0.219   0.986  0.00  0.00    -0.071 C 
ATOM      4  N   LIG    1       -4.089  -0.490   1.070  0.00  0.00    +0.380 N 
ATOM      5  H   LIG    1       -4.457  -1.046   0.195  0.00  0.00    -0.086 HD
ATOM      6  H   LIG    1       -4.355  -1.034   1.988  0.00  0.00    -0.086 HD
ATOM      7  C   LIG    1       -4.711   0.859   1.096  0.00  0.00    -0.078 C 
ATOM      8  C   LIG    1       -3.882   1.689   0.092  0.00  0.00    -0.019 C 
ENDROOT
BRANCH   1  12
ATOM      9  C   LIG    1        1.156   3.165   0.008  0.00  0.00    +0.000 A 
ATOM     10  C   LIG    1        1.175   1.783   0.000  0.00  0.00    +0.000 A 
ATOM     11  C   LIG    1       -0.013   1.076   0.008  0.00  0.00    +0.004 A 
ATOM     12  C   LIG    1       -1.219   1.751   0.017  0.00  0.00    -0.043 A 
ATOM     13  C   LIG    1       -1.238   3.133   0.029  0.00  0.00    +0.004 A 
ATOM     14  C   LIG    1       -0.050   3.840   0.022  0.00  0.00    +0.000 A 
ENDBRANCH   1  12
TORSDOF 1
