REMARK  Name = ZINC19608452
REMARK                            x       y       z     vdW  Elec       q    Type
REMARK                         _______ _______ _______ _____ _____    ______ ____
ROOT
ATOM      1  C   LIG    1       -4.747   1.458   0.918  0.00  0.00    +0.074 A 
ATOM      2  C   LIG    1       -3.435   1.917   0.946  0.00  0.00    +0.041 A 
ATOM      3  C   LIG    1       -2.517   1.414   0.021  0.00  0.00    +0.040 A 
ATOM      4  C   LIG    1       -2.970   0.454  -0.916  0.00  0.00    +0.102 A 
ATOM      5  C   LIG    1       -4.312   0.043  -0.868  0.00  0.00    +0.135 A 
ATOM      6  N   LIG    1       -5.140   0.552   0.029  0.00  0.00    -0.231 NA
ENDROOT
BRANCH   1  10
ATOM      7  C   LIG    1       -7.552   2.982   3.726  0.00  0.00    +0.000 A 
ATOM      8  C   LIG    1       -7.951   2.038   2.796  0.00  0.00    +0.001 A 
ATOM      9  C   LIG    1       -7.045   1.540   1.882  0.00  0.00    +0.010 A 
ATOM     10  C   LIG    1       -5.725   1.990   1.897  0.00  0.00    +0.000 A 
ATOM     11  C   LIG    1       -5.327   2.937   2.839  0.00  0.00    +0.010 A 
ATOM     12  C   LIG    1       -6.244   3.432   3.745  0.00  0.00    +0.001 A 
ENDBRANCH   1  10
BRANCH   3  13
ATOM     13  C   LIG    1       -1.117   1.874   0.017  0.00  0.00    +0.136 A 
ATOM     14  C   LIG    1       -0.013   1.076   0.008  0.00  0.00    +0.050 A 
ATOM     15  C   LIG    1        1.105   1.931   0.002  0.00  0.00    +0.042 A 
ATOM     16  C   LIG    1        0.636   3.196   0.012  0.00  0.00    +0.196 A 
ATOM     17  O   LIG    1       -0.705   3.157   0.024  0.00  0.00    -0.463 OA
ENDBRANCH   3  13
BRANCH   5  18
ATOM     18  N   LIG    1       -4.774  -0.898  -1.772  0.00  0.00    -0.342 N 
ATOM     19  H   LIG    1       -4.091  -1.321  -2.523  0.00  0.00    +0.144 HD
ATOM     20  H   LIG    1       -5.825  -1.223  -1.738  0.00  0.00    +0.144 HD
ENDBRANCH   5  18
BRANCH   4  21
ATOM     21  C   LIG    1       -2.074  -0.092  -1.891  0.00  0.00    +0.103 C 
ATOM     22  N   LIG    1       -1.364  -0.525  -2.665  0.00  0.00    -0.191 NA
ENDBRANCH   4  21
TORSDOF 4
