REMARK  Name = ZINC13777629
REMARK                            x       y       z     vdW  Elec       q    Type
REMARK                         _______ _______ _______ _____ _____    ______ ____
ROOT
ATOM      1  C   LIG    1        2.917  -0.488   2.470  0.00  0.00    +0.011 C 
ATOM      2  C   LIG    1        2.178   0.019   1.231  0.00  0.00    -0.031 C 
ATOM      3  C   LIG    1        0.742  -0.511   1.242  0.00  0.00    +0.010 C 
ATOM      4  C   LIG    1        0.002  -0.004   0.002  0.00  0.00    -0.009 C 
ATOM      5  C   LIG    1       -0.019   1.526   0.010  0.00  0.00    +0.010 C 
ATOM      6  C   LIG    1        1.417   2.055  -0.000  0.00  0.00    -0.031 C 
ATOM      7  C   LIG    1        1.396   3.585   0.008  0.00  0.00    +0.011 C 
ATOM      8  C   LIG    1        2.133   1.562  -1.259  0.00  0.00    +0.013 C 
ATOM      9  C   LIG    1        2.154   0.032  -1.268  0.00  0.00    -0.030 C 
ATOM     10  C   LIG    1        0.718  -0.497  -1.257  0.00  0.00    +0.010 C 
ATOM     11  C   LIG    1        2.894  -0.475  -0.028  0.00  0.00    +0.013 C 
ATOM     12  C   LIG    1        2.157   1.548   1.239  0.00  0.00    +0.013 C 
ENDROOT
BRANCH   9  13
ATOM     13  C   LIG    1        2.870  -0.461  -2.526  0.00  0.00    -0.013 C 
BRANCH  13  14
ATOM     14  C   LIG    1        2.890  -1.991  -2.535  0.00  0.00    -0.086 C 
BRANCH  14  15
ATOM     15  N   LIG    1        3.578  -2.465  -3.744  0.00  0.00    +0.378 N 
ATOM     16  H   LIG    1        3.046  -2.100  -4.635  0.00  0.00    -0.090 HD
ATOM     17  H   LIG    1        4.610  -2.084  -3.751  0.00  0.00    -0.090 HD
ATOM     18  H   LIG    1        3.593  -3.565  -3.750  0.00  0.00    -0.090 HD
ENDBRANCH  14  15
ENDBRANCH  13  14
ENDBRANCH   9  13
TORSDOF 3
