REMARK  Name = ZINC13808154
REMARK                            x       y       z     vdW  Elec       q    Type
REMARK                         _______ _______ _______ _____ _____    ______ ____
ROOT
ATOM      1  S   LIG    1        3.890   2.319  -0.024  0.00  0.00    +0.098 S 
ATOM      2  O   LIG    1        3.595   3.599  -0.566  0.00  0.00    -0.148 OA
ATOM      3  O   LIG    1        4.872   1.461  -0.589  0.00  0.00    -0.148 OA
ENDROOT
BRANCH   1   6
ATOM      4  C   LIG    1       -0.017   1.385   0.010  0.00  0.00    +0.024 A 
ATOM      5  C   LIG    1        1.171   2.090   0.002  0.00  0.00    +0.031 A 
ATOM      6  C   LIG    1        2.377   1.415  -0.013  0.00  0.00    +0.111 A 
ATOM      7  C   LIG    1        2.400   0.032  -0.021  0.00  0.00    +0.031 A 
ATOM      8  C   LIG    1        1.216  -0.679  -0.014  0.00  0.00    +0.024 A 
ATOM      9  C   LIG    1        0.002  -0.004   0.002  0.00  0.00    +0.025 A 
BRANCH   9  10
ATOM     10  N   LIG    1       -1.197  -0.720   0.010  0.00  0.00    -0.358 N 
ATOM     11  H   LIG    1       -1.183  -1.690   0.005  0.00  0.00    +0.142 HD
ATOM     12  H   LIG    1       -2.044  -0.248   0.021  0.00  0.00    +0.142 HD
ENDBRANCH   9  10
ENDBRANCH   1   6
BRANCH   1  13
ATOM     13  N   LIG    1        4.326   2.562   1.555  0.00  0.00    -0.070 N 
ATOM     14  H   LIG    1        4.424   3.464   1.897  0.00  0.00    +0.215 HD
BRANCH  13  15
ATOM     15  N   LIG    1        4.554   1.464   2.395  0.00  0.00    +0.026 NA
ATOM     16  C   LIG    1        4.896   1.655   3.634  0.00  0.00    +0.401 C 
BRANCH  16  17
ATOM     17  N   LIG    1        5.122   0.568   4.467  0.00  0.00    -0.288 N 
ATOM     18  H   LIG    1        5.378   0.711   5.392  0.00  0.00    +0.255 HD
ATOM     19  H   LIG    1        5.024  -0.334   4.124  0.00  0.00    +0.255 HD
ENDBRANCH  16  17
BRANCH  16  20
ATOM     20  N   LIG    1        5.036   2.946   4.124  0.00  0.00    -0.288 N 
ATOM     21  H   LIG    1        5.292   3.089   5.049  0.00  0.00    +0.255 HD
ATOM     22  H   LIG    1        4.879   3.706   3.542  0.00  0.00    +0.255 HD
ENDBRANCH  16  20
ENDBRANCH  13  15
ENDBRANCH   1  13
TORSDOF 6
