REMARK  Name = ZINC14618975
REMARK                            x       y       z     vdW  Elec       q    Type
REMARK                         _______ _______ _______ _____ _____    ______ ____
ROOT
ATOM      1  C   LIG    1        0.679   3.835  -1.211  0.00  0.00    +0.267 C 
ATOM      2  C   LIG    1        1.235   3.094   0.007  0.00  0.00    +0.267 C 
ATOM      3  O   LIG    1        2.081   3.733  -0.952  0.00  0.00    -0.345 OA
ENDROOT
BRANCH   1   4
ATOM      4  C   LIG    1        0.111   3.010  -2.336  0.00  0.00    +0.339 C 
ATOM      5  O   LIG    1        0.644   3.017  -3.420  0.00  0.00    -0.248 OA
BRANCH   4   6
ATOM      6  O   LIG    1       -0.988   2.266  -2.134  0.00  0.00    -0.463 OA
BRANCH   6   8
ATOM      7  C   LIG    1       -2.729   0.719  -2.844  0.00  0.00    +0.048 C 
ATOM      8  C   LIG    1       -1.480   1.496  -3.263  0.00  0.00    +0.229 C 
ENDBRANCH   6   8
ENDBRANCH   4   6
ENDBRANCH   1   4
BRANCH   2   9
ATOM      9  C   LIG    1        1.177   1.588  -0.001  0.00  0.00    +0.337 C 
ATOM     10  O   LIG    1        2.199   0.944  -0.014  0.00  0.00    -0.248 OA
BRANCH   9  11
ATOM     11  O   LIG    1       -0.011   0.963   0.007  0.00  0.00    -0.479 OA
ATOM     12  H   LIG    1       -0.804   1.462   0.018  0.00  0.00    +0.295 HD
ENDBRANCH   9  11
ENDBRANCH   2   9
TORSDOF 5
