REMARK  Name = ZINC00069901
REMARK                            x       y       z     vdW  Elec       q    Type
REMARK                         _______ _______ _______ _____ _____    ______ ____
ROOT
ATOM      1  C   LIG    1        3.122  -2.165  -0.040  0.00  0.00    +0.044 C 
ATOM      2  C   LIG    1        1.685  -1.709  -0.024  0.00  0.00    -0.037 A 
ATOM      3  C   LIG    1        0.660  -2.629  -0.018  0.00  0.00    +0.027 A 
ATOM      4  C   LIG    1       -0.659  -2.205  -0.003  0.00  0.00    +0.040 A 
ATOM      5  C   LIG    1       -1.772  -3.221   0.003  0.00  0.00    +0.065 C 
ATOM      6  N   LIG    1       -0.945  -0.917   0.006  0.00  0.00    -0.245 NA
ATOM      7  C   LIG    1        0.002  -0.004   0.002  0.00  0.00    +0.111 A 
ATOM      8  S   LIG    1       -0.022   1.772   0.012  0.00  0.00    -0.064 S 
ATOM      9  C   LIG    1        1.723   2.079  -0.003  0.00  0.00    +0.080 A 
ATOM     10  C   LIG    1        2.507   3.224  -0.005  0.00  0.00    +0.134 A 
ATOM     11  N   LIG    1        3.832   3.082  -0.019  0.00  0.00    -0.220 NA
ATOM     12  C   LIG    1        4.367   1.875  -0.030  0.00  0.00    +0.224 A 
ATOM     13  N   LIG    1        3.658   0.774  -0.029  0.00  0.00    -0.234 NA
ATOM     14  C   LIG    1        2.307   0.807  -0.016  0.00  0.00    +0.093 A 
ATOM     15  C   LIG    1        1.370  -0.332  -0.013  0.00  0.00    +0.037 A 
ENDROOT
BRANCH  10  16
ATOM     16  N   LIG    1        1.928   4.484   0.007  0.00  0.00    -0.342 N 
ATOM     17  H   LIG    1        2.488   5.276   0.005  0.00  0.00    +0.144 HD
ATOM     18  H   LIG    1        0.962   4.573   0.017  0.00  0.00    +0.144 HD
ENDBRANCH  10  16
TORSDOF 1
