REMARK  Name = ZINC14974185
REMARK                            x       y       z     vdW  Elec       q    Type
REMARK                         _______ _______ _______ _____ _____    ______ ____
ROOT
ATOM      1  C   LIG    1       -8.353  -1.919   1.292  0.00  0.00    +0.128 A 
ATOM      2  C   LIG    1       -6.999  -1.590   1.287  0.00  0.00    +0.111 A 
ATOM      3  C   LIG    1       -6.647  -0.253   1.427  0.00  0.00    +0.225 A 
ATOM      4  N   LIG    1       -7.607   0.657   1.566  0.00  0.00    -0.201 NA
ATOM      5  C   LIG    1       -8.878   0.307   1.560  0.00  0.00    +0.227 A 
ATOM      6  N   LIG    1       -9.253  -0.949   1.430  0.00  0.00    -0.221 NA
ENDROOT
BRANCH   1  10
ATOM      7  N   LIG    1      -10.080  -5.414  -0.117  0.00  0.00    -0.293 NA
ATOM      8  C   LIG    1      -10.621  -4.823   1.115  0.00  0.00    +0.104 C 
ATOM      9  C   LIG    1      -10.221  -3.348   1.188  0.00  0.00    +0.122 C 
ATOM     10  N   LIG    1       -8.756  -3.239   1.155  0.00  0.00    -0.313 N 
ATOM     11  C   LIG    1       -8.214  -3.830  -0.076  0.00  0.00    +0.122 C 
ATOM     12  C   LIG    1       -8.615  -5.305  -0.150  0.00  0.00    +0.104 C 
BRANCH   7  14
ATOM     13  C   LIG    1       -9.878  -7.410  -1.522  0.00  0.00    +0.029 C 
ATOM     14  C   LIG    1      -10.507  -6.812  -0.262  0.00  0.00    +0.084 C 
BRANCH  14  15
ATOM     15  C   LIG    1      -12.009  -6.870  -0.373  0.00  0.00    -0.030 A 
ATOM     16  C   LIG    1      -12.673  -5.990  -1.207  0.00  0.00    +0.008 A 
ATOM     17  C   LIG    1      -14.050  -6.045  -1.315  0.00  0.00    +0.038 A 
ATOM     18  C   LIG    1      -14.764  -6.975  -0.579  0.00  0.00    +0.123 A 
ATOM     19  F   LIG    1      -16.111  -7.026  -0.678  0.00  0.00    -0.205 F 
ATOM     20  C   LIG    1      -14.098  -7.853   0.260  0.00  0.00    +0.038 A 
ATOM     21  C   LIG    1      -12.721  -7.799   0.362  0.00  0.00    +0.008 A 
ENDBRANCH  14  15
ENDBRANCH   7  14
ENDBRANCH   1  10
BRANCH   3  22
ATOM     22  O   LIG    1       -5.343   0.117   1.429  0.00  0.00    -0.436 OA
BRANCH  22  23
ATOM     23  C   LIG    1       -5.050   1.418   1.692  0.00  0.00    +0.157 A 
ATOM     24  C   LIG    1       -4.824   2.289   0.651  0.00  0.00    +0.048 A 
ATOM     25  C   LIG    1       -4.521   3.623   0.877  0.00  0.00    +0.005 A 
ATOM     26  C   LIG    1       -4.446   4.091   2.176  0.00  0.00    +0.017 A 
ATOM     27  C   LIG    1       -4.670   3.230   3.223  0.00  0.00    +0.044 A 
ATOM     28  S   LIG    1       -4.686   3.382   4.993  0.00  0.00    -0.052 S 
ATOM     29  C   LIG    1       -5.081   1.678   5.361  0.00  0.00    +0.166 A 
ATOM     30  N   LIG    1       -5.173   1.148   4.164  0.00  0.00    -0.221 NA
ATOM     31  C   LIG    1       -4.980   1.865   3.036  0.00  0.00    +0.122 A 
BRANCH  29  32
ATOM     32  N   LIG    1       -5.252   1.072   6.596  0.00  0.00    -0.265 N 
ATOM     33  H   LIG    1       -5.505   0.003   6.654  0.00  0.00    +0.157 HD
ATOM     34  C   LIG    1       -5.108   1.793   7.726  0.00  0.00    +0.216 C 
ATOM     35  C   LIG    1       -5.287   1.133   9.069  0.00  0.00    +0.109 C 
ATOM     36  O   LIG    1       -4.834   2.972   7.662  0.00  0.00    -0.276 OA
ENDBRANCH  29  32
ENDBRANCH  22  23
ENDBRANCH   3  22
TORSDOF 6
