REMARK  Name = ZINC29326769
REMARK                            x       y       z     vdW  Elec       q    Type
REMARK                         _______ _______ _______ _____ _____    ______ ____
ROOT
ATOM      1  C   LIG    1        1.282   3.453   0.008  0.00  0.00    +0.042 C 
ENDROOT
BRANCH   1   5
ATOM      2  C   LIG    1        5.034   5.224   1.024  0.00  0.00    +0.000 A 
ATOM      3  C   LIG    1        4.088   4.998   2.007  0.00  0.00    +0.000 A 
ATOM      4  C   LIG    1        2.874   4.425   1.678  0.00  0.00    +0.002 A 
ATOM      5  C   LIG    1        2.606   4.078   0.367  0.00  0.00    -0.053 A 
ATOM      6  C   LIG    1        3.554   4.299  -0.614  0.00  0.00    +0.002 A 
ATOM      7  C   LIG    1        4.766   4.877  -0.286  0.00  0.00    +0.000 A 
ENDBRANCH   1   5
BRANCH   1   8
ATOM      8  N   LIG    1        0.867   3.914  -1.323  0.00  0.00    +0.389 N 
ATOM      9  H   LIG    1        0.765   5.010  -1.316  0.00  0.00    -0.088 HD
ATOM     10  H   LIG    1        1.624   3.621  -2.065  0.00  0.00    -0.088 HD
ATOM     11  H   LIG    1       -0.099   3.458  -1.585  0.00  0.00    -0.088 HD
ENDBRANCH   1   8
BRANCH   1  12
ATOM     12  P   LIG    1        1.451   1.638  -0.003  0.00  0.00    +0.181 P 
ATOM     13  O   LIG    1        2.203   1.204   1.196  0.00  0.00    -0.296 OA
ATOM     14  H   LIG    1        2.032   1.169  -0.811  0.00  0.00    +0.127 HD
BRANCH  12  15
ATOM     15  O   LIG    1       -0.011   0.963   0.007  0.00  0.00    -0.346 OA
ATOM     16  H   LIG    1       -0.504   1.247  -0.779  0.00  0.00    +0.217 HD
ENDBRANCH  12  15
ENDBRANCH   1  12
TORSDOF 4
