REMARK  Name = ZINC00005191
REMARK                            x       y       z     vdW  Elec       q    Type
REMARK                         _______ _______ _______ _____ _____    ______ ____
ROOT
ATOM      1  C   LIG    1       -1.198  -0.636   0.010  0.00  0.00    +0.127 A 
ATOM      2  C   LIG    1       -2.371   0.109   0.020  0.00  0.00    +0.092 A 
ATOM      3  C   LIG    1       -3.598  -0.526   0.028  0.00  0.00    +0.138 A 
ATOM      4  C   LIG    1       -3.658  -1.932   0.027  0.00  0.00    +0.101 A 
ATOM      5  C   LIG    1       -2.465  -2.678   0.017  0.00  0.00    +0.138 A 
ATOM      6  C   LIG    1       -1.247  -2.025   0.003  0.00  0.00    +0.092 A 
ENDROOT
BRANCH   1   8
ATOM      7  C   LIG    1       -0.017   1.425   0.010  0.00  0.00    +0.277 C 
ATOM      8  O   LIG    1        0.002  -0.004   0.002  0.00  0.00    -0.495 OA
ENDBRANCH   1   8
BRANCH   3   9
ATOM      9  O   LIG    1       -4.742   0.204   0.038  0.00  0.00    -0.494 OA
ATOM     10  C   LIG    1       -4.603   1.626   0.040  0.00  0.00    +0.277 C 
ENDBRANCH   3   9
BRANCH   4  11
ATOM     11  C   LIG    1       -4.951  -2.613   0.037  0.00  0.00    +0.170 C 
ATOM     12  O   LIG    1       -5.978  -1.966   0.046  0.00  0.00    -0.292 OA
BRANCH  11  13
ATOM     13  C   LIG    1       -5.010  -4.119   0.035  0.00  0.00    +0.078 C 
BRANCH  13  14
ATOM     14  C   LIG    1       -6.471  -4.573   0.047  0.00  0.00    -0.011 C 
BRANCH  14  15
ATOM     15  C   LIG    1       -6.530  -6.102   0.045  0.00  0.00    -0.078 C 
BRANCH  15  16
ATOM     16  N   LIG    1       -7.933  -6.537   0.056  0.00  0.00    +0.380 N 
ATOM     17  H   LIG    1       -8.427  -6.100   0.819  0.00  0.00    -0.082 HD
ATOM     18  C   LIG    1       -8.583  -6.202  -1.236  0.00  0.00    -0.079 C 
ATOM     19  C   LIG    1       -9.786  -7.177  -1.291  0.00  0.00    -0.020 C 
ATOM     20  C   LIG    1       -9.212  -8.470  -0.668  0.00  0.00    -0.020 C 
ATOM     21  C   LIG    1       -8.009  -8.010   0.176  0.00  0.00    -0.079 C 
ENDBRANCH  15  16
ENDBRANCH  14  15
ENDBRANCH  13  14
ENDBRANCH  11  13
ENDBRANCH   4  11
BRANCH   5  22
ATOM     22  O   LIG    1       -2.510  -4.034   0.016  0.00  0.00    -0.494 OA
ATOM     23  C   LIG    1       -1.258  -4.724   0.005  0.00  0.00    +0.277 C 
ENDBRANCH   5  22
TORSDOF 8
