REMARK  Name = ZINC29414528
REMARK                            x       y       z     vdW  Elec       q    Type
REMARK                         _______ _______ _______ _____ _____    ______ ____
ROOT
ATOM      1  C   LIG    1       -0.013   1.086   0.008  0.00  0.00    +0.108 C 
ENDROOT
BRANCH   1   2
ATOM      2  C   LIG    1       -0.753   1.593  -1.232  0.00  0.00    +0.263 C 
ATOM      3  F   LIG    1       -0.772   2.991  -1.224  0.00  0.00    -0.204 F 
ATOM      4  F   LIG    1       -2.065   1.108  -1.222  0.00  0.00    -0.204 F 
BRANCH   2   5
ATOM      5  C   LIG    1       -0.037   1.099  -2.490  0.00  0.00    +0.153 C 
BRANCH   5   6
ATOM      6  N   LIG    1       -0.747   1.586  -3.680  0.00  0.00    -0.325 NA
ATOM      7  H   LIG    1       -1.779   1.205  -3.672  0.00  0.00    +0.118 HD
ATOM      8  H   LIG    1       -0.232   1.231  -4.585  0.00  0.00    +0.118 HD
ENDBRANCH   5   6
ENDBRANCH   2   5
ENDBRANCH   1   2
BRANCH   1   9
ATOM      9  C   LIG    1       -0.729   1.579   1.267  0.00  0.00    +0.132 C 
BRANCH   9  10
ATOM     10  N   LIG    1       -0.644   3.044   1.336  0.00  0.00    -0.317 NA
ATOM     11  H   LIG    1       -1.159   3.399   2.241  0.00  0.00    +0.119 HD
ATOM     12  H   LIG    1       -1.123   3.481   0.447  0.00  0.00    +0.119 HD
ENDBRANCH   9  10
BRANCH   9  14
ATOM     13  C   LIG    1        0.421   0.528   3.405  0.00  0.00    +0.005 C 
ATOM     14  C   LIG    1       -0.089   0.994   2.457  0.00  0.00    -0.087 C 
ENDBRANCH   9  14
ENDBRANCH   1   9
TORSDOF 6
