REMARK  Name = ZINC26573752
REMARK                            x       y       z     vdW  Elec       q    Type
REMARK                         _______ _______ _______ _____ _____    ______ ____
ROOT
ATOM      1  C   LIG    1       -2.134   4.942  -0.917  0.00  0.00    +0.059 C 
ATOM      2  C   LIG    1       -2.349   3.773   0.046  0.00  0.00    +0.201 C 
ATOM      3  C   LIG    1       -3.596   2.994  -0.378  0.00  0.00    +0.190 C 
ATOM      4  C   LIG    1       -3.653   1.693   0.433  0.00  0.00    +0.187 C 
ATOM      5  C   LIG    1       -2.467   0.819   0.012  0.00  0.00    +0.258 C 
ATOM      6  C   LIG    1       -1.207   1.635   0.017  0.00  0.00    +0.288 C 
ATOM      7  N   LIG    1       -1.176   2.910   0.023  0.00  0.00    -0.271 N 
ATOM      8  H   LIG    1       -0.211   3.437   0.012  0.00  0.00    +0.304 HD
ENDROOT
BRANCH   3   9
ATOM      9  O   LIG    1       -3.523   2.690  -1.772  0.00  0.00    -0.385 OA
ATOM     10  H   LIG    1       -4.336   2.130  -2.256  0.00  0.00    +0.210 HD
ENDBRANCH   3   9
BRANCH   4  11
ATOM     11  O   LIG    1       -4.877   1.008   0.159  0.00  0.00    -0.386 OA
ATOM     12  H   LIG    1       -5.093   0.049   0.654  0.00  0.00    +0.210 HD
ENDBRANCH   4  11
BRANCH   5  13
ATOM     13  O   LIG    1       -2.332  -0.268   0.930  0.00  0.00    -0.378 OA
ATOM     14  H   LIG    1       -1.530  -1.008   0.792  0.00  0.00    +0.211 HD
ENDBRANCH   5  13
BRANCH   6  15
ATOM     15  N   LIG    1       -0.011   0.966   0.007  0.00  0.00    -0.163 N 
ATOM     16  H   LIG    1        0.004  -0.134   0.006  0.00  0.00    +0.317 HD
BRANCH  15  17
ATOM     17  N   LIG    1        1.163   1.665  -0.000  0.00  0.00    -0.183 NA
ATOM     18  H   LIG    1        1.206   2.299  -0.898  0.00  0.00    +0.165 HD
ATOM     19  H   LIG    1        2.008   0.962  -0.007  0.00  0.00    +0.165 HD
ENDBRANCH  15  17
ENDBRANCH   6  15
TORSDOF 5
