REMARK  Name = ZINC00056474
REMARK                            x       y       z     vdW  Elec       q    Type
REMARK                         _______ _______ _______ _____ _____    ______ ____
ROOT
ATOM      1  C   LIG    1       -0.019   1.526   0.010  0.00  0.00    +0.008 C 
ATOM      2  C   LIG    1        0.002  -0.004   0.002  0.00  0.00    -0.007 C 
ENDROOT
BRANCH   2   3
ATOM      3  C   LIG    1       -1.433  -0.534   0.013  0.00  0.00    -0.007 C 
ATOM      4  C   LIG    1       -2.149  -0.040   1.272  0.00  0.00    +0.008 C 
BRANCH   3   5
ATOM      5  C   LIG    1       -1.413  -2.063   0.004  0.00  0.00    +0.038 C 
BRANCH   5   6
ATOM      6  C   LIG    1       -2.822  -2.584  -0.109  0.00  0.00    -0.043 A 
ATOM      7  C   LIG    1       -3.562  -2.825   1.034  0.00  0.00    +0.007 A 
ATOM      8  C   LIG    1       -4.856  -3.303   0.935  0.00  0.00    +0.049 A 
ATOM      9  C   LIG    1       -5.413  -3.541  -0.311  0.00  0.00    +0.158 A 
ATOM     10  C   LIG    1       -4.668  -3.298  -1.461  0.00  0.00    +0.158 A 
ATOM     11  C   LIG    1       -3.374  -2.815  -1.355  0.00  0.00    +0.052 A 
BRANCH   9  12
ATOM     12  O   LIG    1       -6.685  -4.012  -0.409  0.00  0.00    -0.503 OA
ATOM     13  H   LIG    1       -7.358  -3.319  -0.460  0.00  0.00    +0.292 HD
ENDBRANCH   9  12
BRANCH  10  14
ATOM     14  O   LIG    1       -5.211  -3.531  -2.686  0.00  0.00    -0.503 OA
ATOM     15  H   LIG    1       -5.673  -2.769  -3.062  0.00  0.00    +0.292 HD
ENDBRANCH  10  14
ENDBRANCH   5   6
ENDBRANCH   3   5
ENDBRANCH   2   3
BRANCH   2  16
ATOM     16  C   LIG    1        0.718  -0.497  -1.257  0.00  0.00    +0.038 C 
BRANCH  16  17
ATOM     17  C   LIG    1        2.165  -0.079  -1.208  0.00  0.00    -0.043 A 
ATOM     18  C   LIG    1        2.550   1.138  -1.739  0.00  0.00    +0.007 A 
ATOM     19  C   LIG    1        3.876   1.526  -1.697  0.00  0.00    +0.049 A 
ATOM     20  C   LIG    1        4.823   0.694  -1.121  0.00  0.00    +0.158 A 
ATOM     21  C   LIG    1        4.436  -0.530  -0.586  0.00  0.00    +0.158 A 
ATOM     22  C   LIG    1        3.104  -0.911  -0.627  0.00  0.00    +0.052 A 
BRANCH  20  23
ATOM     23  O   LIG    1        6.128   1.075  -1.079  0.00  0.00    -0.503 OA
ATOM     24  H   LIG    1        6.368   1.570  -0.284  0.00  0.00    +0.292 HD
ENDBRANCH  20  23
BRANCH  21  25
ATOM     25  O   LIG    1        5.362  -1.350  -0.019  0.00  0.00    -0.503 OA
ATOM     26  H   LIG    1        5.492  -1.201   0.927  0.00  0.00    +0.292 HD
ENDBRANCH  21  25
ENDBRANCH  16  17
ENDBRANCH   2  16
TORSDOF 9
