REMARK  Name = ZINC28637246
REMARK                            x       y       z     vdW  Elec       q    Type
REMARK                         _______ _______ _______ _____ _____    ______ ____
ROOT
ATOM      1  S   LIG    1        3.629   2.838  -0.557  0.00  0.00    +0.050 S 
ATOM      2  O   LIG    1        3.253   3.935   0.265  0.00  0.00    -0.155 OA
ATOM      3  O   LIG    1        3.308   1.506  -0.178  0.00  0.00    -0.155 OA
ENDROOT
BRANCH   1   9
ATOM      4  C   LIG    1        1.680   2.763  -2.438  0.00  0.00    +0.058 C 
ATOM      5  C   LIG    1        1.210   2.102  -3.476  0.00  0.00    -0.014 C 
ATOM      6  C   LIG    1        2.060   1.632  -4.620  0.00  0.00    +0.028 C 
ATOM      7  C   LIG    1        3.397   2.376  -4.623  0.00  0.00    +0.006 C 
ATOM      8  C   LIG    1        3.994   2.303  -3.212  0.00  0.00    +0.033 C 
ATOM      9  C   LIG    1        3.123   3.139  -2.272  0.00  0.00    +0.188 C 
BRANCH   4  10
ATOM     10  C   LIG    1        0.736   3.155  -1.383  0.00  0.00    +0.337 C 
ATOM     11  O   LIG    1       -0.429   2.815  -1.452  0.00  0.00    -0.245 OA
BRANCH  10  12
ATOM     12  O   LIG    1        1.162   3.892  -0.338  0.00  0.00    -0.462 OA
BRANCH  12  14
ATOM     13  C   LIG    1        0.808   5.114   1.739  0.00  0.00    +0.048 C 
ATOM     14  C   LIG    1        0.213   4.122   0.738  0.00  0.00    +0.229 C 
ENDBRANCH  12  14
ENDBRANCH  10  12
ENDBRANCH   4  10
ENDBRANCH   1   9
BRANCH   1  15
ATOM     15  N   LIG    1        5.285   2.881  -0.588  0.00  0.00    -0.219 N 
ATOM     16  H   LIG    1        5.803   2.092  -0.308  0.00  0.00    +0.173 HD
BRANCH  15  17
ATOM     17  C   LIG    1        5.946   4.038  -1.011  0.00  0.00    +0.066 A 
ATOM     18  C   LIG    1        5.386   5.286  -0.773  0.00  0.00    +0.029 A 
ATOM     19  C   LIG    1        6.041   6.428  -1.191  0.00  0.00    +0.040 A 
ATOM     20  C   LIG    1        7.254   6.329  -1.853  0.00  0.00    +0.125 A 
ATOM     21  F   LIG    1        7.890   7.447  -2.266  0.00  0.00    -0.205 F 
ATOM     22  C   LIG    1        7.817   5.086  -2.087  0.00  0.00    +0.060 A 
ATOM     23  C   LIG    1        7.166   3.941  -1.670  0.00  0.00    +0.066 A 
ATOM     24 CL   LIG    1        7.869   2.383  -1.971  0.00  0.00    -0.081 Cl
ENDBRANCH  15  17
ENDBRANCH   1  15
TORSDOF 6
