REMARK  Name = ZINC28710852
REMARK                            x       y       z     vdW  Elec       q    Type
REMARK                         _______ _______ _______ _____ _____    ______ ____
ROOT
ATOM      1  C   LIG    1       -0.218   1.421  -1.430  0.00  0.00    +0.004 C 
ENDROOT
BRANCH   1   2
ATOM      2  C   LIG    1        0.295   0.712  -0.175  0.00  0.00    +0.027 C 
BRANCH   2   4
ATOM      3  C   LIG    1       -0.884   0.677   1.962  0.00  0.00    -0.027 C 
ATOM      4  C   LIG    1       -0.269   1.386   1.049  0.00  0.00    -0.031 C 
BRANCH   3   5
ATOM      5  C   LIG    1       -0.882  -0.827   1.876  0.00  0.00    +0.053 C 
BRANCH   5   7
ATOM      6  C   LIG    1       -1.080  -2.313   3.803  0.00  0.00    -0.031 C 
ATOM      7  C   LIG    1       -0.378  -1.404   3.174  0.00  0.00    -0.027 C 
BRANCH   6   8
ATOM      8  C   LIG    1       -2.302  -2.907   3.151  0.00  0.00    +0.027 C 
BRANCH   8   9
ATOM      9  C   LIG    1       -2.187  -4.433   3.145  0.00  0.00    +0.004 C 
BRANCH   9  10
ATOM     10  C   LIG    1       -3.428  -5.035   2.482  0.00  0.00    +0.000 C 
BRANCH  10  12
ATOM     11  C   LIG    1       -4.553  -7.163   1.814  0.00  0.00    +0.004 C 
ATOM     12  C   LIG    1       -3.312  -6.561   2.477  0.00  0.00    -0.003 C 
ENDBRANCH  10  12
ENDBRANCH   9  10
ENDBRANCH   8   9
ENDBRANCH   6   8
ENDBRANCH   5   7
ENDBRANCH   3   5
ENDBRANCH   2   4
ENDBRANCH   1   2
BRANCH   1  13
ATOM     13  C   LIG    1        0.354   0.737  -2.673  0.00  0.00    +0.000 C 
BRANCH  13  14
ATOM     14  C   LIG    1       -0.159   1.446  -3.928  0.00  0.00    +0.000 C 
BRANCH  14  15
ATOM     15  C   LIG    1        0.413   0.762  -5.171  0.00  0.00    +0.001 C 
BRANCH  15  16
ATOM     16  C   LIG    1       -0.100   1.471  -6.426  0.00  0.00    +0.011 C 
BRANCH  16  17
ATOM     17  C   LIG    1        0.473   0.787  -7.668  0.00  0.00    +0.120 C 
BRANCH  17  18
ATOM     18  C   LIG    1       -0.033   1.485  -8.904  0.00  0.00    +0.307 C 
ATOM     19  O   LIG    1       -0.775   2.433  -8.802  0.00  0.00    -0.251 OA
BRANCH  18  20
ATOM     20  O   LIG    1        0.341   1.054 -10.119  0.00  0.00    -0.462 OA
BRANCH  20  21
ATOM     21  C   LIG    1       -0.184   1.775 -11.265  0.00  0.00    +0.266 C 
BRANCH  21  22
ATOM     22  C   LIG    1        0.348   1.143 -12.553  0.00  0.00    +0.181 C 
ATOM     23  C   LIG    1        0.005   1.829 -13.877  0.00  0.00    +0.195 C 
ATOM     24  O   LIG    1       -0.603   0.601 -13.471  0.00  0.00    -0.368 OA
ENDBRANCH  21  22
ENDBRANCH  20  21
ENDBRANCH  18  20
ENDBRANCH  17  18
ENDBRANCH  16  17
ENDBRANCH  15  16
ENDBRANCH  14  15
ENDBRANCH  13  14
ENDBRANCH   1  13
TORSDOF 17
