REMARK  Name = ZINC36701290
REMARK                            x       y       z     vdW  Elec       q    Type
REMARK                         _______ _______ _______ _____ _____    ______ ____
ROOT
ATOM      1  C   LIG    1        0.022  -4.285  -0.029  0.00  0.00    +0.248 C 
ATOM      2  N   LIG    1       -0.494  -4.984  -1.059  0.00  0.00    -0.281 N 
ATOM      3  H   LIG    1       -1.032  -4.534  -1.730  0.00  0.00    +0.155 HD
ATOM      4  O   LIG    1        0.614  -4.862   0.862  0.00  0.00    -0.270 OA
ENDROOT
BRANCH   1   9
ATOM      5  C   LIG    1       -0.599   1.446   0.122  0.00  0.00    +0.045 C 
ATOM      6  C   LIG    1       -0.434  -0.051   0.086  0.00  0.00    -0.035 A 
ATOM      7  C   LIG    1       -0.959  -0.777  -0.965  0.00  0.00    +0.005 A 
ATOM      8  C   LIG    1       -0.812  -2.150  -1.006  0.00  0.00    +0.013 A 
ATOM      9  C   LIG    1       -0.132  -2.815   0.018  0.00  0.00    +0.038 A 
ATOM     10  C   LIG    1        0.400  -2.091   1.082  0.00  0.00    +0.030 A 
ATOM     11  C   LIG    1        0.254  -0.703   1.115  0.00  0.00    +0.029 A 
BRANCH  11  12
ATOM     12  C   LIG    1        0.802   0.051   2.202  0.00  0.00    -0.059 C 
ATOM     13  C   LIG    1        1.252   0.669   3.093  0.00  0.00    -0.040 C 
BRANCH  13  14
ATOM     14  C   LIG    1        1.800   1.423   4.180  0.00  0.00    +0.136 A 
ATOM     15  C   LIG    1        1.726   2.795   4.357  0.00  0.00    +0.150 A 
ATOM     16  N   LIG    1        2.356   3.103   5.484  0.00  0.00    -0.233 NA
ATOM     17  C   LIG    1        2.832   1.997   6.045  0.00  0.00    +0.155 A 
ATOM     18  C   LIG    1        3.563   1.772   7.226  0.00  0.00    +0.050 A 
ATOM     19  C   LIG    1        3.910   0.497   7.559  0.00  0.00    +0.025 A 
ATOM     20  C   LIG    1        3.553  -0.571   6.728  0.00  0.00    +0.133 A 
ATOM     21  N   LIG    1        2.877  -0.366   5.628  0.00  0.00    -0.172 NA
ATOM     22  N   LIG    1        2.496   0.926   5.255  0.00  0.00    -0.205 N 
ENDBRANCH  13  14
ENDBRANCH  11  12
ENDBRANCH   1   9
BRANCH   2  23
ATOM     23  C   LIG    1       -0.254  -6.358  -1.161  0.00  0.00    +0.034 A 
ATOM     24  C   LIG    1       -0.180  -7.139  -0.015  0.00  0.00    +0.023 A 
ATOM     25  C   LIG    1        0.057  -8.495  -0.119  0.00  0.00    +0.004 A 
ATOM     26  C   LIG    1        0.221  -9.076  -1.363  0.00  0.00    -0.052 A 
ATOM     27  C   LIG    1        0.148  -8.302  -2.506  0.00  0.00    +0.058 A 
ATOM     28  C   LIG    1       -0.095  -6.946  -2.409  0.00  0.00    +0.036 A 
BRANCH  27  29
ATOM     29  C   LIG    1        0.328  -8.940  -3.860  0.00  0.00    +0.418 C 
ATOM     30  F   LIG    1       -0.577  -9.997  -4.002  0.00  0.00    -0.166 F 
ATOM     31  F   LIG    1        1.635  -9.426  -3.977  0.00  0.00    -0.166 F 
ATOM     32  F   LIG    1        0.094  -7.988  -4.858  0.00  0.00    -0.166 F 
ENDBRANCH  27  29
BRANCH  26  33
ATOM     33  C   LIG    1        0.480 -10.557  -1.473  0.00  0.00    -0.042 C 
BRANCH  33  34
ATOM     34  N   LIG    1        1.034 -11.053  -0.206  0.00  0.00    +0.384 N 
ATOM     35  H   LIG    1        0.426 -10.786   0.554  0.00  0.00    -0.081 HD
ATOM     36  C   LIG    1        2.366 -10.471   0.006  0.00  0.00    -0.063 C 
ATOM     37  C   LIG    1        2.936 -10.972   1.334  0.00  0.00    +0.065 C 
ATOM     38  N   LIG    1        3.022 -12.439   1.305  0.00  0.00    -0.309 NA
ATOM     39  C   LIG    1        3.619 -12.957   2.544  0.00  0.00    +0.104 C 
ATOM     40  C   LIG    1        1.699 -13.035   1.069  0.00  0.00    +0.065 C 
ATOM     41  C   LIG    1        1.139 -12.517  -0.258  0.00  0.00    -0.063 C 
ENDBRANCH  33  34
ENDBRANCH  26  33
ENDBRANCH   2  23
TORSDOF 7
