REMARK  Name = ZINC29560057
REMARK                            x       y       z     vdW  Elec       q    Type
REMARK                         _______ _______ _______ _____ _____    ______ ____
ROOT
ATOM      1  C   LIG    1       -0.017   1.379   0.010  0.00  0.00    +0.004 A 
ATOM      2  C   LIG    1        1.166   2.093   0.002  0.00  0.00    +0.012 A 
ATOM      3  C   LIG    1        2.380   1.415  -0.019  0.00  0.00    +0.020 A 
ATOM      4  C   LIG    1        2.401   0.015  -0.009  0.00  0.00    +0.169 A 
ATOM      5  O   LIG    1        3.599  -0.625   0.019  0.00  0.00    -0.483 OA
ATOM      6  C   LIG    1        4.689  -0.009  -0.667  0.00  0.00    +0.261 C 
ATOM      7  C   LIG    1        4.773   1.456  -0.326  0.00  0.00    -0.018 C 
ATOM      8  C   LIG    1        1.208  -0.691  -0.006  0.00  0.00    +0.163 A 
ATOM      9  C   LIG    1        3.670   2.138  -0.033  0.00  0.00    +0.015 C 
ATOM     10  C   LIG    1        0.002  -0.004   0.002  0.00  0.00    +0.049 A 
ENDROOT
BRANCH   7  11
ATOM     11  C   LIG    1        6.110   2.150  -0.318  0.00  0.00    +0.118 C 
BRANCH  11  12
ATOM     12  N   LIG    1        6.756   1.952   0.987  0.00  0.00    -0.294 NA
ATOM     13  C   LIG    1        6.008   2.635   2.054  0.00  0.00    +0.113 C 
ATOM     14  C   LIG    1        6.680   2.354   3.400  0.00  0.00    +0.175 C 
ATOM     15  O   LIG    1        8.045   2.775   3.343  0.00  0.00    -0.377 OA
ATOM     16  C   LIG    1        8.803   2.129   2.316  0.00  0.00    +0.175 C 
ATOM     17  C   LIG    1        8.153   2.408   0.958  0.00  0.00    +0.113 C 
ENDBRANCH  11  12
ENDBRANCH   7  11
BRANCH   8  18
ATOM     18  O   LIG    1        1.218  -2.051  -0.011  0.00  0.00    -0.486 OA
BRANCH  18  19
ATOM     19  C   LIG    1       -0.050  -2.710  -0.007  0.00  0.00    +0.258 C 
BRANCH  19  20
ATOM     20  C   LIG    1        0.163  -4.225  -0.014  0.00  0.00    +0.139 C 
ATOM     21  C   LIG    1       -1.190  -4.930  -0.133  0.00  0.00    -0.047 C 
ATOM     22  N   LIG    1       -0.988  -6.385  -0.081  0.00  0.00    +0.382 N 
ATOM     23  H   LIG    1       -0.391  -6.669  -0.843  0.00  0.00    -0.086 HD
ATOM     24  H   LIG    1       -1.879  -6.851  -0.160  0.00  0.00    -0.086 HD
ATOM     25  C   LIG    1       -0.357  -6.745   1.196  0.00  0.00    -0.054 C 
ATOM     26  C   LIG    1        0.994  -6.036   1.313  0.00  0.00    +0.141 C 
ATOM     27  O   LIG    1        0.798  -4.623   1.204  0.00  0.00    -0.377 OA
ENDBRANCH  19  20
ENDBRANCH  18  19
ENDBRANCH   8  18
TORSDOF 5
