REMARK  Name = ZINC28478250
REMARK                            x       y       z     vdW  Elec       q    Type
REMARK                         _______ _______ _______ _____ _____    ______ ____
ROOT
ATOM      1  C   LIG    1        1.294   0.169  -0.579  0.00  0.00    +0.010 C 
ATOM      2  C   LIG    1        0.628   0.093  -1.768  0.00  0.00    +0.007 C 
ATOM      3  C   LIG    1       -0.809   0.492  -1.988  0.00  0.00    +0.009 C 
ATOM      4  C   LIG    1        1.513  -0.417  -2.733  0.00  0.00    +0.059 C 
ATOM      5  C   LIG    1        1.208  -0.591  -4.083  0.00  0.00    +0.038 C 
ATOM      6  C   LIG    1        2.107  -1.003  -5.051  0.00  0.00    +0.062 C 
ATOM      7  C   LIG    1        1.748  -1.220  -6.412  0.00  0.00    +0.032 C 
ATOM      8  C   LIG    1        2.891  -1.613  -7.088  0.00  0.00    +0.011 C 
ATOM      9  C   LIG    1        2.966  -1.944  -8.556  0.00  0.00    +0.010 C 
ATOM     10  C   LIG    1        3.949  -1.643  -6.165  0.00  0.00    +0.059 C 
ATOM     11  C   LIG    1        5.256  -1.985  -6.501  0.00  0.00    +0.038 C 
ATOM     12  C   LIG    1        6.311  -2.020  -5.613  0.00  0.00    +0.059 C 
ATOM     13  N   LIG    1        6.279  -1.748  -4.326  0.00  0.00    -0.310 NA
ATOM     14  H   LIG    1        5.595  -2.364  -3.886  0.00  0.00    +0.122 HD
ATOM     15  C   LIG    1        7.446  -1.907  -3.700  0.00  0.00    +0.063 C 
ATOM     16  C   LIG    1        8.473  -2.388  -4.679  0.00  0.00    +0.011 C 
ATOM     17  C   LIG    1        7.636  -1.661  -2.364  0.00  0.00    +0.035 C 
ATOM     18  C   LIG    1        6.626  -1.176  -1.503  0.00  0.00    +0.093 C 
ATOM     19  N   LIG    1        5.384  -0.698  -1.489  0.00  0.00    -0.302 NA
ATOM     20  H   LIG    1        4.895  -0.464  -2.291  0.00  0.00    +0.123 HD
ATOM     21  C   LIG    1        4.963  -0.525  -0.231  0.00  0.00    +0.082 C 
ATOM     22  C   LIG    1        6.040  -0.742   0.654  0.00  0.00    -0.048 C 
ATOM     23  C   LIG    1        6.024  -0.570   2.151  0.00  0.00    +0.041 C 
ATOM     24  C   LIG    1        3.651  -0.179   0.133  0.00  0.00    +0.042 C 
ATOM     25  C   LIG    1        7.120  -1.146  -0.119  0.00  0.00    +0.013 C 
ATOM     26  C   LIG    1        8.527  -1.537  -0.120  0.00  0.00    +0.161 C 
ATOM     27  O   LIG    1        9.260  -1.611   0.844  0.00  0.00    -0.292 OA
ATOM     28  C   LIG    1        8.896  -1.832  -1.558  0.00  0.00    +0.086 C 
ATOM     29  C   LIG    1        7.721  -2.385  -6.010  0.00  0.00    +0.008 C 
ATOM     30  C   LIG    1        8.306  -1.336  -6.957  0.00  0.00    +0.009 C 
ATOM     31  N   LIG    1        3.450  -1.278  -4.933  0.00  0.00    -0.310 NA
ATOM     32  H   LIG    1        3.975  -1.221  -4.122  0.00  0.00    +0.122 HD
ATOM     33  N   LIG    1        2.699  -0.697  -2.097  0.00  0.00    -0.310 NA
ATOM     34  H   LIG    1        3.433  -1.191  -2.486  0.00  0.00    +0.122 HD
ATOM     35  C   LIG    1        2.620  -0.232  -0.799  0.00  0.00    +0.059 C 
ENDROOT
BRANCH   1  37
ATOM     36  C   LIG    1        0.864   2.149   0.849  0.00  0.00    +0.004 C 
ATOM     37  C   LIG    1        0.705   0.632   0.728  0.00  0.00    +0.002 C 
ENDBRANCH   1  37
BRANCH   7  38
ATOM     38  C   LIG    1        0.410  -1.062  -7.012  0.00  0.00    -0.029 C 
ATOM     39  C   LIG    1       -0.646  -1.632  -6.441  0.00  0.00    +0.004 C 
ENDBRANCH   7  38
BRANCH  16  40
ATOM     40  C   LIG    1        8.939  -3.805  -4.337  0.00  0.00    +0.016 C 
BRANCH  40  41
ATOM     41  C   LIG    1       10.081  -4.207  -5.272  0.00  0.00    +0.121 C 
BRANCH  41  42
ATOM     42  C   LIG    1       10.596  -5.568  -4.880  0.00  0.00    +0.307 C 
ATOM     43  O   LIG    1       10.100  -6.156  -3.949  0.00  0.00    -0.251 OA
BRANCH  42  44
ATOM     44  O   LIG    1       11.606  -6.126  -5.566  0.00  0.00    -0.468 OA
ATOM     45  C   LIG    1       12.043  -7.418  -5.140  0.00  0.00    +0.280 C 
ENDBRANCH  42  44
ENDBRANCH  41  42
ENDBRANCH  40  41
ENDBRANCH  16  40
TORSDOF 6
