REMARK  Name = ZINC41391477
REMARK                            x       y       z     vdW  Elec       q    Type
REMARK                         _______ _______ _______ _____ _____    ______ ____
ROOT
ATOM      1  C   LIG    1       -0.017   1.377   0.010  0.00  0.00    +0.003 A 
ATOM      2  C   LIG    1        1.171   2.086   0.002  0.00  0.00    +0.005 A 
ATOM      3  C   LIG    1        2.378   1.413  -0.013  0.00  0.00    -0.025 A 
ATOM      4  C   LIG    1        2.399   0.030  -0.021  0.00  0.00    +0.043 A 
ATOM      5  C   LIG    1        1.211  -0.679  -0.013  0.00  0.00    +0.124 A 
ATOM      6  F   LIG    1        1.230  -2.030  -0.022  0.00  0.00    -0.205 F 
ATOM      7  C   LIG    1        0.002  -0.004   0.002  0.00  0.00    +0.038 A 
ENDROOT
BRANCH   3   8
ATOM      8  C   LIG    1        3.672   2.186  -0.021  0.00  0.00    +0.158 C 
BRANCH   8   9
ATOM      9  N   LIG    1        4.104   2.429   1.357  0.00  0.00    -0.332 N 
ATOM     10  C   LIG    1        3.774   3.507   2.134  0.00  0.00    +0.107 A 
ATOM     11  C   LIG    1        4.381   3.331   3.323  0.00  0.00    +0.130 A 
ATOM     12  N   LIG    1        5.063   2.177   3.274  0.00  0.00    -0.244 NA
ATOM     13  C   LIG    1        4.898   1.629   2.101  0.00  0.00    +0.199 A 
ENDBRANCH   8   9
ENDBRANCH   3   8
TORSDOF 2
