REMARK  Name = ZINC00020439
REMARK                            x       y       z     vdW  Elec       q    Type
REMARK                         _______ _______ _______ _____ _____    ______ ____
ROOT
ATOM      1  C   LIG    1       -0.017   1.383   0.010  0.00  0.00    +0.004 A 
ATOM      2  C   LIG    1        1.161   2.099   0.002  0.00  0.00    +0.015 A 
ATOM      3  C   LIG    1        2.378   1.422  -0.013  0.00  0.00    +0.068 A 
ATOM      4  C   LIG    1        2.401   0.017  -0.021  0.00  0.00    +0.095 A 
ATOM      5  N   LIG    1        3.627  -0.623  -0.036  0.00  0.00    -0.336 N 
ATOM      6  H   LIG    1        3.665  -1.593  -0.042  0.00  0.00    +0.167 HD
ATOM      7  C   LIG    1        4.778   0.099  -0.044  0.00  0.00    +0.143 A 
ATOM      8  N   LIG    1        4.798   1.414  -0.036  0.00  0.00    -0.191 NA
ATOM      9  C   LIG    1        1.202  -0.692  -0.013  0.00  0.00    +0.141 A 
ATOM     10  C   LIG    1        3.668   2.137  -0.022  0.00  0.00    +0.281 A 
ATOM     11  O   LIG    1        3.706   3.356  -0.016  0.00  0.00    -0.265 OA
ATOM     12  C   LIG    1        0.002  -0.004   0.002  0.00  0.00    +0.047 A 
ENDROOT
BRANCH   7  13
ATOM     13  C   LIG    1        6.065  -0.626  -0.060  0.00  0.00    +0.018 A 
ATOM     14  C   LIG    1        6.084  -2.022  -0.073  0.00  0.00    +0.014 A 
ATOM     15  C   LIG    1        7.289  -2.692  -0.088  0.00  0.00    +0.033 A 
ATOM     16  C   LIG    1        8.478  -1.985  -0.090  0.00  0.00    +0.122 A 
ATOM     17  C   LIG    1        8.467  -0.601  -0.076  0.00  0.00    +0.033 A 
ATOM     18  C   LIG    1        7.269   0.082  -0.068  0.00  0.00    +0.014 A 
BRANCH  16  19
ATOM     19  N   LIG    1        9.768  -2.711  -0.105  0.00  0.00    +0.006 N 
ATOM     20  O   LIG    1        9.781  -3.920  -0.116  0.00  0.00    -0.130 OA
BRANCH  19  21
ATOM     21  O   LIG    1       10.808  -2.095  -0.106  0.00  0.00    -0.396 OA
ATOM     22  H   LIG    1       10.798  -1.158  -0.098  0.00  0.00    +0.329 HD
ENDBRANCH  19  21
ENDBRANCH  16  19
ENDBRANCH   7  13
BRANCH   9  23
ATOM     23  O   LIG    1        1.211  -2.052  -0.021  0.00  0.00    -0.505 OA
ATOM     24  H   LIG    1        2.026  -2.515  -0.031  0.00  0.00    +0.292 HD
ENDBRANCH   9  23
TORSDOF 4
