REMARK  Name = ZINC00001614
REMARK                            x       y       z     vdW  Elec       q    Type
REMARK                         _______ _______ _______ _____ _____    ______ ____
ROOT
ATOM      1  C   LIG    1       -0.018   1.465   0.010  0.00  0.00    -0.096 C 
ATOM      2  N   LIG    1        0.002  -0.004   0.002  0.00  0.00    +0.380 N 
ATOM      3  H   LIG    1       -0.941  -0.345   0.112  0.00  0.00    -0.082 HD
ATOM      4  C   LIG    1        0.528  -0.467  -1.285  0.00  0.00    -0.078 C 
ATOM      5  C   LIG    1        0.558  -1.999  -1.307  0.00  0.00    -0.007 C 
ATOM      6  C   LIG    1        1.491  -2.463  -0.178  0.00  0.00    -0.004 C 
ATOM      7  C   LIG    1        1.611  -3.981  -0.191  0.00  0.00    +0.012 C 
ATOM      8  C   LIG    1        0.222  -4.601  -0.009  0.00  0.00    +0.001 C 
ATOM      9  C   LIG    1       -0.381  -4.133   1.317  0.00  0.00    +0.000 C 
ATOM     10  C   LIG    1       -0.494  -2.606   1.323  0.00  0.00    +0.003 C 
ATOM     11  C   LIG    1        2.833  -1.810  -0.385  0.00  0.00    -0.034 A 
ATOM     12  C   LIG    1        3.755  -2.446  -1.201  0.00  0.00    +0.050 A 
ATOM     13  C   LIG    1        4.996  -1.875  -1.433  0.00  0.00    +0.120 A 
ATOM     14  C   LIG    1        5.311  -0.659  -0.843  0.00  0.00    +0.046 A 
ATOM     15  C   LIG    1        4.392  -0.034  -0.028  0.00  0.00    +0.007 A 
ATOM     16  C   LIG    1        3.149  -0.608   0.211  0.00  0.00    -0.045 A 
ATOM     17  C   LIG    1        2.205   0.125   1.125  0.00  0.00    +0.020 C 
ATOM     18  C   LIG    1        0.898  -1.997   1.155  0.00  0.00    -0.014 C 
ATOM     19  C   LIG    1        0.809  -0.473   1.119  0.00  0.00    -0.061 C 
ENDROOT
BRANCH  13  20
ATOM     20  O   LIG    1        5.899  -2.502  -2.232  0.00  0.00    -0.495 OA
ATOM     21  C   LIG    1        7.157  -1.851  -2.424  0.00  0.00    +0.277 C 
ENDBRANCH  13  20
TORSDOF 1
