REMARK  Name = ZINC29132642
REMARK                            x       y       z     vdW  Elec       q    Type
REMARK                         _______ _______ _______ _____ _____    ______ ____
ROOT
ATOM      1  C   LIG    1        3.533   1.900  -0.021  0.00  0.00    +0.210 C 
ENDROOT
BRANCH   1   2
ATOM      2  C   LIG    1        4.755   0.979  -0.037  0.00  0.00    -0.041 C 
BRANCH   2   3
ATOM      3  N   LIG    1        4.782   0.223  -1.296  0.00  0.00    +0.384 N 
ATOM      4  H   LIG    1        3.858  -0.369  -1.372  0.00  0.00    -0.085 HD
ATOM      5  H   LIG    1        4.831   0.935  -2.134  0.00  0.00    -0.085 HD
BRANCH   3   6
ATOM      6  C   LIG    1        5.944  -0.673  -1.347  0.00  0.00    -0.047 C 
BRANCH   6  10
ATOM      7  C   LIG    1        5.928  -2.819  -5.041  0.00  0.00    +0.000 A 
ATOM      8  C   LIG    1        6.579  -1.603  -4.951  0.00  0.00    +0.000 A 
ATOM      9  C   LIG    1        6.584  -0.908  -3.756  0.00  0.00    +0.002 A 
ATOM     10  C   LIG    1        5.938  -1.430  -2.651  0.00  0.00    -0.064 A 
ATOM     11  C   LIG    1        5.292  -2.649  -2.739  0.00  0.00    +0.002 A 
ATOM     12  C   LIG    1        5.283  -3.341  -3.936  0.00  0.00    +0.000 A 
ENDBRANCH   6  10
ENDBRANCH   3   6
ENDBRANCH   2   3
ENDBRANCH   1   2
BRANCH   1  13
ATOM     13  O   LIG    1        2.341   1.110  -0.014  0.00  0.00    -0.494 OA
BRANCH  13  14
ATOM     14  C   LIG    1        1.158   1.779   0.001  0.00  0.00    +0.121 A 
ATOM     15  C   LIG    1        1.156   3.177   0.007  0.00  0.00    +0.046 A 
ATOM     16  C   LIG    1       -0.012   3.874   0.022  0.00  0.00    +0.012 A 
ATOM     17  C   LIG    1       -1.236   3.183   0.030  0.00  0.00    -0.018 A 
ATOM     18  C   LIG    1       -2.461   3.871   0.045  0.00  0.00    +0.008 A 
ATOM     19  C   LIG    1       -3.628   3.171   0.054  0.00  0.00    +0.001 A 
ATOM     20  C   LIG    1       -3.628   1.777   0.047  0.00  0.00    +0.001 A 
ATOM     21  C   LIG    1       -2.461   1.076   0.032  0.00  0.00    +0.008 A 
ATOM     22  C   LIG    1       -1.236   1.766   0.018  0.00  0.00    -0.014 A 
ATOM     23  C   LIG    1       -0.013   1.076   0.008  0.00  0.00    +0.054 A 
ENDBRANCH  13  14
ENDBRANCH   1  13
TORSDOF 6
