REMARK  Name = ZINC22448889
REMARK                            x       y       z     vdW  Elec       q    Type
REMARK                         _______ _______ _______ _____ _____    ______ ____
ROOT
ATOM      1  C   LIG    1       -0.274   1.495  -0.125  0.00  0.00    +0.056 C 
ATOM      2  C   LIG    1        0.002  -0.004   0.002  0.00  0.00    +0.186 C 
ATOM      3  C   LIG    1       -1.304  -0.742   0.141  0.00  0.00    -0.004 A 
ATOM      4  C   LIG    1       -2.090  -0.923  -0.988  0.00  0.00    +0.015 A 
ATOM      5  C   LIG    1       -3.294  -1.589  -0.900  0.00  0.00    +0.008 A 
ATOM      6  C   LIG    1       -3.723  -2.082   0.324  0.00  0.00    +0.125 A 
ATOM      7  C   LIG    1       -2.937  -1.903   1.451  0.00  0.00    +0.050 A 
ATOM      8  C   LIG    1       -1.727  -1.235   1.358  0.00  0.00    -0.036 A 
ATOM      9  C   LIG    1       -0.893  -1.071   2.603  0.00  0.00    +0.063 C 
ATOM     10  C   LIG    1        0.156   0.020   2.383  0.00  0.00    +0.166 C 
ATOM     11  O   LIG    1        0.826  -0.238   1.144  0.00  0.00    -0.360 OA
ENDROOT
BRANCH   2  12
ATOM     12  C   LIG    1        0.726  -0.494  -1.254  0.00  0.00    +0.422 C 
ATOM     13  F   LIG    1       -0.006  -0.126  -2.388  0.00  0.00    -0.167 F 
ATOM     14  F   LIG    1        0.847  -1.887  -1.209  0.00  0.00    -0.167 F 
ATOM     15  F   LIG    1        1.999   0.083  -1.313  0.00  0.00    -0.167 F 
ENDBRANCH   2  12
BRANCH   6  16
ATOM     16  O   LIG    1       -4.910  -2.737   0.418  0.00  0.00    -0.495 OA
ATOM     17  C   LIG    1       -5.287  -3.216   1.710  0.00  0.00    +0.277 C 
ENDBRANCH   6  16
BRANCH   5  18
ATOM     18  C   LIG    1       -4.142  -1.782  -2.131  0.00  0.00    +0.120 C 
BRANCH  18  19
ATOM     19  N   LIG    1       -4.040  -3.176  -2.583  0.00  0.00    -0.310 NA
ATOM     20  H   LIG    1       -3.078  -3.433  -2.746  0.00  0.00    +0.122 HD
BRANCH  19  21
ATOM     21  C   LIG    1       -4.856  -3.401  -3.784  0.00  0.00    +0.044 C 
ATOM     22  C   LIG    1       -4.053  -3.010  -5.028  0.00  0.00    +0.015 C 
ATOM     23  C   LIG    1       -2.826  -3.919  -5.138  0.00  0.00    -0.018 C 
ATOM     24  C   LIG    1       -3.281  -5.379  -5.177  0.00  0.00    -0.082 C 
ATOM     25  N   LIG    1       -4.020  -5.698  -3.949  0.00  0.00    +0.385 N 
ATOM     26  H   LIG    1       -3.437  -5.508  -3.148  0.00  0.00    -0.085 HD
ATOM     27  H   LIG    1       -4.272  -6.675  -3.954  0.00  0.00    -0.085 HD
ATOM     28  C   LIG    1       -5.237  -4.880  -3.872  0.00  0.00    -0.024 C 
BRANCH  28  29
ATOM     29  C   LIG    1       -6.028  -5.268  -2.650  0.00  0.00    -0.060 A 
ATOM     30  C   LIG    1       -5.375  -5.538  -1.461  0.00  0.00    +0.002 A 
ATOM     31  C   LIG    1       -6.101  -5.894  -0.340  0.00  0.00    +0.000 A 
ATOM     32  C   LIG    1       -7.479  -5.980  -0.407  0.00  0.00    +0.000 A 
ATOM     33  C   LIG    1       -8.132  -5.710  -1.595  0.00  0.00    +0.000 A 
ATOM     34  C   LIG    1       -7.406  -5.350  -2.716  0.00  0.00    +0.002 A 
ENDBRANCH  28  29
ENDBRANCH  19  21
ENDBRANCH  18  19
ENDBRANCH   5  18
TORSDOF 6
