REMARK  Name = ZINC40897376
REMARK                            x       y       z     vdW  Elec       q    Type
REMARK                         _______ _______ _______ _____ _____    ______ ____
ROOT
ATOM      1  N   LIG    1       -1.566  -5.957  -0.762  0.00  0.00    -0.269 N 
ATOM      2  H   LIG    1       -1.406  -5.208  -0.166  0.00  0.00    +0.156 HD
ATOM      3  C   LIG    1       -2.793  -6.511  -0.832  0.00  0.00    +0.308 C 
ATOM      4  N   LIG    1       -3.821  -5.962  -0.156  0.00  0.00    -0.269 N 
ATOM      5  H   LIG    1       -3.696  -5.126   0.321  0.00  0.00    +0.156 HD
ATOM      6  O   LIG    1       -2.972  -7.507  -1.506  0.00  0.00    -0.252 OA
ENDROOT
BRANCH   1  11
ATOM      7  C   LIG    1        0.242  -7.484  -3.580  0.00  0.00    +0.122 A 
ATOM      8  C   LIG    1        1.543  -7.459  -3.099  0.00  0.00    +0.046 A 
ATOM      9  C   LIG    1        1.809  -6.937  -1.847  0.00  0.00    +0.005 A 
ATOM     10  C   LIG    1        0.780  -6.438  -1.071  0.00  0.00    +0.023 A 
ATOM     11  C   LIG    1       -0.524  -6.461  -1.548  0.00  0.00    +0.038 A 
ATOM     12  C   LIG    1       -0.792  -6.979  -2.807  0.00  0.00    +0.069 A 
BRANCH   7  14
ATOM     13  C   LIG    1        1.096  -8.500  -5.553  0.00  0.00    +0.277 C 
ATOM     14  O   LIG    1       -0.018  -7.997  -4.811  0.00  0.00    -0.495 OA
ENDBRANCH   7  14
ENDBRANCH   1  11
BRANCH   4  15
ATOM     15  C   LIG    1       -5.069  -6.597  -0.141  0.00  0.00    +0.035 A 
ATOM     16  C   LIG    1       -6.233  -5.841  -0.101  0.00  0.00    +0.027 A 
ATOM     17  C   LIG    1       -7.463  -6.468  -0.087  0.00  0.00    +0.048 A 
ATOM     18  C   LIG    1       -7.536  -7.854  -0.112  0.00  0.00    +0.129 A 
ATOM     19  C   LIG    1       -6.374  -8.610  -0.151  0.00  0.00    +0.048 A 
ATOM     20  C   LIG    1       -5.143  -7.984  -0.171  0.00  0.00    +0.027 A 
BRANCH  18  21
ATOM     21  O   LIG    1       -8.748  -8.471  -0.097  0.00  0.00    -0.456 OA
BRANCH  21  22
ATOM     22  C   LIG    1       -9.163  -9.033   1.067  0.00  0.00    +0.131 A 
ATOM     23  C   LIG    1      -10.338  -9.779   1.121  0.00  0.00    +0.066 A 
ATOM     24  C   LIG    1      -10.725 -10.334   2.323  0.00  0.00    +0.114 A 
ATOM     25  N   LIG    1       -9.998 -10.166   3.411  0.00  0.00    -0.263 NA
ATOM     26  C   LIG    1       -8.879  -9.466   3.400  0.00  0.00    +0.114 A 
ATOM     27  C   LIG    1       -8.421  -8.883   2.236  0.00  0.00    +0.066 A 
ENDBRANCH  21  22
ENDBRANCH  18  21
ENDBRANCH   4  15
TORSDOF 5
