REMARK  Name = ZINC13763013
REMARK                            x       y       z     vdW  Elec       q    Type
REMARK                         _______ _______ _______ _____ _____    ______ ____
ROOT
ATOM      1  N   LIG    1       -0.698   1.558   1.213  0.00  0.00    -0.334 N 
ATOM      2  C   LIG    1       -1.709   0.883   1.867  0.00  0.00    +0.050 A 
ATOM      3  C   LIG    1       -2.349  -0.330   1.638  0.00  0.00    +0.030 A 
ATOM      4  C   LIG    1       -3.349  -0.751   2.487  0.00  0.00    +0.047 A 
ATOM      5  C   LIG    1       -3.728   0.028   3.577  0.00  0.00    +0.121 A 
ATOM      6  C   LIG    1       -3.105   1.235   3.821  0.00  0.00    +0.055 A 
ATOM      7  C   LIG    1       -2.089   1.672   2.967  0.00  0.00    +0.004 A 
ATOM      8  C   LIG    1       -1.238   2.863   2.926  0.00  0.00    +0.042 A 
ATOM      9  C   LIG    1       -0.428   2.732   1.863  0.00  0.00    +0.082 A 
ATOM     10  I   LIG    1        1.028   4.121   1.281  0.00  0.00    -0.024 I 
ENDROOT
BRANCH   5  11
ATOM     11  O   LIG    1       -4.717  -0.403   4.405  0.00  0.00    -0.495 OA
ATOM     12  C   LIG    1       -5.320  -1.661   4.096  0.00  0.00    +0.277 C 
ENDBRANCH   5  11
BRANCH   1  13
ATOM     13  C   LIG    1       -0.013   1.086   0.008  0.00  0.00    +0.141 C 
BRANCH  13  14
ATOM     14  C   LIG    1       -0.753   1.593  -1.232  0.00  0.00    +0.125 C 
BRANCH  14  16
ATOM     15  C   LIG    1       -0.543   1.446  -3.655  0.00  0.00    +0.213 C 
ATOM     16  N   LIG    1       -0.067   1.120  -2.437  0.00  0.00    -0.314 N 
ATOM     17  H   LIG    1        0.730   0.573  -2.358  0.00  0.00    +0.149 HD
ATOM     18  O   LIG    1       -1.540   2.130  -3.753  0.00  0.00    -0.276 OA
BRANCH  15  20
ATOM     19  C   LIG    1       -0.578   1.467  -6.134  0.00  0.00    +0.013 C 
ATOM     20  C   LIG    1        0.162   0.960  -4.895  0.00  0.00    +0.092 C 
ENDBRANCH  15  20
ENDBRANCH  14  16
ENDBRANCH  13  14
ENDBRANCH   1  13
TORSDOF 5
