REMARK  Name = ZINC35643689
REMARK                            x       y       z     vdW  Elec       q    Type
REMARK                         _______ _______ _______ _____ _____    ______ ____
ROOT
ATOM      1  C   LIG    1        3.458  -0.979   6.411  0.00  0.00    +0.007 C 
ENDROOT
BRANCH   1   7
ATOM      2  C   LIG    1        3.130  -3.651   0.959  0.00  0.00    +0.162 A 
ATOM      3  C   LIG    1        2.396  -3.330   2.088  0.00  0.00    +0.053 A 
ATOM      4  C   LIG    1        2.967  -2.578   3.101  0.00  0.00    -0.040 A 
ATOM      5  C   LIG    1        4.275  -2.144   2.986  0.00  0.00    -0.040 A 
ATOM      6  C   LIG    1        4.660  -1.348   4.215  0.00  0.00    +0.039 C 
ATOM      7  C   LIG    1        3.322  -0.971   4.887  0.00  0.00    -0.002 C 
ATOM      8  C   LIG    1        5.013  -2.463   1.859  0.00  0.00    +0.053 A 
ATOM      9  C   LIG    1        2.384  -2.102   4.415  0.00  0.00    +0.039 C 
ATOM     10  C   LIG    1        4.448  -3.219   0.846  0.00  0.00    +0.162 A 
BRANCH   2  12
ATOM     11  C   LIG    1        1.209  -4.797   0.150  0.00  0.00    +0.277 C 
ATOM     12  O   LIG    1        2.567  -4.389  -0.034  0.00  0.00    -0.491 OA
ENDBRANCH   2  12
BRANCH  10  13
ATOM     13  O   LIG    1        5.177  -3.535  -0.258  0.00  0.00    -0.491 OA
ATOM     14  C   LIG    1        6.524  -3.058  -0.304  0.00  0.00    +0.277 C 
ENDBRANCH  10  13
ENDBRANCH   1   7
BRANCH   1  15
ATOM     15  C   LIG    1        4.421   0.130   6.842  0.00  0.00    -0.014 C 
ATOM     16  C   LIG    1        3.807   1.495   6.522  0.00  0.00    -0.015 C 
ATOM     17  C   LIG    1        4.738   2.599   7.028  0.00  0.00    -0.078 C 
ATOM     18  N   LIG    1        4.915   2.468   8.479  0.00  0.00    +0.382 N 
ATOM     19  H   LIG    1        4.013   2.501   8.931  0.00  0.00    -0.081 HD
ATOM     20  C   LIG    1        5.569   1.191   8.788  0.00  0.00    -0.078 C 
ATOM     21  C   LIG    1        4.670   0.034   8.350  0.00  0.00    -0.015 C 
BRANCH  18  22
ATOM     22  C   LIG    1        5.746   3.575   8.971  0.00  0.00    -0.043 C 
BRANCH  22  23
ATOM     23  C   LIG    1        5.828   3.512  10.475  0.00  0.00    -0.064 A 
ATOM     24  C   LIG    1        4.889   4.173  11.246  0.00  0.00    +0.002 A 
ATOM     25  C   LIG    1        4.964   4.115  12.625  0.00  0.00    +0.000 A 
ATOM     26  C   LIG    1        5.976   3.397  13.233  0.00  0.00    +0.000 A 
ATOM     27  C   LIG    1        6.914   2.735  12.462  0.00  0.00    +0.000 A 
ATOM     28  C   LIG    1        6.837   2.789  11.083  0.00  0.00    +0.002 A 
ENDBRANCH  22  23
ENDBRANCH  18  22
ENDBRANCH   1  15
TORSDOF 6
