REMARK  Name = ZINC53270986
REMARK                            x       y       z     vdW  Elec       q    Type
REMARK                         _______ _______ _______ _____ _____    ______ ____
ROOT
ATOM      1  N   LIG    1        3.229  -1.870   2.059  0.00  0.00    -0.302 N 
ATOM      2  H   LIG    1        3.406  -2.823   2.078  0.00  0.00    +0.150 HD
ATOM      3  C   LIG    1        2.116  -1.379   2.640  0.00  0.00    +0.234 C 
ATOM      4  O   LIG    1        1.895  -0.187   2.616  0.00  0.00    -0.274 OA
ENDROOT
BRANCH   3   5
ATOM      5  C   LIG    1        1.147  -2.312   3.320  0.00  0.00    +0.162 C 
ATOM      6  C   LIG    1        0.573  -3.311   2.293  0.00  0.00    +0.033 C 
ATOM      7  C   LIG    1       -0.910  -3.444   2.729  0.00  0.00    +0.021 C 
ATOM      8  C   LIG    1       -1.224  -2.005   3.208  0.00  0.00    +0.108 C 
ATOM      9  N   LIG    1        0.017  -1.546   3.867  0.00  0.00    -0.289 N 
ATOM     10  C   LIG    1        0.101  -0.588   4.811  0.00  0.00    +0.233 C 
ATOM     11  O   LIG    1        1.179  -0.294   5.283  0.00  0.00    -0.274 OA
BRANCH  10  12
ATOM     12  C   LIG    1       -1.145   0.118   5.281  0.00  0.00    +0.142 C 
BRANCH  12  13
ATOM     13  N   LIG    1       -0.776   1.391   5.915  0.00  0.00    -0.320 NA
ATOM     14  H   LIG    1       -0.172   1.238   6.708  0.00  0.00    +0.119 HD
ATOM     15  H   LIG    1       -1.597   1.913   6.181  0.00  0.00    +0.119 HD
ENDBRANCH  12  13
BRANCH  12  16
ATOM     16  C   LIG    1       -1.878  -0.763   6.294  0.00  0.00    +0.063 C 
BRANCH  16  17
ATOM     17  C   LIG    1       -3.184  -0.113   6.672  0.00  0.00    -0.045 A 
ATOM     18  C   LIG    1       -3.235   0.766   7.738  0.00  0.00    +0.007 A 
ATOM     19  C   LIG    1       -4.431   1.363   8.086  0.00  0.00    +0.045 A 
ATOM     20  C   LIG    1       -5.582   1.080   7.365  0.00  0.00    +0.117 A 
ATOM     21  C   LIG    1       -5.529   0.199   6.295  0.00  0.00    +0.045 A 
ATOM     22  C   LIG    1       -4.329  -0.392   5.948  0.00  0.00    +0.007 A 
BRANCH  20  23
ATOM     23  O   LIG    1       -6.760   1.666   7.706  0.00  0.00    -0.507 OA
ATOM     24  H   LIG    1       -6.925   2.508   7.260  0.00  0.00    +0.292 HD
ENDBRANCH  20  23
ENDBRANCH  16  17
ENDBRANCH  12  16
ENDBRANCH  10  12
ENDBRANCH   3   5
BRANCH   1  25
ATOM     25  C   LIG    1        4.171  -0.963   1.399  0.00  0.00    +0.163 C 
BRANCH  25  26
ATOM     26  C   LIG    1        5.543  -1.588   1.383  0.00  0.00    +0.237 C 
ATOM     27  N   LIG    1        6.577  -0.931   0.823  0.00  0.00    -0.288 N 
ATOM     28  C   LIG    1        6.509   0.403   0.197  0.00  0.00    +0.109 C 
ATOM     29  C   LIG    1        7.954   0.956   0.285  0.00  0.00    +0.021 C 
ATOM     30  C   LIG    1        8.793  -0.326   0.040  0.00  0.00    +0.033 C 
ATOM     31  C   LIG    1        7.960  -1.421   0.739  0.00  0.00    +0.162 C 
ATOM     32  O   LIG    1        5.715  -2.683   1.875  0.00  0.00    -0.274 OA
BRANCH  31  33
ATOM     33  C   LIG    1        8.005  -2.691  -0.072  0.00  0.00    +0.231 C 
ATOM     34  N   LIG    1        9.181  -3.317  -0.278  0.00  0.00    -0.328 N 
ATOM     35  H   LIG    1        9.210  -4.134  -0.800  0.00  0.00    +0.145 HD
ATOM     36  H   LIG    1        9.998  -2.951   0.095  0.00  0.00    +0.145 HD
ATOM     37  O   LIG    1        6.984  -3.149  -0.539  0.00  0.00    -0.274 OA
ENDBRANCH  31  33
ENDBRANCH  25  26
BRANCH  25  38
ATOM     38  C   LIG    1        3.711  -0.707  -0.038  0.00  0.00    +0.067 C 
BRANCH  38  42
ATOM     39  C   LIG    1       -0.017   1.378   0.010  0.00  0.00    +0.000 A 
ATOM     40  C   LIG    1        1.171   2.086   0.002  0.00  0.00    +0.000 A 
ATOM     41  C   LIG    1        2.377   1.411  -0.013  0.00  0.00    +0.004 A 
ATOM     42  C   LIG    1        2.396   0.029  -0.020  0.00  0.00    -0.045 A 
ATOM     43  C   LIG    1        1.208  -0.679  -0.012  0.00  0.00    +0.004 A 
ATOM     44  C   LIG    1        0.002  -0.004   0.002  0.00  0.00    +0.000 A 
ENDBRANCH  38  42
ENDBRANCH  25  38
ENDBRANCH   1  25
TORSDOF 11
