REMARK  Name = ZINC64744203
REMARK                            x       y       z     vdW  Elec       q    Type
REMARK                         _______ _______ _______ _____ _____    ______ ____
ROOT
ATOM      1  C   LIG    1       -1.114  -8.441   0.041  0.00  0.00    +0.002 A 
ATOM      2  C   LIG    1       -0.075  -9.376   0.021  0.00  0.00    +0.037 A 
ATOM      3  C   LIG    1       -0.406 -10.725  -0.032  0.00  0.00    +0.085 A 
ATOM      4  C   LIG    1       -1.747 -11.093  -0.064  0.00  0.00    +0.151 A 
ATOM      5 CL   LIG    1       -2.172 -12.775  -0.131  0.00  0.00    -0.060 Cl
ATOM      6  N   LIG    1       -2.700 -10.182  -0.045  0.00  0.00    -0.241 NA
ATOM      7  C   LIG    1       -2.431  -8.893   0.012  0.00  0.00    +0.121 A 
ENDROOT
BRANCH   1  13
ATOM      8  C   LIG    1       -1.128  -2.083   0.273  0.00  0.00    +0.165 A 
ATOM      9  N   LIG    1       -0.095  -2.893   0.253  0.00  0.00    -0.225 NA
ATOM     10  C   LIG    1       -0.226  -4.235   0.203  0.00  0.00    +0.080 A 
ATOM     11  C   LIG    1        0.800  -5.211   0.178  0.00  0.00    +0.029 A 
ATOM     12  C   LIG    1        0.505  -6.535   0.126  0.00  0.00    +0.011 A 
ATOM     13  C   LIG    1       -0.818  -6.989   0.097  0.00  0.00    -0.015 A 
ATOM     14  C   LIG    1       -1.854  -6.056   0.122  0.00  0.00    +0.025 A 
ATOM     15  C   LIG    1       -1.555  -4.720   0.173  0.00  0.00    +0.041 A 
ATOM     16  S   LIG    1       -2.506  -3.220   0.226  0.00  0.00    -0.052 S 
BRANCH   8  19
ATOM     17  C   LIG    1       -0.005   1.496   0.405  0.00  0.00    +0.109 C 
ATOM     18  C   LIG    1        0.013  -0.010   0.351  0.00  0.00    +0.216 C 
ATOM     19  N   LIG    1       -1.145  -0.698   0.322  0.00  0.00    -0.265 N 
ATOM     20  H   LIG    1       -1.991  -0.224   0.336  0.00  0.00    +0.157 HD
ATOM     21  O   LIG    1        1.071  -0.603   0.334  0.00  0.00    -0.276 OA
ENDBRANCH   8  19
ENDBRANCH   1  13
BRANCH   3  22
ATOM     22  N   LIG    1        0.597 -11.699  -0.054  0.00  0.00    -0.213 N 
ATOM     23  H   LIG    1        0.358 -12.652   0.004  0.00  0.00    +0.174 HD
BRANCH  22  24
ATOM     24  S   LIG    1        2.186 -11.249  -0.176  0.00  0.00    +0.072 S 
ATOM     25  O   LIG    1        2.533 -10.642   1.062  0.00  0.00    -0.150 OA
ATOM     26  O   LIG    1        2.323 -10.575  -1.419  0.00  0.00    -0.150 OA
BRANCH  24  27
ATOM     27  C   LIG    1        3.138 -12.726  -0.296  0.00  0.00    +0.109 A 
ATOM     28  C   LIG    1        3.607 -13.341   0.849  0.00  0.00    +0.031 A 
ATOM     29  C   LIG    1        4.354 -14.501   0.756  0.00  0.00    +0.040 A 
ATOM     30  C   LIG    1        4.632 -15.046  -0.486  0.00  0.00    +0.124 A 
ATOM     31  F   LIG    1        5.362 -16.179  -0.578  0.00  0.00    -0.205 F 
ATOM     32  C   LIG    1        4.161 -14.430  -1.633  0.00  0.00    +0.040 A 
ATOM     33  C   LIG    1        3.410 -13.273  -1.537  0.00  0.00    +0.031 A 
ENDBRANCH  24  27
ENDBRANCH  22  24
ENDBRANCH   3  22
TORSDOF 5
