REMARK  Name = ZINC18115268
REMARK                            x       y       z     vdW  Elec       q    Type
REMARK                         _______ _______ _______ _____ _____    ______ ____
ROOT
ATOM      1  C   LIG    1        1.508   0.420  -4.834  0.00  0.00    +0.106 C 
ENDROOT
BRANCH   1   2
ATOM      2  S   LIG    1        1.696  -0.122  -3.113  0.00  0.00    -0.151 S 
BRANCH   2   3
ATOM      3  C   LIG    1       -0.008  -0.339  -2.532  0.00  0.00    +0.124 C 
BRANCH   3   6
ATOM      4  C   LIG    1       -0.036   1.501   0.001  0.00  0.00    +0.067 C 
ATOM      5  C   LIG    1       -0.008  -0.006  -0.003  0.00  0.00    +0.060 A 
ATOM      6  C   LIG    1        0.005  -0.794  -1.095  0.00  0.00    +0.048 A 
ATOM      7  N   LIG    1        0.031  -2.088  -0.650  0.00  0.00    -0.347 N 
ATOM      8  C   LIG    1        0.034  -2.045   0.700  0.00  0.00    +0.196 A 
ATOM      9  H   LIG    1        0.045  -2.886  -1.200  0.00  0.00    +0.167 HD
ATOM     10  N   LIG    1        0.015  -0.797   1.080  0.00  0.00    -0.241 NA
ENDBRANCH   3   6
ENDBRANCH   2   3
ENDBRANCH   1   2
BRANCH   1  11
ATOM     11  C   LIG    1        2.889   0.642  -5.453  0.00  0.00    +0.206 C 
BRANCH  11  12
ATOM     12  N   LIG    1        2.737   1.080  -6.843  0.00  0.00    -0.274 N 
ATOM     13  H   LIG    1        1.856   1.115  -7.246  0.00  0.00    +0.258 HD
BRANCH  12  14
ATOM     14  C   LIG    1        3.843   1.442  -7.574  0.00  0.00    +0.395 C 
ATOM     15  N   LIG    1        3.700   1.927  -8.774  0.00  0.00    -0.116 NA
ATOM     16  C   LIG    1        2.359   2.194  -9.301  0.00  0.00    +0.291 C 
BRANCH  14  17
ATOM     17  N   LIG    1        5.105   1.290  -7.038  0.00  0.00    -0.178 N 
ATOM     18  H   LIG    1        5.212   0.929  -6.144  0.00  0.00    +0.278 HD
BRANCH  17  19
ATOM     19  C   LIG    1        6.195   1.647  -7.759  0.00  0.00    +0.255 C 
ATOM     20  N   LIG    1        7.109   1.945  -8.364  0.00  0.00    -0.154 NA
ENDBRANCH  17  19
ENDBRANCH  14  17
ENDBRANCH  12  14
ENDBRANCH  11  12
ENDBRANCH   1  11
TORSDOF 8
