REMARK  Name = ZINC19366603
REMARK                            x       y       z     vdW  Elec       q    Type
REMARK                         _______ _______ _______ _____ _____    ______ ____
ROOT
ATOM      1  C   LIG    1        1.384   3.499   0.084  0.00  0.00    +0.117 C 
ENDROOT
BRANCH   1   2
ATOM      2  N   LIG    1        1.228   2.039   0.143  0.00  0.00    -0.295 NA
ATOM      3  C   LIG    1        1.930   1.481   1.308  0.00  0.00    +0.066 C 
ATOM      4  C   LIG    1        1.811  -0.044   1.289  0.00  0.00    -0.067 C 
ATOM      5  N   LIG    1        0.390  -0.422   1.303  0.00  0.00    +0.381 N 
ATOM      6  H   LIG    1       -0.082  -0.037   2.219  0.00  0.00    -0.086 HD
ATOM      7  H   LIG    1        0.302  -1.518   1.278  0.00  0.00    -0.086 HD
ATOM      8  C   LIG    1       -0.311   0.136   0.139  0.00  0.00    -0.067 C 
ATOM      9  C   LIG    1       -0.192   1.662   0.157  0.00  0.00    +0.066 C 
ENDBRANCH   1   2
BRANCH   1  16
ATOM     10  C   LIG    1        3.708   3.133  -0.773  0.00  0.00    +0.007 A 
ATOM     11  C   LIG    1        5.051   3.455  -0.814  0.00  0.00    +0.020 A 
ATOM     12  C   LIG    1        5.540   4.483  -0.028  0.00  0.00    +0.041 A 
ATOM     13 CL   LIG    1        7.229   4.884  -0.074  0.00  0.00    -0.084 Cl
ATOM     14  C   LIG    1        4.683   5.193   0.794  0.00  0.00    +0.020 A 
ATOM     15  C   LIG    1        3.338   4.874   0.830  0.00  0.00    +0.007 A 
ATOM     16  C   LIG    1        2.850   3.846   0.044  0.00  0.00    -0.026 A 
ENDBRANCH   1  16
BRANCH   1  17
ATOM     17  C   LIG    1        0.710   4.026  -1.156  0.00  0.00    -0.026 A 
ATOM     18  C   LIG    1        0.883   3.379  -2.365  0.00  0.00    +0.007 A 
ATOM     19  C   LIG    1        0.260   3.859  -3.502  0.00  0.00    +0.020 A 
ATOM     20  C   LIG    1       -0.528   4.994  -3.431  0.00  0.00    +0.041 A 
ATOM     21 CL   LIG    1       -1.306   5.601  -4.860  0.00  0.00    -0.084 Cl
ATOM     22  C   LIG    1       -0.697   5.644  -2.222  0.00  0.00    +0.020 A 
ATOM     23  C   LIG    1       -0.078   5.160  -1.085  0.00  0.00    +0.007 A 
ENDBRANCH   1  17
TORSDOF 3
