REMARK  Name = ZINC36294380
REMARK                            x       y       z     vdW  Elec       q    Type
REMARK                         _______ _______ _______ _____ _____    ______ ____
ROOT
ATOM      1  C   LIG    1       -0.017   1.389   0.010  0.00  0.00    +0.009 A 
ATOM      2  C   LIG    1        1.171   2.087   0.002  0.00  0.00    +0.005 A 
ATOM      3  C   LIG    1        2.388   1.416  -0.015  0.00  0.00    -0.037 A 
ATOM      4  C   LIG    1        2.412   0.038  -0.028  0.00  0.00    -0.043 A 
ATOM      5  C   LIG    1        3.696  -0.750  -0.063  0.00  0.00    +0.035 C 
ATOM      6  C   LIG    1        4.875   0.125   0.356  0.00  0.00    +0.006 C 
ATOM      7  C   LIG    1        4.840   1.414  -0.472  0.00  0.00    +0.013 C 
ATOM      8  C   LIG    1        1.222  -0.673  -0.016  0.00  0.00    +0.012 A 
ATOM      9  C   LIG    1        3.644   2.248  -0.015  0.00  0.00    +0.049 C 
ATOM     10  C   LIG    1        0.002  -0.004   0.002  0.00  0.00    -0.017 A 
ENDROOT
BRANCH   9  11
ATOM     11  C   LIG    1        3.467   3.416  -0.950  0.00  0.00    -0.037 A 
ATOM     12  C   LIG    1        3.201   3.214  -2.296  0.00  0.00    +0.024 A 
ATOM     13  C   LIG    1        3.044   4.310  -3.123  0.00  0.00    +0.111 A 
ATOM     14  N   LIG    1        3.145   5.535  -2.646  0.00  0.00    -0.263 NA
ATOM     15  C   LIG    1        3.397   5.765  -1.372  0.00  0.00    +0.111 A 
ATOM     16  C   LIG    1        3.559   4.718  -0.484  0.00  0.00    +0.024 A 
ENDBRANCH   9  11
BRANCH  10  17
ATOM     17  C   LIG    1       -1.269  -0.769   0.014  0.00  0.00    -0.014 A 
ATOM     18  C   LIG    1       -1.246  -2.162   0.012  0.00  0.00    +0.012 A 
ATOM     19  C   LIG    1       -2.428  -2.873   0.023  0.00  0.00    +0.050 A 
ATOM     20  C   LIG    1       -3.643  -2.203   0.037  0.00  0.00    +0.158 A 
ATOM     21  C   LIG    1       -3.672  -0.811   0.039  0.00  0.00    +0.159 A 
ATOM     22  C   LIG    1       -2.489  -0.095   0.033  0.00  0.00    +0.057 A 
BRANCH  20  23
ATOM     23  O   LIG    1       -4.806  -2.907   0.047  0.00  0.00    -0.503 OA
ATOM     24  H   LIG    1       -5.133  -3.112   0.934  0.00  0.00    +0.292 HD
ENDBRANCH  20  23
BRANCH  21  25
ATOM     25  O   LIG    1       -4.864  -0.156   0.052  0.00  0.00    -0.503 OA
ATOM     26  H   LIG    1       -5.199   0.032   0.939  0.00  0.00    +0.292 HD
ENDBRANCH  21  25
ENDBRANCH  10  17
TORSDOF 4
