REMARK  Name = ZINC66079908
REMARK                            x       y       z     vdW  Elec       q    Type
REMARK                         _______ _______ _______ _____ _____    ______ ____
ROOT
ATOM      1  C   LIG    1       -0.012   1.364   0.001  0.00  0.00    +0.003 A 
ATOM      2  C   LIG    1        1.203   2.062   0.004  0.00  0.00    +0.018 A 
ATOM      3  C   LIG    1        2.375   1.387   0.003  0.00  0.00    +0.095 A 
ATOM      4  N   LIG    1        2.396   0.024   0.000  0.00  0.00    -0.283 N 
ATOM      5  C   LIG    1        1.225  -0.682  -0.002  0.00  0.00    +0.054 A 
ATOM      6  C   LIG    1        1.237  -2.085  -0.004  0.00  0.00    -0.009 A 
ATOM      7  C   LIG    1        2.423  -2.758  -0.005  0.00  0.00    +0.027 A 
ATOM      8  C   LIG    1        3.628  -2.028  -0.004  0.00  0.00    +0.124 A 
ATOM      9  C   LIG    1        3.582  -0.617  -0.001  0.00  0.00    +0.270 A 
ATOM     10  O   LIG    1        4.619   0.024   0.001  0.00  0.00    -0.266 OA
ATOM     11  C   LIG    1       -0.003  -0.000  -0.002  0.00  0.00    +0.026 A 
ENDROOT
BRANCH   8  12
ATOM     12  C   LIG    1        4.874  -2.704  -0.006  0.00  0.00    +0.342 C 
ATOM     13  O   LIG    1        4.907  -3.929  -0.009  0.00  0.00    -0.245 OA
BRANCH  12  14
ATOM     14  O   LIG    1        5.918  -2.063  -0.005  0.00  0.00    -0.477 OA
ATOM     15  H   LIG    1        5.893  -1.127  -0.003  0.00  0.00    +0.295 HD
ENDBRANCH  12  14
ENDBRANCH   8  12
BRANCH   6  16
ATOM     16  C   LIG    1       -0.062  -2.849  -0.005  0.00  0.00    +0.121 C 
BRANCH  16  17
ATOM     17  N   LIG    1       -0.424  -3.199  -1.385  0.00  0.00    -0.295 NA
ATOM     18  C   LIG    1        0.544  -4.142  -1.960  0.00  0.00    +0.103 C 
ATOM     19  C   LIG    1        0.237  -4.340  -3.448  0.00  0.00    +0.120 C 
ATOM     20  N   LIG    1       -1.173  -4.735  -3.586  0.00  0.00    -0.327 N 
ATOM     21  C   LIG    1       -2.194  -3.913  -2.919  0.00  0.00    +0.120 C 
ATOM     22  C   LIG    1       -1.791  -3.732  -1.452  0.00  0.00    +0.103 C 
BRANCH  20  23
ATOM     23  C   LIG    1       -1.531  -5.857  -4.328  0.00  0.00    +0.030 A 
ATOM     24  C   LIG    1       -2.857  -6.279  -4.352  0.00  0.00    +0.024 A 
ATOM     25  C   LIG    1       -3.215  -7.388  -5.084  0.00  0.00    +0.020 A 
ATOM     26  C   LIG    1       -2.244  -8.091  -5.805  0.00  0.00    +0.052 A 
ATOM     27  C   LIG    1       -0.913  -7.665  -5.778  0.00  0.00    +0.020 A 
ATOM     28  C   LIG    1       -0.563  -6.551  -5.048  0.00  0.00    +0.024 A 
BRANCH  26  29
ATOM     29  C   LIG    1       -2.613  -9.246  -6.567  0.00  0.00    +0.099 C 
ATOM     30  N   LIG    1       -2.905 -10.162  -7.173  0.00  0.00    -0.191 NA
ENDBRANCH  26  29
ENDBRANCH  20  23
ENDBRANCH  16  17
ENDBRANCH   6  16
TORSDOF 6
