REMARK  Name = ZINC13860558
REMARK                            x       y       z     vdW  Elec       q    Type
REMARK                         _______ _______ _______ _____ _____    ______ ____
ROOT
ATOM      1  C   LIG    1       -3.307   1.042   1.103  0.00  0.00    -0.018 A 
ATOM      2  C   LIG    1       -2.665   1.314  -0.110  0.00  0.00    -0.002 A 
ATOM      3  C   LIG    1       -3.303   0.934  -1.294  0.00  0.00    +0.010 A 
ATOM      4  C   LIG    1       -4.526   0.300  -1.223  0.00  0.00    +0.050 A 
ATOM      5  N   LIG    1       -5.097   0.062  -0.058  0.00  0.00    -0.255 NA
ATOM      6  C   LIG    1       -4.532   0.409   1.083  0.00  0.00    +0.048 A 
ENDROOT
BRANCH   2   7
ATOM      7  C   LIG    1       -1.347   1.993  -0.138  0.00  0.00    +0.024 A 
ATOM      8  C   LIG    1       -0.175   1.242  -0.195  0.00  0.00    +0.015 A 
ATOM      9  C   LIG    1        1.049   1.877  -0.227  0.00  0.00    +0.039 A 
ATOM     10  C   LIG    1        1.117   3.262  -0.196  0.00  0.00    +0.127 A 
ATOM     11  F   LIG    1        2.320   3.877  -0.227  0.00  0.00    -0.205 F 
ATOM     12  C   LIG    1       -0.041   4.016  -0.132  0.00  0.00    +0.084 A 
ATOM     13  C   LIG    1       -1.276   3.389  -0.100  0.00  0.00    +0.127 A 
BRANCH  13  14
ATOM     14  O   LIG    1       -2.414   4.128  -0.038  0.00  0.00    -0.506 OA
ATOM     15  H   LIG    1       -2.777   4.364  -0.903  0.00  0.00    +0.292 HD
ENDBRANCH  13  14
ENDBRANCH   2   7
BRANCH   4  16
ATOM     16  C   LIG    1       -5.221  -0.120  -2.492  0.00  0.00    +0.032 C 
ATOM     17  C   LIG    1       -6.622   0.494  -2.534  0.00  0.00    +0.014 C 
ATOM     18  C   LIG    1       -5.332  -1.645  -2.531  0.00  0.00    +0.014 C 
ENDBRANCH   4  16
BRANCH   6  19
ATOM     19  C   LIG    1       -5.235   0.109   2.382  0.00  0.00    +0.032 C 
ATOM     20  C   LIG    1       -5.327  -1.406   2.574  0.00  0.00    +0.014 C 
ATOM     21  C   LIG    1       -6.643   0.707   2.350  0.00  0.00    +0.014 C 
ENDBRANCH   6  19
BRANCH   1  23
ATOM     22  C   LIG    1       -3.225   2.784   2.865  0.00  0.00    +0.009 C 
ATOM     23  C   LIG    1       -2.669   1.433   2.411  0.00  0.00    +0.034 C 
ENDBRANCH   1  23
BRANCH   3  24
ATOM     24  C   LIG    1       -2.661   1.208  -2.630  0.00  0.00    +0.144 C 
ATOM     25  C   LIG    1       -1.537   0.199  -2.873  0.00  0.00    +0.043 C 
BRANCH  24  26
ATOM     26  O   LIG    1       -2.122   2.532  -2.637  0.00  0.00    -0.387 OA
ATOM     27  H   LIG    1       -1.328   2.636  -2.095  0.00  0.00    +0.210 HD
ENDBRANCH  24  26
ENDBRANCH   3  24
TORSDOF 7
