REMARK  Name = ZINC36387185
REMARK                            x       y       z     vdW  Elec       q    Type
REMARK                         _______ _______ _______ _____ _____    ______ ____
ROOT
ATOM      1  C   LIG    1        0.718  -0.497  -1.257  0.00  0.00    +0.127 C 
ATOM      2  C   LIG    1        0.683  -2.035  -1.329  0.00  0.00    +0.155 C 
ATOM      3  N   LIG    1        2.106  -2.414  -1.300  0.00  0.00    -0.275 N 
ATOM      4  C   LIG    1        2.868  -1.262  -1.222  0.00  0.00    +0.160 A 
ATOM      5  C   LIG    1        4.329  -1.416  -1.183  0.00  0.00    +0.127 A 
ATOM      6  C   LIG    1        4.874  -2.688  -1.224  0.00  0.00    +0.167 A 
ATOM      7  N   LIG    1        4.024  -3.785  -1.303  0.00  0.00    -0.280 N 
ATOM      8  C   LIG    1        4.590  -5.135  -1.348  0.00  0.00    +0.155 C 
ATOM      9  N   LIG    1        6.201  -2.559  -1.176  0.00  0.00    -0.210 NA
ATOM     10  C   LIG    1        6.523  -1.282  -1.106  0.00  0.00    +0.143 A 
ATOM     11  N   LIG    1        5.384  -0.533  -1.108  0.00  0.00    -0.334 N 
ATOM     12  H   LIG    1        5.327   0.434  -1.065  0.00  0.00    +0.168 HD
ATOM     13  C   LIG    1        2.692  -3.625  -1.337  0.00  0.00    +0.332 A 
ATOM     14  O   LIG    1        1.986  -4.614  -1.405  0.00  0.00    -0.246 OA
ATOM     15  N   LIG    1        2.146  -0.169  -1.197  0.00  0.00    -0.260 NA
ENDROOT
BRANCH  10  16
ATOM     16  C   LIG    1        7.899  -0.749  -1.037  0.00  0.00    +0.038 A 
ATOM     17  C   LIG    1        8.114   0.629  -0.960  0.00  0.00    +0.033 A 
ATOM     18  C   LIG    1        9.402   1.121  -0.896  0.00  0.00    +0.043 A 
ATOM     19 CL   LIG    1        9.670   2.834  -0.800  0.00  0.00    -0.083 Cl
ATOM     20  C   LIG    1       10.480   0.253  -0.909  0.00  0.00    +0.041 A 
ATOM     21  C   LIG    1       10.275  -1.113  -0.985  0.00  0.00    +0.061 A 
ATOM     22 CL   LIG    1       11.634  -2.194  -1.000  0.00  0.00    -0.082 Cl
ATOM     23  C   LIG    1        8.991  -1.620  -1.043  0.00  0.00    +0.070 A 
ATOM     24 CL   LIG    1        8.734  -3.335  -1.131  0.00  0.00    -0.081 Cl
ENDBRANCH  10  16
BRANCH   1  26
ATOM     25  C   LIG    1       -0.019   1.526   0.010  0.00  0.00    +0.006 C 
ATOM     26  C   LIG    1        0.002  -0.004   0.002  0.00  0.00    +0.025 C 
ENDBRANCH   1  26
TORSDOF 2
