REMARK  Name = ZINC13746640
REMARK                            x       y       z     vdW  Elec       q    Type
REMARK                         _______ _______ _______ _____ _____    ______ ____
ROOT
ATOM      1  C   LIG    1        2.319  -0.310  -0.020  0.00  0.00    +0.213 C 
ENDROOT
BRANCH   1   2
ATOM      2  C   LIG    1        3.742  -0.872  -0.036  0.00  0.00    -0.034 C 
ATOM      3  N   LIG    1        4.401  -0.577  -1.322  0.00  0.00    +0.383 N 
ATOM      4  H   LIG    1        3.689  -0.416  -2.044  0.00  0.00    -0.085 HD
ATOM      5  H   LIG    1        4.985   0.262  -1.224  0.00  0.00    -0.085 HD
ATOM      6  C   LIG    1        5.241  -1.722  -1.702  0.00  0.00    -0.082 C 
ATOM      7  C   LIG    1        5.073  -2.792  -0.603  0.00  0.00    -0.021 C 
ATOM      8  C   LIG    1        3.712  -2.419   0.045  0.00  0.00    -0.014 C 
ENDBRANCH   1   2
BRANCH   1   9
ATOM      9  O   LIG    1        2.371   1.118  -0.014  0.00  0.00    -0.492 OA
BRANCH   9  12
ATOM     10  C   LIG    1       -0.085   3.798   0.022  0.00  0.00    +0.023 A 
ATOM     11  C   LIG    1        1.150   3.169   0.008  0.00  0.00    +0.048 A 
ATOM     12  C   LIG    1        1.184   1.779   0.000  0.00  0.00    +0.138 A 
ATOM     13  C   LIG    1       -0.013   1.076   0.008  0.00  0.00    +0.156 A 
ATOM     14  N   LIG    1       -1.167   1.712   0.017  0.00  0.00    -0.260 NA
ATOM     15  C   LIG    1       -1.233   3.030   0.029  0.00  0.00    +0.111 A 
ENDBRANCH   9  12
ENDBRANCH   1   9
TORSDOF 3
