REMARK  Name = ZINC29052376
REMARK                            x       y       z     vdW  Elec       q    Type
REMARK                         _______ _______ _______ _____ _____    ______ ____
ROOT
ATOM      1  C   LIG    1        0.787  -4.733  -1.004  0.00  0.00    -0.018 C 
ATOM      2  C   LIG    1        2.163  -4.073  -1.123  0.00  0.00    +0.021 C 
ATOM      3  C   LIG    1        1.989  -2.555  -1.218  0.00  0.00    +0.105 C 
ATOM      4  N   LIG    1        1.293  -2.065  -0.021  0.00  0.00    -0.329 N 
ATOM      5  C   LIG    1       -0.050  -2.650   0.088  0.00  0.00    +0.105 C 
ATOM      6  C   LIG    1        0.063  -4.170   0.222  0.00  0.00    +0.021 C 
ENDROOT
BRANCH   4   7
ATOM      7  C   LIG    1        1.234  -0.676  -0.013  0.00  0.00    +0.042 A 
ATOM      8  C   LIG    1        2.395   0.091  -0.019  0.00  0.00    +0.043 A 
ATOM      9  C   LIG    1        2.294   1.470  -0.011  0.00  0.00    +0.115 A 
ATOM     10  N   LIG    1        1.126   2.078   0.003  0.00  0.00    -0.237 NA
ATOM     11  C   LIG    1       -0.017   1.401   0.010  0.00  0.00    +0.140 A 
ATOM     12  N   LIG    1       -1.336   1.785   0.030  0.00  0.00    -0.346 N 
ATOM     13  H   LIG    1       -1.598   2.853   0.046  0.00  0.00    +0.167 HD
ATOM     14  C   LIG    1       -2.146   0.680   0.026  0.00  0.00    +0.085 A 
ATOM     15  C   LIG    1       -1.397  -0.434   0.013  0.00  0.00    +0.031 A 
ATOM     16  C   LIG    1        0.002  -0.004   0.002  0.00  0.00    +0.040 A 
ENDBRANCH   4   7
BRANCH   1  17
ATOM     17  C   LIG    1        0.957  -6.246  -0.850  0.00  0.00    -0.041 C 
BRANCH  17  24
ATOM     18  C   LIG    1       -1.154  -7.125  -1.867  0.00  0.00    +0.003 A 
ATOM     19  C   LIG    1       -2.395  -7.724  -1.762  0.00  0.00    +0.020 A 
ATOM     20  C   LIG    1       -2.885  -8.084  -0.519  0.00  0.00    +0.041 A 
ATOM     21 CL   LIG    1       -4.446  -8.832  -0.385  0.00  0.00    -0.084 Cl
ATOM     22  C   LIG    1       -2.131  -7.848   0.616  0.00  0.00    +0.020 A 
ATOM     23  C   LIG    1       -0.888  -7.253   0.509  0.00  0.00    +0.003 A 
ATOM     24  C   LIG    1       -0.399  -6.894  -0.733  0.00  0.00    -0.062 A 
ENDBRANCH  17  24
BRANCH  17  25
ATOM     25  N   LIG    1        1.657  -6.782  -2.024  0.00  0.00    +0.383 N 
ATOM     26  H   LIG    1        1.779  -7.870  -1.912  0.00  0.00    -0.089 HD
ATOM     27  H   LIG    1        1.070  -6.570  -2.930  0.00  0.00    -0.089 HD
ATOM     28  H   LIG    1        2.646  -6.309  -2.109  0.00  0.00    -0.089 HD
ENDBRANCH  17  25
ENDBRANCH   1  17
TORSDOF 4
