REMARK  Name = ZINC71332730
REMARK                            x       y       z     vdW  Elec       q    Type
REMARK                         _______ _______ _______ _____ _____    ______ ____
ROOT
ATOM      1  C   LIG    1       -0.018   1.503   0.010  0.00  0.00    +0.090 C 
ATOM      2  C   LIG    1        0.002  -0.004   0.002  0.00  0.00    +0.149 A 
ATOM      3  N   LIG    1        0.007  -0.765  -1.089  0.00  0.00    -0.211 NA
ATOM      4  C   LIG    1        0.026  -2.035  -0.743  0.00  0.00    +0.168 A 
ATOM      5  C   LIG    1        0.040  -3.303  -1.481  0.00  0.00    +0.045 A 
ATOM      6  C   LIG    1        0.035  -3.346  -2.874  0.00  0.00    +0.014 A 
ATOM      7  C   LIG    1        0.049  -4.564  -3.517  0.00  0.00    +0.001 A 
ATOM      8  C   LIG    1        0.068  -5.747  -2.788  0.00  0.00    +0.002 A 
ATOM      9  C   LIG    1        0.074  -5.727  -1.412  0.00  0.00    +0.028 A 
ATOM     10  C   LIG    1        0.060  -4.504  -0.736  0.00  0.00    +0.077 A 
ATOM     11  N   LIG    1        0.066  -4.445   0.617  0.00  0.00    -0.222 NA
ATOM     12  C   LIG    1        0.053  -3.306   1.262  0.00  0.00    +0.192 A 
ATOM     13  N   LIG    1        0.033  -2.095   0.625  0.00  0.00    -0.188 N 
ATOM     14  N   LIG    1        0.023  -0.765   1.068  0.00  0.00    -0.148 NA
ENDROOT
BRANCH  12  15
ATOM     15  S   LIG    1        0.062  -3.333   3.023  0.00  0.00    -0.080 S 
BRANCH  15  16
ATOM     16  C   LIG    1        0.087  -5.099   3.435  0.00  0.00    +0.134 C 
BRANCH  16  17
ATOM     17  C   LIG    1        0.096  -5.266   4.933  0.00  0.00    +0.071 A 
ATOM     18  C   LIG    1        1.190  -5.333   5.710  0.00  0.00    +0.117 A 
ATOM     19  N   LIG    1        0.766  -5.486   7.027  0.00  0.00    -0.300 N 
ATOM     20  C   LIG    1        1.326  -5.615   8.279  0.00  0.00    +0.100 A 
ATOM     21  C   LIG    1        0.558  -5.749   9.359  0.00  0.00    +0.067 A 
ATOM     22  S   LIG    1       -1.083  -5.699   8.654  0.00  0.00    -0.058 S 
ATOM     23  C   LIG    1       -0.602  -5.502   6.954  0.00  0.00    +0.178 A 
ATOM     24  N   LIG    1       -0.988  -5.366   5.718  0.00  0.00    -0.225 NA
ENDBRANCH  16  17
ENDBRANCH  15  16
ENDBRANCH  12  15
TORSDOF 3
