REMARK  Name = ZINC14977914
REMARK                            x       y       z     vdW  Elec       q    Type
REMARK                         _______ _______ _______ _____ _____    ______ ____
ROOT
ATOM      1  C   LIG    1       -0.016   1.357   0.009  0.00  0.00    +0.087 A 
ATOM      2  C   LIG    1        1.249   1.823  -0.000  0.00  0.00    -0.020 A 
ATOM      3  C   LIG    1        2.119   0.712  -0.014  0.00  0.00    +0.097 A 
ATOM      4  C   LIG    1        1.310  -0.429  -0.013  0.00  0.00    +0.130 A 
ATOM      5  C   LIG    1        1.931  -1.695  -0.026  0.00  0.00    +0.275 A 
ATOM      6  N   LIG    1        3.281  -1.748  -0.039  0.00  0.00    -0.312 N 
ATOM      7  C   LIG    1        4.018  -0.606  -0.040  0.00  0.00    +0.199 A 
ATOM      8  H   LIG    1        3.729  -2.608  -0.049  0.00  0.00    +0.170 HD
ATOM      9  O   LIG    1        1.266  -2.717  -0.025  0.00  0.00    -0.266 OA
ATOM     10  N   LIG    1        3.466   0.573  -0.028  0.00  0.00    -0.235 NA
ATOM     11  N   LIG    1        0.002  -0.004   0.002  0.00  0.00    -0.355 N 
ATOM     12  H   LIG    1       -0.779  -0.580   0.006  0.00  0.00    +0.166 HD
ENDROOT
BRANCH   2  13
ATOM     13  C   LIG    1        1.661   3.273   0.004  0.00  0.00    -0.039 C 
BRANCH  13  14
ATOM     14  N   LIG    1        2.012   3.686  -1.361  0.00  0.00    +0.383 N 
ATOM     15  H   LIG    1        2.584   3.008  -1.843  0.00  0.00    -0.081 HD
ATOM     16  C   LIG    1        0.855   4.145  -2.152  0.00  0.00    -0.075 C 
ATOM     17  C   LIG    1        1.766   5.223  -2.756  0.00  0.00    -0.019 C 
ATOM     18  C   LIG    1        2.541   5.060  -1.441  0.00  0.00    -0.075 C 
BRANCH  17  19
ATOM     19  C   LIG    1        1.095   6.588  -2.922  0.00  0.00    +0.155 C 
BRANCH  19  20
ATOM     20  O   LIG    1        1.988   7.479  -3.595  0.00  0.00    -0.395 OA
ATOM     21  H   LIG    1        1.628   8.365  -3.735  0.00  0.00    +0.209 HD
ENDBRANCH  19  20
ENDBRANCH  17  19
ENDBRANCH  13  14
ENDBRANCH   2  13
TORSDOF 4
