REMARK  Name = ZINC27529339
REMARK                            x       y       z     vdW  Elec       q    Type
REMARK                         _______ _______ _______ _____ _____    ______ ____
ROOT
ATOM      1  C   LIG    1        0.048  -0.007   0.422  0.00  0.00    +0.055 A 
ATOM      2  C   LIG    1       -1.097  -0.714   0.661  0.00  0.00    +0.075 A 
ATOM      3  S   LIG    1       -0.489  -2.389   0.515  0.00  0.00    -0.056 S 
ATOM      4  C   LIG    1        1.214  -1.978   0.164  0.00  0.00    +0.192 A 
ATOM      5  N   LIG    1        2.289  -2.821  -0.067  0.00  0.00    -0.124 NA
ATOM      6  N   LIG    1        1.176  -0.658   0.182  0.00  0.00    -0.332 N 
ATOM      7  H   LIG    1        2.104  -0.099  -0.006  0.00  0.00    +0.168 HD
ENDROOT
BRANCH   5   8
ATOM      8  N   LIG    1        2.109  -4.210  -0.040  0.00  0.00    -0.156 NA
ATOM      9  C   LIG    1        3.119  -4.989  -0.150  0.00  0.00    +0.041 C 
ATOM     10  C   LIG    1        4.527  -4.436  -0.168  0.00  0.00    +0.053 C 
ATOM     11  C   LIG    1        5.358  -5.197   0.876  0.00  0.00    +0.009 C 
ATOM     12  C   LIG    1        5.268  -6.699   0.599  0.00  0.00    -0.013 C 
ATOM     13  C   LIG    1        6.171  -7.452   1.577  0.00  0.00    +0.007 C 
ATOM     14  C   LIG    1        3.824  -7.172   0.771  0.00  0.00    +0.009 C 
ATOM     15  C   LIG    1        2.935  -6.486  -0.271  0.00  0.00    +0.053 C 
ENDBRANCH   5   8
BRANCH   1  20
ATOM     16  C   LIG    1       -0.027   5.751   0.483  0.00  0.00    +0.044 C 
ATOM     17  C   LIG    1       -0.007   4.244   0.467  0.00  0.00    -0.050 A 
ATOM     18  C   LIG    1        1.176   3.573   0.215  0.00  0.00    +0.004 A 
ATOM     19  C   LIG    1        1.200   2.194   0.199  0.00  0.00    +0.010 A 
ATOM     20  C   LIG    1        0.028   1.476   0.438  0.00  0.00    -0.001 A 
ATOM     21  C   LIG    1       -1.162   2.158   0.686  0.00  0.00    +0.010 A 
ATOM     22  C   LIG    1       -1.173   3.538   0.705  0.00  0.00    +0.004 A 
ENDBRANCH   1  20
TORSDOF 2
