REMARK  Name = ZINC49013636
REMARK                            x       y       z     vdW  Elec       q    Type
REMARK                         _______ _______ _______ _____ _____    ______ ____
ROOT
ATOM      1  N   LIG    1       -1.368  -1.347   0.176  0.00  0.00    -0.297 N 
ATOM      2  C   LIG    1       -1.891  -0.583   1.155  0.00  0.00    +0.248 C 
ATOM      3  O   LIG    1       -2.980  -0.065   1.006  0.00  0.00    -0.270 OA
ENDROOT
BRANCH   2   4
ATOM      4  C   LIG    1       -1.140  -0.376   2.411  0.00  0.00    +0.057 A 
ATOM      5  C   LIG    1        0.240  -0.167   2.377  0.00  0.00    +0.014 A 
ATOM      6  C   LIG    1        0.936   0.026   3.552  0.00  0.00    +0.002 A 
ATOM      7  C   LIG    1        0.270   0.013   4.765  0.00  0.00    +0.021 A 
ATOM      8  C   LIG    1       -1.098  -0.194   4.809  0.00  0.00    +0.060 A 
ATOM      9 CL   LIG    1       -1.924  -0.209   6.335  0.00  0.00    -0.082 Cl
ATOM     10  C   LIG    1       -1.808  -0.382   3.638  0.00  0.00    +0.071 A 
ATOM     11 CL   LIG    1       -3.525  -0.633   3.692  0.00  0.00    -0.081 Cl
ENDBRANCH   2   4
BRANCH   1  12
ATOM     12  C   LIG    1       -2.096  -1.524  -1.083  0.00  0.00    +0.058 C 
ATOM     13  C   LIG    1       -3.422  -2.278  -0.835  0.00  0.00    +0.001 C 
ATOM     14  C   LIG    1       -4.460  -1.132  -0.735  0.00  0.00    -0.081 C 
ATOM     15  N   LIG    1       -3.988  -0.157  -1.752  0.00  0.00    +0.380 N 
ATOM     16  H   LIG    1       -4.351   0.762  -1.548  0.00  0.00    -0.086 HD
ATOM     17  H   LIG    1       -4.276  -0.450  -2.674  0.00  0.00    -0.086 HD
ATOM     18  C   LIG    1       -2.510  -0.156  -1.657  0.00  0.00    -0.060 C 
ENDBRANCH   1  12
BRANCH   1  20
ATOM     19  C   LIG    1        0.903  -1.532  -0.712  0.00  0.00    +0.024 C 
ATOM     20  C   LIG    1       -0.071  -2.001   0.370  0.00  0.00    +0.105 C 
ENDBRANCH   1  20
TORSDOF 3
