REMARK  Name = ZINC28004647
REMARK                            x       y       z     vdW  Elec       q    Type
REMARK                         _______ _______ _______ _____ _____    ______ ____
ROOT
ATOM      1  C   UNK A  3        0.650  -2.602   3.709  0.00  0.00    +0.163 C 
ENDROOT
BRANCH   1   2
ATOM      2  C   UNK A  3        0.608  -1.121   3.983  0.00  0.00    +0.234 C 
ATOM      3  N   MET A  4       -0.376  -0.365   3.457  0.00  0.00    -0.301 N 
ATOM      4  H   MET A  4       -1.148  -0.829   2.826  0.00  0.00    +0.150 HD
ATOM      5  O   UNK A  3        1.460  -0.609   4.678  0.00  0.00    -0.274 OA
BRANCH   3   6
ATOM      6  CA  MET A  4       -0.416   1.075   3.723  0.00  0.00    +0.182 C 
BRANCH   6   7
ATOM      7  C   MET A  4       -1.122   1.324   5.031  0.00  0.00    +0.325 C 
ATOM      8  O   MET A  4       -1.548   0.394   5.674  0.00  0.00    -0.249 OA
BRANCH   7   9
ATOM      9  OXT MET A  4       -1.278   2.579   5.481  0.00  0.00    -0.479 OA
ATOM     10  HXT MET A  4       -0.948   3.300   4.982  0.00  0.00    +0.295 HD
ENDBRANCH   7   9
ENDBRANCH   6   7
BRANCH   6  11
ATOM     11  CB  MET A  4       -1.169   1.782   2.594  0.00  0.00    +0.044 C 
BRANCH  11  12
ATOM     12  CG  MET A  4       -0.386   1.634   1.288  0.00  0.00    +0.071 C 
BRANCH  12  13
ATOM     13  SD  MET A  4       -1.278   2.472  -0.050  0.00  0.00    -0.164 S 
ATOM     14  CE  MET A  4       -0.233   2.207  -1.508  0.00  0.00    +0.084 C 
ENDBRANCH  12  13
ENDBRANCH  11  12
ENDBRANCH   6  11
ENDBRANCH   3   6
ENDBRANCH   1   2
BRANCH   1  16
ATOM     15  C   VAL A  2        2.350  -4.334   3.924  0.00  0.00    +0.234 C 
ATOM     16  N   UNK A  3        1.805  -3.192   4.389  0.00  0.00    -0.302 N 
ATOM     17  H   UNK A  3        2.229  -2.704   5.279  0.00  0.00    +0.150 HD
ATOM     18  O   VAL A  2        1.833  -4.918   2.994  0.00  0.00    -0.274 OA
BRANCH  15  19
ATOM     19  CA  VAL A  2        3.600  -4.886   4.559  0.00  0.00    +0.161 C 
BRANCH  19  20
ATOM     20  N   VAL A  2        3.632  -6.341   4.391  0.00  0.00    -0.302 N 
ATOM     21  H   VAL A  2        3.087  -6.811   3.559  0.00  0.00    +0.150 HD
ATOM     22  C   CYS A  1        4.329  -7.104   5.257  0.00  0.00    +0.231 C 
ATOM     23  O   CYS A  1        4.929  -6.585   6.174  0.00  0.00    -0.274 OA
BRANCH  22  24
ATOM     24  CA  CYS A  1        4.361  -8.600   5.085  0.00  0.00    +0.147 C 
BRANCH  24  25
ATOM     25  N   CYS A  1        5.516  -9.151   5.805  0.00  0.00    -0.319 NA
ATOM     26  H1  CYS A  1        6.442  -8.716   5.401  0.00  0.00    +0.119 HD
ATOM     27  H2  CYS A  1        5.540 -10.244   5.680  0.00  0.00    +0.119 HD
ENDBRANCH  24  25
BRANCH  24  28
ATOM     28  CB  CYS A  1        3.073  -9.206   5.647  0.00  0.00    +0.093 C 
BRANCH  28  29
ATOM     29  SG  CYS A  1        3.112 -11.008   5.439  0.00  0.00    -0.176 S 
ATOM     30  HG  CYS A  1        2.267 -11.620   5.786  0.00  0.00    +0.102 HD
ENDBRANCH  28  29
ENDBRANCH  24  28
ENDBRANCH  22  24
ENDBRANCH  19  20
BRANCH  19  32
ATOM     31  CG1 VAL A  2        4.824  -2.755   4.107  0.00  0.00    +0.009 C 
ATOM     32  CB  VAL A  2        4.828  -4.268   3.886  0.00  0.00    +0.012 C 
ATOM     33  CG2 VAL A  2        6.098  -4.869   4.494  0.00  0.00    +0.009 C 
ENDBRANCH  19  32
ENDBRANCH  15  19
ENDBRANCH   1  16
BRANCH   1  34
ATOM     34  C   UNK A  3       -0.634  -3.253   4.228  0.00  0.00    +0.067 C 
BRANCH  34  35
ATOM     35  C   UNK A  3       -0.648  -4.710   3.845  0.00  0.00    -0.045 A 
ATOM     36  C   UNK A  3       -0.094  -5.652   4.710  0.00  0.00    +0.004 A 
ATOM     37  C   UNK A  3       -0.091  -6.976   4.394  0.00  0.00    +0.009 A 
ATOM     38  C   UNK A  3       -0.653  -7.403   3.180  0.00  0.00    -0.018 A 
ATOM     39  C   UNK A  3       -0.669  -8.762   2.820  0.00  0.00    +0.008 A 
ATOM     40  C   UNK A  3       -1.223  -9.138   1.635  0.00  0.00    +0.001 A 
ATOM     41  C   UNK A  3       -1.777  -8.196   0.770  0.00  0.00    +0.001 A 
ATOM     42  C   UNK A  3       -1.781  -6.872   1.086  0.00  0.00    +0.008 A 
ATOM     43  C   UNK A  3       -1.217  -6.445   2.300  0.00  0.00    -0.018 A 
ATOM     44  C   UNK A  3       -1.207  -5.087   2.663  0.00  0.00    +0.012 A 
ENDBRANCH  34  35
ENDBRANCH   1  34
TORSDOF 17
