REMARK  Name = ZINC34421481
REMARK                            x       y       z     vdW  Elec       q    Type
REMARK                         _______ _______ _______ _____ _____    ______ ____
ROOT
ATOM      1  C   LIG    1       -2.917  -2.486   0.306  0.00  0.00    +0.188 C 
ATOM      2  C   LIG    1       -3.603  -1.689  -0.808  0.00  0.00    +0.032 C 
ATOM      3  C   LIG    1       -4.931  -2.360  -1.166  0.00  0.00    +0.003 C 
ATOM      4  C   LIG    1       -4.667  -3.777  -1.679  0.00  0.00    +0.017 C 
ATOM      5  C   LIG    1       -3.994  -4.598  -0.575  0.00  0.00    +0.110 C 
ATOM      6  N   LIG    1       -2.791  -3.887  -0.120  0.00  0.00    -0.163 NA
ENDROOT
BRANCH   6   7
ATOM      7  S   LIG    1       -1.320  -4.647  -0.091  0.00  0.00    +0.062 S 
ATOM      8  O   LIG    1       -1.575  -6.014   0.201  0.00  0.00    -0.153 OA
ATOM      9  O   LIG    1       -0.463  -3.845   0.709  0.00  0.00    -0.153 OA
BRANCH   7  10
ATOM     10  C   LIG    1       -0.675  -4.595  -1.730  0.00  0.00    +0.106 A 
ATOM     11  C   LIG    1       -0.961  -5.614  -2.619  0.00  0.00    +0.028 A 
ATOM     12  C   LIG    1       -0.455  -5.573  -3.905  0.00  0.00    +0.002 A 
ATOM     13  C   LIG    1        0.337  -4.512  -4.302  0.00  0.00    +0.000 A 
ATOM     14  C   LIG    1        0.623  -3.492  -3.413  0.00  0.00    +0.002 A 
ATOM     15  C   LIG    1        0.113  -3.531  -2.129  0.00  0.00    +0.028 A 
ENDBRANCH   7  10
ENDBRANCH   6   7
BRANCH   1  16
ATOM     16  C   LIG    1       -1.549  -1.913   0.570  0.00  0.00    +0.326 C 
ATOM     17  O   LIG    1       -0.777  -1.747  -0.345  0.00  0.00    -0.249 OA
BRANCH  16  18
ATOM     18  O   LIG    1       -1.188  -1.585   1.820  0.00  0.00    -0.464 OA
BRANCH  18  20
ATOM     19  C   LIG    1        0.353  -0.736   3.477  0.00  0.00    +0.048 C 
ATOM     20  C   LIG    1        0.124  -1.046   1.996  0.00  0.00    +0.229 C 
ENDBRANCH  18  20
ENDBRANCH  16  18
ENDBRANCH   1  16
TORSDOF 5
