REMARK  Name = ZINC29056253
REMARK                            x       y       z     vdW  Elec       q    Type
REMARK                         _______ _______ _______ _____ _____    ______ ____
ROOT
ATOM      1  C   LIG    1       -1.293  10.173   0.074  0.00  0.00    +0.001 A 
ATOM      2  C   LIG    1       -2.498   9.473   0.080  0.00  0.00    +0.001 A 
ATOM      3  C   LIG    1       -2.517   8.112   0.072  0.00  0.00    +0.008 A 
ATOM      4  C   LIG    1       -1.304   7.399   0.056  0.00  0.00    -0.017 A 
ATOM      5  C   LIG    1       -1.287   5.996   0.047  0.00  0.00    +0.017 A 
ATOM      6  C   LIG    1       -0.076   5.331   0.032  0.00  0.00    -0.017 A 
ATOM      7  C   LIG    1        1.132   6.047   0.030  0.00  0.00    +0.009 A 
ATOM      8  C   LIG    1        1.137   7.405   0.033  0.00  0.00    +0.009 A 
ATOM      9  C   LIG    1       -0.079   8.112   0.049  0.00  0.00    -0.018 A 
ATOM     10  C   LIG    1       -0.101   9.517   0.058  0.00  0.00    +0.008 A 
ENDROOT
BRANCH   6  11
ATOM     11  C   LIG    1       -0.051   3.848   0.023  0.00  0.00    -0.014 A 
ATOM     12  C   LIG    1       -1.246   3.129   0.031  0.00  0.00    +0.009 A 
ATOM     13  C   LIG    1       -1.220   1.749   0.017  0.00  0.00    +0.004 A 
ATOM     14  C   LIG    1       -0.013   1.076   0.008  0.00  0.00    +0.045 A 
ATOM     15  C   LIG    1        1.181   1.784   0.000  0.00  0.00    +0.117 A 
ATOM     16  C   LIG    1        1.165   3.169   0.008  0.00  0.00    +0.054 A 
BRANCH  15  17
ATOM     17  O   LIG    1        2.366   1.119  -0.014  0.00  0.00    -0.507 OA
ATOM     18  H   LIG    1        3.312   1.680  -0.020  0.00  0.00    +0.292 HD
ENDBRANCH  15  17
ENDBRANCH   6  11
TORSDOF 2
