REMARK  Name = ZINC26479958
REMARK                            x       y       z     vdW  Elec       q    Type
REMARK                         _______ _______ _______ _____ _____    ______ ____
ROOT
ATOM      1  C   LIG    1       -1.010   6.551  -0.889  0.00  0.00    +0.070 A 
ATOM      2  C   LIG    1       -1.754   7.730  -0.859  0.00  0.00    +0.016 A 
ATOM      3  C   LIG    1       -1.456   8.710   0.065  0.00  0.00    +0.001 A 
ATOM      4  C   LIG    1       -0.423   8.532   0.971  0.00  0.00    +0.001 A 
ATOM      5  C   LIG    1        0.322   7.370   0.962  0.00  0.00    +0.012 A 
ATOM      6  C   LIG    1        0.037   6.366   0.036  0.00  0.00    +0.031 A 
ENDROOT
BRANCH   6   7
ATOM      7  C   LIG    1        0.831   5.123   0.022  0.00  0.00    +0.137 A 
ATOM      8  C   LIG    1        2.195   5.048   0.008  0.00  0.00    +0.051 A 
ATOM      9  C   LIG    1        2.532   3.691   0.003  0.00  0.00    +0.057 A 
ATOM     10  C   LIG    1        1.347   2.987   0.005  0.00  0.00    +0.212 A 
ATOM     11  O   LIG    1        0.332   3.875   0.020  0.00  0.00    -0.448 OA
BRANCH  10  12
ATOM     12  C   LIG    1        1.214   1.528  -0.001  0.00  0.00    +0.372 C 
ATOM     13  O   LIG    1        2.207   0.827  -0.015  0.00  0.00    -0.242 OA
BRANCH  12  14
ATOM     14  O   LIG    1       -0.011   0.963   0.007  0.00  0.00    -0.475 OA
ATOM     15  H   LIG    1       -0.776   1.503   0.018  0.00  0.00    +0.296 HD
ENDBRANCH  12  14
ENDBRANCH  10  12
ENDBRANCH   6   7
BRANCH   1  16
ATOM     16  C   LIG    1       -1.320   5.502  -1.878  0.00  0.00    +0.340 C 
ATOM     17  O   LIG    1       -0.672   4.474  -1.898  0.00  0.00    -0.245 OA
BRANCH  16  19
ATOM     18  C   LIG    1       -2.571   4.608  -3.705  0.00  0.00    +0.280 C 
ATOM     19  O   LIG    1       -2.322   5.683  -2.761  0.00  0.00    -0.464 OA
ENDBRANCH  16  19
ENDBRANCH   1  16
TORSDOF 5
