REMARK  Name = ZINC25421991
REMARK                            x       y       z     vdW  Elec       q    Type
REMARK                         _______ _______ _______ _____ _____    ______ ____
ROOT
ATOM      1  O   LIG    1       -0.308   5.277   0.032  0.00  0.00    -0.487 OA
ENDROOT
BRANCH   1   5
ATOM      2  C   LIG    1       -0.013   1.076   0.008  0.00  0.00    +0.028 A 
ATOM      3  C   LIG    1       -1.215   1.743   0.029  0.00  0.00    +0.006 A 
ATOM      4  C   LIG    1       -1.306   3.141   0.037  0.00  0.00    +0.048 A 
ATOM      5  C   LIG    1       -0.197   3.929   0.025  0.00  0.00    +0.146 A 
ATOM      6  C   LIG    1        1.133   3.281   0.003  0.00  0.00    +0.109 A 
ATOM      7  N   LIG    1        2.362   3.700  -0.014  0.00  0.00    -0.303 N 
ATOM      8  H   LIG    1        2.645   4.627  -0.014  0.00  0.00    +0.171 HD
ATOM      9  C   LIG    1        3.203   2.596  -0.031  0.00  0.00    +0.325 A 
ATOM     10  N   LIG    1        2.473   1.459  -0.026  0.00  0.00    -0.306 N 
ATOM     11  H   LIG    1        2.828   0.557  -0.035  0.00  0.00    +0.170 HD
ATOM     12  O   LIG    1        4.415   2.645  -0.048  0.00  0.00    -0.247 OA
ATOM     13  C   LIG    1        1.189   1.786   0.000  0.00  0.00    +0.070 A 
ENDBRANCH   1   5
BRANCH   1  14
ATOM     14  C   LIG    1       -1.631   5.819   0.053  0.00  0.00    +0.258 C 
BRANCH  14  15
ATOM     15  C   LIG    1       -1.556   7.347   0.059  0.00  0.00    +0.135 C 
BRANCH  15  16
ATOM     16  O   LIG    1       -0.981   7.800  -1.169  0.00  0.00    -0.390 OA
ATOM     17  H   LIG    1       -1.480   7.542  -1.956  0.00  0.00    +0.210 HD
ENDBRANCH  15  16
BRANCH  15  18
ATOM     18  C   LIG    1       -2.964   7.926   0.207  0.00  0.00    -0.047 C 
BRANCH  18  19
ATOM     19  N   LIG    1       -2.892   9.393   0.212  0.00  0.00    +0.384 N 
ATOM     20  H   LIG    1       -2.486   9.713  -0.654  0.00  0.00    -0.085 HD
ATOM     21  H   LIG    1       -2.320   9.699   0.985  0.00  0.00    -0.085 HD
BRANCH  19  22
ATOM     22  C   LIG    1       -4.245   9.949   0.354  0.00  0.00    -0.077 C 
ATOM     23  C   LIG    1       -5.112   9.486  -0.817  0.00  0.00    -0.011 C 
ATOM     24  C   LIG    1       -4.170  11.478   0.360  0.00  0.00    -0.011 C 
ATOM     25  C   LIG    1       -4.860   9.464   1.668  0.00  0.00    -0.011 C 
ENDBRANCH  19  22
ENDBRANCH  18  19
ENDBRANCH  15  18
ENDBRANCH  14  15
ENDBRANCH   1  14
TORSDOF 7
