REMARK  Name = ZINC14880861
REMARK                            x       y       z     vdW  Elec       q    Type
REMARK                         _______ _______ _______ _____ _____    ______ ____
ROOT
ATOM      1  N   LIG    1        1.178  -0.662  -0.013  0.00  0.00    -0.299 N 
ATOM      2  H   LIG    1        2.012  -0.166  -0.018  0.00  0.00    +0.150 HD
ATOM      3  C   LIG    1        0.002  -0.004   0.002  0.00  0.00    +0.300 C 
ATOM      4  N   LIG    1       -0.016   1.344   0.009  0.00  0.00    -0.297 N 
ATOM      5  H   LIG    1        0.817   1.840   0.004  0.00  0.00    +0.151 HD
ATOM      6  O   LIG    1       -1.042  -0.626   0.009  0.00  0.00    -0.253 OA
ENDROOT
BRANCH   4   7
ATOM      7  C   LIG    1       -1.295   2.059   0.019  0.00  0.00    +0.074 C 
ATOM      8  C   LIG    1       -1.808   2.206  -1.414  0.00  0.00    +0.022 C 
ATOM      9  C   LIG    1       -3.143   2.953  -1.404  0.00  0.00    +0.002 C 
ATOM     10  C   LIG    1       -2.947   4.339  -0.788  0.00  0.00    +0.000 C 
ATOM     11  C   LIG    1       -2.434   4.192   0.646  0.00  0.00    +0.002 C 
ATOM     12  C   LIG    1       -1.099   3.445   0.636  0.00  0.00    +0.022 C 
ENDBRANCH   4   7
BRANCH   1  13
ATOM     13  C   LIG    1        1.198  -2.127  -0.021  0.00  0.00    +0.106 C 
BRANCH  13  14
ATOM     14  C   LIG    1        2.647  -2.617  -0.037  0.00  0.00    +0.019 C 
BRANCH  14  15
ATOM     15  C   LIG    1        2.668  -4.147  -0.046  0.00  0.00    +0.002 C 
BRANCH  15  16
ATOM     16  C   LIG    1        4.117  -4.637  -0.062  0.00  0.00    +0.000 C 
BRANCH  16  17
ATOM     17  C   LIG    1        4.138  -6.167  -0.071  0.00  0.00    +0.000 C 
BRANCH  17  18
ATOM     18  C   LIG    1        5.587  -6.657  -0.087  0.00  0.00    -0.000 C 
BRANCH  18  19
ATOM     19  C   LIG    1        5.608  -8.187  -0.096  0.00  0.00    -0.000 C 
BRANCH  19  20
ATOM     20  C   LIG    1        7.057  -8.678  -0.112  0.00  0.00    -0.000 C 
BRANCH  20  22
ATOM     21  C   LIG    1        8.527 -10.698  -0.137  0.00  0.00    +0.004 C 
ATOM     22  C   LIG    1        7.078 -10.207  -0.120  0.00  0.00    -0.003 C 
ENDBRANCH  20  22
ENDBRANCH  19  20
ENDBRANCH  18  19
ENDBRANCH  17  18
ENDBRANCH  16  17
ENDBRANCH  15  16
ENDBRANCH  14  15
ENDBRANCH  13  14
ENDBRANCH   1  13
TORSDOF 10
