REMARK  Name = ZINC14959980
REMARK                            x       y       z     vdW  Elec       q    Type
REMARK                         _______ _______ _______ _____ _____    ______ ____
ROOT
ATOM      1  C   LIG    1       -0.248  -4.797   0.511  0.00  0.00    +0.263 C 
ATOM      2  N   LIG    1       -0.860  -4.236   1.573  0.00  0.00    -0.306 N 
ATOM      3  H   LIG    1       -0.912  -3.270   1.648  0.00  0.00    +0.149 HD
ATOM      4  O   LIG    1       -0.183  -6.006   0.417  0.00  0.00    -0.269 OA
ENDROOT
BRANCH   1   9
ATOM      5  C   LIG    1        0.776  -1.806  -1.336  0.00  0.00    +0.235 A 
ATOM      6  C   LIG    1        1.428  -2.321  -2.469  0.00  0.00    +0.134 A 
ATOM      7  C   LIG    1        1.528  -3.716  -2.619  0.00  0.00    +0.050 A 
ATOM      8  C   LIG    1        0.972  -4.528  -1.631  0.00  0.00    +0.057 A 
ATOM      9  C   LIG    1        0.345  -3.938  -0.542  0.00  0.00    +0.131 A 
ATOM     10  N   LIG    1        0.271  -2.615  -0.426  0.00  0.00    -0.207 NA
BRANCH   7  11
ATOM     11  N   LIG    1        2.163  -4.269  -3.721  0.00  0.00    -0.357 N 
ATOM     12  H   LIG    1        2.224  -5.232  -3.812  0.00  0.00    +0.142 HD
ATOM     13  H   LIG    1        2.545  -3.692  -4.401  0.00  0.00    +0.142 HD
ENDBRANCH   7  11
BRANCH   6  14
ATOM     14  C   LIG    1        1.981  -1.440  -3.453  0.00  0.00    +0.106 C 
ATOM     15  N   LIG    1        2.420  -0.742  -4.235  0.00  0.00    -0.191 NA
ENDBRANCH   6  14
BRANCH   5  16
ATOM     16  O   LIG    1        0.671  -0.465  -1.174  0.00  0.00    -0.476 OA
BRANCH  16  18
ATOM     17  C   LIG    1       -0.019   1.526   0.010  0.00  0.00    +0.048 C 
ATOM     18  C   LIG    1        0.002  -0.004   0.002  0.00  0.00    +0.227 C 
ENDBRANCH  16  18
ENDBRANCH   5  16
ENDBRANCH   1   9
BRANCH   2  19
ATOM     19  C   LIG    1       -1.446  -5.084   2.614  0.00  0.00    +0.140 C 
BRANCH  19  20
ATOM     20  C   LIG    1       -2.064  -4.217   3.680  0.00  0.00    -0.030 A 
ATOM     21  C   LIG    1       -1.306  -3.804   4.760  0.00  0.00    +0.007 A 
ATOM     22  C   LIG    1       -1.872  -3.009   5.738  0.00  0.00    +0.027 A 
ATOM     23  C   LIG    1       -3.196  -2.625   5.637  0.00  0.00    +0.088 A 
ATOM     24  C   LIG    1       -3.954  -3.037   4.556  0.00  0.00    +0.027 A 
ATOM     25  C   LIG    1       -3.386  -3.829   3.576  0.00  0.00    +0.007 A 
BRANCH  23  26
ATOM     26  S   LIG    1       -3.919  -1.612   6.884  0.00  0.00    -0.006 S 
ATOM     27  C   LIG    1       -3.627   0.090   6.330  0.00  0.00    +0.200 C 
ATOM     28  O   LIG    1       -3.160  -1.882   8.055  0.00  0.00    -0.170 OA
ATOM     29  O   LIG    1       -5.307  -1.911   6.835  0.00  0.00    -0.170 OA
ENDBRANCH  23  26
ENDBRANCH  19  20
ENDBRANCH   2  19
TORSDOF 8
