REMARK  Name = ZINC26172895
REMARK                            x       y       z     vdW  Elec       q    Type
REMARK                         _______ _______ _______ _____ _____    ______ ____
ROOT
ATOM      1  C   LIG    1        7.198   4.073  -2.271  0.00  0.00    -0.096 C 
ATOM      2  N   LIG    1        5.731   4.026  -2.198  0.00  0.00    +0.379 N 
ATOM      3  H   LIG    1        5.328   4.725  -2.946  0.00  0.00    -0.082 HD
ATOM      4  C   LIG    1        5.257   4.469  -0.886  0.00  0.00    -0.074 C 
ATOM      5  C   LIG    1        5.146   3.235   0.013  0.00  0.00    +0.017 C 
ATOM      6  C   LIG    1        3.753   2.665  -0.033  0.00  0.00    -0.044 A 
ATOM      7  C   LIG    1        3.125   2.384   1.174  0.00  0.00    +0.021 A 
ATOM      8  C   LIG    1        1.865   1.823   1.194  0.00  0.00    +0.055 A 
ATOM      9  I   LIG    1        0.928   1.405   3.021  0.00  0.00    -0.040 I 
ATOM     10  C   LIG    1        1.223   1.532  -0.001  0.00  0.00    +0.130 A 
ATOM     11  C   LIG    1        1.843   1.830  -1.202  0.00  0.00    +0.051 A 
ATOM     12  C   LIG    1        3.108   2.402  -1.220  0.00  0.00    -0.035 A 
ATOM     13  C   LIG    1        3.704   2.735  -2.566  0.00  0.00    +0.033 C 
ATOM     14  C   LIG    1        5.230   2.685  -2.525  0.00  0.00    -0.066 C 
ENDROOT
BRANCH  13  15
ATOM     15  C   LIG    1        3.206   1.742  -3.584  0.00  0.00    -0.042 A 
ATOM     16  C   LIG    1        3.478   0.390  -3.417  0.00  0.00    +0.006 A 
ATOM     17  C   LIG    1        3.030  -0.521  -4.327  0.00  0.00    +0.031 A 
ATOM     18  C   LIG    1        2.293  -0.081  -5.456  0.00  0.00    +0.100 A 
ATOM     19  C   LIG    1        2.028   1.303  -5.615  0.00  0.00    +0.031 A 
ATOM     20  C   LIG    1        2.485   2.189  -4.684  0.00  0.00    +0.006 A 
BRANCH  18  21
ATOM     21  N   LIG    1        1.855  -0.954  -6.351  0.00  0.00    -0.074 NA
ATOM     22  N   LIG    1        2.068  -2.049  -6.219  0.00  0.00    -0.192 NA
ATOM     23  N   LIG    1        2.281  -3.145  -6.087  0.00  0.00    -0.127 NA
ATOM     24  H   LIG    1        2.791  -3.634  -6.773  0.00  0.00    +0.228 HD
ENDBRANCH  18  21
ENDBRANCH  13  15
BRANCH  10  25
ATOM     25  O   LIG    1       -0.011   0.963   0.007  0.00  0.00    -0.506 OA
ATOM     26  H   LIG    1       -0.517   0.733  -0.942  0.00  0.00    +0.292 HD
ENDBRANCH  10  25
TORSDOF 3
