REMARK  Name = ZINC20325159
REMARK                            x       y       z     vdW  Elec       q    Type
REMARK                         _______ _______ _______ _____ _____    ______ ____
ROOT
ATOM      1  C   LIG    1        6.972   0.376   2.296  0.00  0.00    +0.067 C 
ATOM      2  C   LIG    1        7.098  -0.768   1.287  0.00  0.00    +0.041 C 
ATOM      3  C   LIG    1        6.412  -0.161   3.615  0.00  0.00    +0.039 C 
ATOM      4  C   LIG    1        4.960  -0.516   3.443  0.00  0.00    +0.011 C 
ATOM      5  C   LIG    1        4.225  -0.057   2.395  0.00  0.00    +0.050 C 
ATOM      6  C   LIG    1        4.834   0.822   1.333  0.00  0.00    +0.167 C 
ATOM      7  C   LIG    1        2.874  -0.404   2.286  0.00  0.00    +0.131 C 
ATOM      8  N   LIG    1        2.304  -1.177   3.197  0.00  0.00    -0.288 NA
ATOM      9  H   LIG    1        1.240  -1.439   3.108  0.00  0.00    +0.124 HD
ATOM     10  C   LIG    1        2.990  -1.647   4.218  0.00  0.00    +0.127 C 
ATOM     11  S   LIG    1        2.567  -2.690   5.592  0.00  0.00    -0.101 S 
ATOM     12  C   LIG    1        4.140  -2.736   6.406  0.00  0.00    +0.071 A 
ATOM     13  C   LIG    1        4.621  -3.347   7.555  0.00  0.00    +0.136 A 
ATOM     14  N   LIG    1        5.900  -3.162   7.881  0.00  0.00    -0.220 NA
ATOM     15  C   LIG    1        6.675  -2.413   7.117  0.00  0.00    +0.223 A 
ATOM     16  N   LIG    1        6.255  -1.823   6.026  0.00  0.00    -0.239 NA
ATOM     17  C   LIG    1        4.976  -1.946   5.607  0.00  0.00    +0.065 A 
ATOM     18  C   LIG    1        4.350  -1.350   4.412  0.00  0.00    +0.070 C 
ATOM     19  O   LIG    1        6.070   1.368   1.792  0.00  0.00    -0.373 OA
ENDROOT
BRANCH   7  20
ATOM     20  N   LIG    1        2.125   0.070   1.217  0.00  0.00    -0.282 NA
ATOM     21  C   LIG    1        1.625  -1.039   0.392  0.00  0.00    +0.114 C 
ATOM     22  C   LIG    1        0.857  -0.471  -0.805  0.00  0.00    +0.175 C 
ATOM     23  O   LIG    1       -0.198   0.370  -0.332  0.00  0.00    -0.377 OA
ATOM     24  C   LIG    1        0.253   1.461   0.476  0.00  0.00    +0.175 C 
ATOM     25  C   LIG    1        1.015   0.912   1.685  0.00  0.00    +0.114 C 
ENDBRANCH   7  20
BRANCH   1  27
ATOM     26  C   LIG    1        8.901   1.538   1.215  0.00  0.00    +0.007 C 
ATOM     27  C   LIG    1        8.346   1.004   2.537  0.00  0.00    +0.031 C 
ENDBRANCH   1  27
BRANCH  13  28
ATOM     28  N   LIG    1        3.792  -4.129   8.345  0.00  0.00    -0.327 N 
ATOM     29  H   LIG    1        2.739  -4.272   8.063  0.00  0.00    +0.148 HD
BRANCH  28  30
ATOM     30  C   LIG    1        4.320  -4.764   9.555  0.00  0.00    +0.118 C 
BRANCH  30  31
ATOM     31  C   LIG    1        3.208  -5.564  10.237  0.00  0.00    +0.103 C 
BRANCH  31  32
ATOM     32  N   LIG    1        3.737  -6.201  11.450  0.00  0.00    -0.297 NA
ATOM     33  C   LIG    1        4.738  -7.224  11.114  0.00  0.00    +0.112 C 
ATOM     34  C   LIG    1        5.305  -7.819  12.406  0.00  0.00    +0.175 C 
ATOM     35  O   LIG    1        4.234  -8.348  13.192  0.00  0.00    -0.377 OA
ATOM     36  C   LIG    1        3.240  -7.379  13.538  0.00  0.00    +0.175 C 
ATOM     37  C   LIG    1        2.653  -6.779  12.258  0.00  0.00    +0.112 C 
ENDBRANCH  31  32
ENDBRANCH  30  31
ENDBRANCH  28  30
ENDBRANCH  13  28
TORSDOF 6
