REMARK  Name = ZINC40861910
REMARK                            x       y       z     vdW  Elec       q    Type
REMARK                         _______ _______ _______ _____ _____    ______ ____
ROOT
ATOM      1  C   LIG    1       -0.726  -1.002  -0.966  0.00  0.00    +0.120 A 
ATOM      2  C   LIG    1       -0.130  -0.124  -1.861  0.00  0.00    +0.046 A 
ATOM      3  C   LIG    1        0.692  -0.606  -2.859  0.00  0.00    +0.012 A 
ATOM      4  C   LIG    1        0.935  -1.970  -2.968  0.00  0.00    -0.013 A 
ATOM      5  C   LIG    1        0.314  -2.851  -2.078  0.00  0.00    -0.036 A 
ATOM      6  C   LIG    1        0.546  -4.330  -2.223  0.00  0.00    +0.040 C 
ATOM      7  C   LIG    1        0.659  -4.706  -3.700  0.00  0.00    +0.042 C 
ATOM      8  C   LIG    1        1.685  -3.851  -4.395  0.00  0.00    -0.015 A 
ATOM      9  C   LIG    1        2.419  -4.354  -5.466  0.00  0.00    +0.054 A 
ATOM     10  N   LIG    1        2.344  -5.518  -6.210  0.00  0.00    -0.337 N 
ATOM     11  C   LIG    1        3.386  -5.587  -7.104  0.00  0.00    +0.050 A 
ATOM     12  C   LIG    1        4.107  -4.376  -7.038  0.00  0.00    +0.008 A 
ATOM     13  C   LIG    1        5.220  -4.142  -7.844  0.00  0.00    +0.010 A 
ATOM     14  C   LIG    1        5.590  -5.161  -8.707  0.00  0.00    +0.001 A 
ATOM     15  C   LIG    1        4.889  -6.351  -8.770  0.00  0.00    +0.002 A 
ATOM     16  C   LIG    1        3.775  -6.596  -7.981  0.00  0.00    +0.026 A 
ATOM     17  C   LIG    1        3.446  -3.555  -6.022  0.00  0.00    +0.013 A 
ATOM     18  C   LIG    1        3.660  -2.267  -5.562  0.00  0.00    -0.008 A 
ATOM     19  C   LIG    1        4.615  -1.175  -5.982  0.00  0.00    +0.141 C 
ATOM     20  N   LIG    1        4.413  -0.076  -5.034  0.00  0.00    -0.307 N 
ATOM     21  H   LIG    1        4.895   0.766  -5.028  0.00  0.00    +0.149 HD
ATOM     22  C   LIG    1        3.443  -0.429  -4.170  0.00  0.00    +0.245 C 
ATOM     23  O   LIG    1        3.107   0.252  -3.220  0.00  0.00    -0.270 OA
ATOM     24  C   LIG    1        2.896  -1.748  -4.518  0.00  0.00    +0.050 A 
ATOM     25  C   LIG    1        1.844  -2.528  -3.994  0.00  0.00    -0.000 A 
ATOM     26  C   LIG    1       -0.507  -2.368  -1.084  0.00  0.00    +0.050 A 
ENDROOT
BRANCH   1  28
ATOM     27  C   LIG    1       -1.709   0.890   0.083  0.00  0.00    +0.277 C 
ATOM     28  O   LIG    1       -1.528  -0.526   0.021  0.00  0.00    -0.495 OA
ENDBRANCH   1  28
BRANCH  10  29
ATOM     29  C   LIG    1        1.305  -6.548  -6.124  0.00  0.00    +0.150 C 
BRANCH  29  30
ATOM     30  C   LIG    1        1.772  -7.668  -5.192  0.00  0.00    +0.177 C 
BRANCH  30  31
ATOM     31  O   LIG    1        0.714  -8.611  -5.012  0.00  0.00    -0.393 OA
ATOM     32  H   LIG    1        0.940  -9.351  -4.431  0.00  0.00    +0.209 HD
ENDBRANCH  30  31
ENDBRANCH  29  30
ENDBRANCH  10  29
TORSDOF 4
