REMARK  Name = ZINC13803778
REMARK                            x       y       z     vdW  Elec       q    Type
REMARK                         _______ _______ _______ _____ _____    ______ ____
ROOT
ATOM      1  C   LIG    1        1.173   3.564   0.009  0.00  0.00    +0.171 C 
ATOM      2  O   LIG    1        2.221   4.182   0.003  0.00  0.00    -0.292 OA
ENDROOT
BRANCH   1   6
ATOM      3  C   LIG    1        3.714  -0.730  -0.037  0.00  0.00    +0.045 C 
ATOM      4  C   LIG    1        2.405   0.017  -0.021  0.00  0.00    -0.031 A 
ATOM      5  C   LIG    1        2.400   1.396  -0.013  0.00  0.00    +0.016 A 
ATOM      6  C   LIG    1        1.185   2.086   0.002  0.00  0.00    +0.018 A 
ATOM      7  C   LIG    1       -0.017   1.374   0.010  0.00  0.00    +0.013 A 
ATOM      8  C   LIG    1        0.002  -0.004   0.002  0.00  0.00    +0.021 A 
ATOM      9  C   LIG    1        1.210  -0.683  -0.014  0.00  0.00    +0.044 A 
ATOM     10 CL   LIG    1        1.225  -2.419  -0.024  0.00  0.00    -0.083 Cl
ENDBRANCH   1   6
BRANCH   1  11
ATOM     11  C   LIG    1       -0.104   4.286   0.025  0.00  0.00    +0.166 C 
BRANCH  11  12
ATOM     12  C   LIG    1       -0.116   5.639   0.032  0.00  0.00    +0.247 C 
ATOM     13  O   LIG    1        1.050   6.326   0.025  0.00  0.00    -0.285 OA
BRANCH  12  14
ATOM     14  C   LIG    1       -1.405   6.369   0.048  0.00  0.00    +0.375 C 
ATOM     15  O   LIG    1       -2.451   5.752   0.054  0.00  0.00    -0.242 OA
BRANCH  14  16
ATOM     16  O   LIG    1       -1.416   7.716   0.055  0.00  0.00    -0.462 OA
ATOM     17  C   LIG    1       -2.716   8.363   0.070  0.00  0.00    +0.280 C 
ENDBRANCH  14  16
ENDBRANCH  12  14
ENDBRANCH  11  12
ENDBRANCH   1  11
TORSDOF 5
