REMARK  Name = ZINC28345987
REMARK                            x       y       z     vdW  Elec       q    Type
REMARK                         _______ _______ _______ _____ _____    ______ ____
ROOT
ATOM      1  C   LIG    1       -2.434   0.950   0.019  0.00  0.00    +0.042 A 
ATOM      2  C   LIG    1       -3.621   1.657   0.028  0.00  0.00    +0.113 A 
ATOM      3  N   LIG    1       -3.626   2.973   0.035  0.00  0.00    -0.250 NA
ATOM      4  C   LIG    1       -2.500   3.678   0.033  0.00  0.00    +0.127 A 
ATOM      5  C   LIG    1       -1.265   3.039   0.030  0.00  0.00    +0.055 A 
ATOM      6  C   LIG    1       -1.226   1.645   0.017  0.00  0.00    +0.028 A 
ENDROOT
BRANCH   4   7
ATOM      7  C   LIG    1       -2.560   5.158   0.042  0.00  0.00    +0.268 C 
ATOM      8  N   LIG    1       -3.754   5.784   0.051  0.00  0.00    -0.259 N 
ATOM      9  H   LIG    1       -4.684   5.195   0.052  0.00  0.00    +0.157 HD
ATOM     10  O   LIG    1       -1.534   5.808   0.040  0.00  0.00    -0.268 OA
BRANCH   8  11
ATOM     11  C   LIG    1       -3.811   7.171   0.058  0.00  0.00    +0.165 A 
ATOM     12  N   LIG    1       -2.820   8.041   0.064  0.00  0.00    -0.233 NA
ATOM     13  C   LIG    1       -3.050   9.339   0.067  0.00  0.00    +0.120 A 
ATOM     14  C   LIG    1       -4.336   9.767   0.076  0.00  0.00    +0.068 A 
ATOM     15  S   LIG    1       -5.205   8.206   0.071  0.00  0.00    -0.061 S 
ENDBRANCH   8  11
ENDBRANCH   4   7
BRANCH   6  16
ATOM     16  N   LIG    1       -0.011   0.966   0.007  0.00  0.00    -0.358 N 
ATOM     17  H   LIG    1        0.004  -0.134   0.001  0.00  0.00    +0.142 HD
ATOM     18  H   LIG    1        0.934   1.529   0.006  0.00  0.00    +0.142 HD
ENDBRANCH   6  16
TORSDOF 3
