REMARK  Name = ZINC13779555
REMARK                            x       y       z     vdW  Elec       q    Type
REMARK                         _______ _______ _______ _____ _____    ______ ____
ROOT
ATOM      1  C   LIG    1       -0.612   1.097  -0.451  0.00  0.00    +0.007 C 
ATOM      2  C   LIG    1       -0.245  -0.382  -0.309  0.00  0.00    -0.013 C 
ATOM      3  C   LIG    1       -1.514  -1.233  -0.402  0.00  0.00    +0.006 C 
ATOM      4  C   LIG    1       -1.147  -2.712  -0.259  0.00  0.00    -0.013 C 
ATOM      5  C   LIG    1       -2.415  -3.563  -0.353  0.00  0.00    +0.007 C 
ATOM      6  C   LIG    1       -0.476  -2.942   1.097  0.00  0.00    +0.009 C 
ATOM      7  C   LIG    1        0.791  -2.091   1.190  0.00  0.00    -0.034 C 
ATOM      8  C   LIG    1        0.425  -0.613   1.047  0.00  0.00    +0.009 C 
ENDROOT
BRANCH   7   9
ATOM      9  C   LIG    1        1.462  -2.322   2.546  0.00  0.00    -0.079 C 
BRANCH   9  10
ATOM     10  N   LIG    1        2.746  -1.609   2.585  0.00  0.00    +0.378 N 
ATOM     11  H   LIG    1        3.193  -1.770   3.475  0.00  0.00    -0.090 HD
ATOM     12  H   LIG    1        2.585  -0.620   2.463  0.00  0.00    -0.090 HD
ATOM     13  H   LIG    1        3.341  -1.947   1.843  0.00  0.00    -0.090 HD
ENDBRANCH   9  10
ENDBRANCH   7   9
BRANCH   7  14
ATOM     14  C   LIG    1        1.756  -2.488   0.070  0.00  0.00    +0.125 C 
BRANCH  14  15
ATOM     15  C   LIG    1        2.155  -3.931   0.239  0.00  0.00    +0.305 C 
ATOM     16  O   LIG    1        1.651  -4.604   1.122  0.00  0.00    -0.251 OA
BRANCH  15  17
ATOM     17  O   LIG    1        2.983  -4.426  -0.506  0.00  0.00    -0.481 OA
ATOM     18  H   LIG    1        3.371  -3.908  -1.185  0.00  0.00    +0.295 HD
ENDBRANCH  15  17
ENDBRANCH  14  15
ENDBRANCH   7  14
TORSDOF 5
