REMARK  Name = ZINC19685795
REMARK                            x       y       z     vdW  Elec       q    Type
REMARK                         _______ _______ _______ _____ _____    ______ ____
ROOT
ATOM      1  C   LIG    1       -2.252  -0.342  -0.437  0.00  0.00    +0.338 C 
ATOM      2  O   LIG    1       -2.131   0.870  -0.416  0.00  0.00    -0.245 OA
ENDROOT
BRANCH   1   5
ATOM      3  C   LIG    1        0.289   0.877  -0.584  0.00  0.00    +0.066 C 
ATOM      4  C   LIG    1        0.140  -0.623  -0.608  0.00  0.00    +0.049 C 
ATOM      5  C   LIG    1       -1.113  -1.160  -0.534  0.00  0.00    +0.069 C 
ATOM      6  C   LIG    1       -1.231  -2.673  -0.562  0.00  0.00    +0.096 C 
ATOM      7  C   LIG    1        0.077  -3.437  -0.670  0.00  0.00    +0.065 C 
ATOM      8  C   LIG    1        1.250  -2.683  -0.733  0.00  0.00    +0.049 C 
ATOM      9  C   LIG    1        2.574  -3.394  -0.840  0.00  0.00    +0.066 C 
ATOM     10  C   LIG    1        0.104  -4.814  -0.704  0.00  0.00    +0.285 C 
ATOM     11  N   LIG    1        1.229  -1.370  -0.705  0.00  0.00    -0.256 NA
BRANCH   6  12
ATOM     12  C   LIG    1       -2.094  -3.057  -1.736  0.00  0.00    -0.033 A 
ATOM     13  C   LIG    1       -1.708  -2.714  -3.019  0.00  0.00    +0.005 A 
ATOM     14  C   LIG    1       -2.500  -3.066  -4.096  0.00  0.00    +0.003 A 
ATOM     15  C   LIG    1       -3.678  -3.761  -3.890  0.00  0.00    +0.032 A 
ATOM     16  C   LIG    1       -4.063  -4.104  -2.608  0.00  0.00    +0.122 A 
ATOM     17  C   LIG    1       -3.269  -3.756  -1.531  0.00  0.00    +0.037 A 
BRANCH  16  18
ATOM     18  N   LIG    1       -5.324  -4.847  -2.388  0.00  0.00    +0.006 N 
ATOM     19  O   LIG    1       -6.017  -5.154  -3.330  0.00  0.00    -0.130 OA
BRANCH  18  20
ATOM     20  O   LIG    1       -5.661  -5.147  -1.266  0.00  0.00    -0.396 OA
ATOM     21  H   LIG    1       -5.124  -4.909  -0.536  0.00  0.00    +0.329 HD
ENDBRANCH  18  20
ENDBRANCH  16  18
ENDBRANCH   6  12
BRANCH  10  22
ATOM     22  O   LIG    1       -1.031  -5.516  -0.516  0.00  0.00    -0.467 OA
ATOM     23  C   LIG    1       -0.929  -6.940  -0.565  0.00  0.00    +0.280 C 
ENDBRANCH  10  22
BRANCH  10  24
ATOM     24  O   LIG    1        1.266  -5.460  -0.927  0.00  0.00    -0.480 OA
ATOM     25  H   LIG    1        2.055  -4.972  -1.058  0.00  0.00    +0.295 HD
ENDBRANCH  10  24
ENDBRANCH   1   5
BRANCH   1  26
ATOM     26  O   LIG    1       -3.480  -0.900  -0.365  0.00  0.00    -0.460 OA
BRANCH  26  27
ATOM     27  C   LIG    1       -4.593  -0.008  -0.268  0.00  0.00    +0.248 C 
BRANCH  27  28
ATOM     28  C   LIG    1       -5.889  -0.817  -0.198  0.00  0.00    +0.125 C 
BRANCH  28  29
ATOM     29  N   LIG    1       -5.902  -1.616   1.035  0.00  0.00    -0.303 NA
ATOM     30  C   LIG    1       -6.874  -2.715   0.941  0.00  0.00    +0.066 C 
ATOM     31  C   LIG    1       -6.814  -3.556   2.218  0.00  0.00    -0.062 C 
ATOM     32  N   LIG    1       -7.120  -2.708   3.377  0.00  0.00    +0.389 N 
ATOM     33  H   LIG    1       -8.040  -2.308   3.269  0.00  0.00    -0.080 HD
ATOM     34  C   LIG    1       -6.127  -1.629   3.473  0.00  0.00    -0.062 C 
ATOM     35  C   LIG    1       -6.181  -0.772   2.206  0.00  0.00    +0.066 C 
BRANCH  32  36
ATOM     36  C   LIG    1       -7.080  -3.519   4.601  0.00  0.00    -0.007 C 
BRANCH  36  37
ATOM     37  C   LIG    1       -8.100  -4.624   4.504  0.00  0.00    -0.057 A 
ATOM     38  C   LIG    1       -9.339  -4.375   3.945  0.00  0.00    +0.002 A 
ATOM     39  C   LIG    1      -10.274  -5.389   3.856  0.00  0.00    +0.000 A 
ATOM     40  C   LIG    1       -9.970  -6.653   4.326  0.00  0.00    +0.000 A 
ATOM     41  C   LIG    1       -8.731  -6.902   4.885  0.00  0.00    +0.000 A 
ATOM     42  C   LIG    1       -7.794  -5.890   4.970  0.00  0.00    +0.002 A 
ENDBRANCH  36  37
BRANCH  36  43
ATOM     43  C   LIG    1       -7.394  -2.649   5.791  0.00  0.00    -0.057 A 
ATOM     44  C   LIG    1       -8.384  -1.688   5.703  0.00  0.00    +0.002 A 
ATOM     45  C   LIG    1       -8.672  -0.890   6.795  0.00  0.00    +0.000 A 
ATOM     46  C   LIG    1       -7.970  -1.054   7.974  0.00  0.00    +0.000 A 
ATOM     47  C   LIG    1       -6.980  -2.015   8.063  0.00  0.00    +0.000 A 
ATOM     48  C   LIG    1       -6.695  -2.816   6.973  0.00  0.00    +0.002 A 
ENDBRANCH  36  43
ENDBRANCH  32  36
ENDBRANCH  28  29
ENDBRANCH  27  28
ENDBRANCH  26  27
ENDBRANCH   1  26
TORSDOF 13
