REMARK  Name = ZINC36243082
REMARK                            x       y       z     vdW  Elec       q    Type
REMARK                         _______ _______ _______ _____ _____    ______ ____
ROOT
ATOM      1  C   LIG    1       -0.019   1.526   0.010  0.00  0.00    +0.026 C 
ATOM      2  C   LIG    1        1.417   2.055  -0.000  0.00  0.00    -0.041 C 
ATOM      3  C   LIG    1        2.133   1.562  -1.259  0.00  0.00    +0.131 C 
ATOM      4  C   LIG    1        2.154   0.032  -1.268  0.00  0.00    +0.173 C 
ATOM      5  C   LIG    1        0.718  -0.497  -1.257  0.00  0.00    +0.179 C 
ATOM      6  C   LIG    1        0.002  -0.004   0.002  0.00  0.00    +0.116 C 
ENDROOT
BRANCH   2   7
ATOM      7  N   LIG    1        1.397   3.524   0.008  0.00  0.00    +0.382 N 
ATOM      8  H   LIG    1        0.909   3.858  -0.810  0.00  0.00    -0.090 HD
ATOM      9  H   LIG    1        2.343   3.873   0.001  0.00  0.00    -0.090 HD
ATOM     10  H   LIG    1        0.924   3.850   0.838  0.00  0.00    -0.090 HD
ENDBRANCH   2   7
BRANCH   3  11
ATOM     11  O   LIG    1        1.442   2.035  -2.417  0.00  0.00    -0.391 OA
ATOM     12  H   LIG    1        1.841   1.760  -3.253  0.00  0.00    +0.210 HD
ENDBRANCH   3  11
BRANCH   4  13
ATOM     13  O   LIG    1        2.822  -0.429  -2.443  0.00  0.00    -0.387 OA
ATOM     14  H   LIG    1        3.739  -0.131  -2.517  0.00  0.00    +0.210 HD
ENDBRANCH   4  13
BRANCH   5  15
ATOM     15  O   LIG    1        0.027  -0.024  -2.414  0.00  0.00    -0.386 OA
ATOM     16  H   LIG    1        0.426  -0.299  -3.251  0.00  0.00    +0.210 HD
ENDBRANCH   5  15
BRANCH   6  17
ATOM     17  O   LIG    1        0.693  -0.477   1.160  0.00  0.00    -0.384 OA
ATOM     18  H   LIG    1        0.745  -1.441   1.220  0.00  0.00    +0.210 HD
ENDBRANCH   6  17
BRANCH   6  19
ATOM     19  C   LIG    1       -1.433  -0.534   0.013  0.00  0.00    +0.193 C 
BRANCH  19  20
ATOM     20  O   LIG    1       -1.414  -1.962   0.005  0.00  0.00    -0.392 OA
ATOM     21  H   LIG    1       -2.292  -2.368   0.011  0.00  0.00    +0.210 HD
ENDBRANCH  19  20
ENDBRANCH   6  19
TORSDOF 7
