REMARK  Name = ZINC18144244
REMARK                            x       y       z     vdW  Elec       q    Type
REMARK                         _______ _______ _______ _____ _____    ______ ____
ROOT
ATOM      1  C   LIG    1        1.252  -2.159  -0.023  0.00  0.00    +0.253 C 
ATOM      2  N   LIG    1        1.253  -2.826  -1.194  0.00  0.00    -0.251 N 
ATOM      3  H   LIG    1        1.235  -2.336  -2.031  0.00  0.00    +0.158 HD
ATOM      4  O   LIG    1        1.274  -2.773   1.026  0.00  0.00    -0.270 OA
ENDROOT
BRANCH   1  11
ATOM      5  C   LIG    1       -0.017   1.376   0.010  0.00  0.00    +0.022 A 
ATOM      6  C   LIG    1        1.170   2.088   0.002  0.00  0.00    +0.023 A 
ATOM      7  C   LIG    1        2.384   1.423  -0.013  0.00  0.00    +0.060 A 
ATOM      8 CL   LIG    1        3.866   2.327  -0.022  0.00  0.00    -0.082 Cl
ATOM      9  C   LIG    1        2.418   0.042  -0.021  0.00  0.00    +0.073 A 
ATOM     10 CL   LIG    1        3.942  -0.791  -0.042  0.00  0.00    -0.081 Cl
ATOM     11  C   LIG    1        1.224  -0.683  -0.014  0.00  0.00    +0.075 A 
ATOM     12  C   LIG    1        0.002  -0.004   0.002  0.00  0.00    +0.055 A 
ATOM     13 CL   LIG    1       -1.488  -0.894   0.012  0.00  0.00    -0.083 Cl
ENDBRANCH   1  11
BRANCH   2  14
ATOM     14  C   LIG    1        1.279  -4.213  -1.203  0.00  0.00    +0.217 A 
ATOM     15  N   LIG    1        1.311  -5.014  -0.117  0.00  0.00    -0.247 N 
ATOM     16  H   LIG    1        1.322  -4.730   0.825  0.00  0.00    +0.192 HD
ATOM     17  N   LIG    1        1.326  -6.332  -0.599  0.00  0.00    -0.160 NA
ATOM     18  C   LIG    1        1.311  -6.262  -1.904  0.00  0.00    +0.246 A 
ATOM     19  N   LIG    1        1.283  -4.981  -2.271  0.00  0.00    -0.201 NA
ENDBRANCH   2  14
TORSDOF 2
