REMARK  Name = ZINC28530394
REMARK                            x       y       z     vdW  Elec       q    Type
REMARK                         _______ _______ _______ _____ _____    ______ ____
ROOT
ATOM      1  C   LIG    1        0.826   5.120   0.022  0.00  0.00    +0.139 A 
ATOM      2  C   LIG    1        2.200   5.044   0.008  0.00  0.00    +0.051 A 
ATOM      3  C   LIG    1        2.534   3.687   0.003  0.00  0.00    +0.057 A 
ATOM      4  C   LIG    1        1.347   2.985   0.005  0.00  0.00    +0.212 A 
ATOM      5  O   LIG    1        0.330   3.872   0.020  0.00  0.00    -0.448 OA
ENDROOT
BRANCH   1  10
ATOM      6  C   LIG    1       -0.430   8.528   0.971  0.00  0.00    +0.001 A 
ATOM      7  C   LIG    1       -1.461   8.701   0.064  0.00  0.00    +0.004 A 
ATOM      8  C   LIG    1       -1.753   7.714  -0.859  0.00  0.00    +0.046 A 
ATOM      9  C   LIG    1       -1.010   6.545  -0.884  0.00  0.00    +0.127 A 
ATOM     10  C   LIG    1        0.032   6.364   0.036  0.00  0.00    +0.059 A 
ATOM     11  C   LIG    1        0.317   7.369   0.963  0.00  0.00    +0.015 A 
BRANCH   9  12
ATOM     12  O   LIG    1       -1.292   5.577  -1.794  0.00  0.00    -0.506 OA
ATOM     13  H   LIG    1       -0.700   4.650  -1.812  0.00  0.00    +0.292 HD
ENDBRANCH   9  12
ENDBRANCH   1  10
BRANCH   4  14
ATOM     14  C   LIG    1        1.214   1.528  -0.001  0.00  0.00    +0.372 C 
ATOM     15  O   LIG    1        2.208   0.827  -0.015  0.00  0.00    -0.242 OA
BRANCH  14  16
ATOM     16  O   LIG    1       -0.011   0.963   0.007  0.00  0.00    -0.475 OA
ATOM     17  H   LIG    1       -0.776   1.503   0.018  0.00  0.00    +0.296 HD
ENDBRANCH  14  16
ENDBRANCH   4  14
TORSDOF 4
