REMARK  Name = ZINC58655676
REMARK                            x       y       z     vdW  Elec       q    Type
REMARK                         _______ _______ _______ _____ _____    ______ ____
ROOT
ATOM      1  C   UNK A  0       -1.020  -0.254  -0.070  0.00  0.00    +0.019 A 
ATOM      2  C   UNK A  0       -1.910   0.117   0.929  0.00  0.00    +0.141 A 
ATOM      3  N   UNK A  0       -3.084  -0.410   0.671  0.00  0.00    -0.171 NA
ATOM      4  N   UNK A  0       -2.997  -1.147  -0.515  0.00  0.00    -0.200 N 
ATOM      5  C   UNK A  0       -3.918  -1.883  -1.218  0.00  0.00    +0.126 A 
ATOM      6  C   UNK A  0       -3.535  -2.495  -2.375  0.00  0.00    +0.087 A 
ATOM      7  C   UNK A  0       -2.207  -2.367  -2.813  0.00  0.00    +0.125 A 
ATOM      8  N   UNK A  0       -1.342  -1.655  -2.113  0.00  0.00    -0.213 NA
ATOM      9  C   UNK A  0       -1.712  -1.044  -0.977  0.00  0.00    +0.163 A 
ENDROOT
BRANCH   1  11
ATOM     10  C   UNK A  0        0.549   1.661  -0.222  0.00  0.00    +0.012 C 
ATOM     11  C   UNK A  0        0.433   0.137  -0.158  0.00  0.00    +0.018 C 
ATOM     12  C   UNK A  0        1.175  -0.379   1.077  0.00  0.00    +0.012 C 
ENDBRANCH   1  11
BRANCH   5  13
ATOM     13  N   UNK A  0       -5.217  -1.991  -0.766  0.00  0.00    -0.325 N 
ATOM     14  H   UNK A  0       -5.485  -1.545   0.052  0.00  0.00    +0.148 HD
BRANCH  13  15
ATOM     15  C   UNK A  0       -6.192  -2.779  -1.524  0.00  0.00    +0.138 C 
BRANCH  15  16
ATOM     16  C   UNK A  0       -7.526  -2.736  -0.823  0.00  0.00    -0.030 A 
ATOM     17  C   UNK A  0       -7.836  -3.688   0.130  0.00  0.00    +0.005 A 
ATOM     18  C   UNK A  0       -9.059  -3.649   0.773  0.00  0.00    +0.000 A 
ATOM     19  C   UNK A  0       -9.972  -2.658   0.463  0.00  0.00    +0.000 A 
ATOM     20  C   UNK A  0       -9.661  -1.706  -0.490  0.00  0.00    +0.000 A 
ATOM     21  C   UNK A  0       -8.437  -1.743  -1.130  0.00  0.00    +0.005 A 
ENDBRANCH  15  16
ENDBRANCH  13  15
ENDBRANCH   5  13
BRANCH   7  22
ATOM     22  N   UNK A  1       -1.803  -2.989  -3.983  0.00  0.00    -0.321 N 
ATOM     23  H   UNK A  1       -2.437  -3.512  -4.498  0.00  0.00    +0.148 HD
BRANCH  22  24
ATOM     24  C   UNK A  1       -0.418  -2.857  -4.443  0.00  0.00    +0.128 C 
BRANCH  24  25
ATOM     25  C   UNK A  1       -0.362  -3.059  -5.958  0.00  0.00    +0.162 C 
BRANCH  25  26
ATOM     26  O   UNK A  1        0.994  -2.975  -6.400  0.00  0.00    -0.388 OA
ATOM     27  H   UNK A  1        1.441  -2.156  -6.145  0.00  0.00    +0.210 HD
ENDBRANCH  25  26
BRANCH  25  28
ATOM     28  C   UNK A  1       -1.192  -1.974  -6.649  0.00  0.00    +0.189 C 
BRANCH  28  29
ATOM     29  O   UNK A  1       -1.235  -2.229  -8.054  0.00  0.00    -0.392 OA
ATOM     30  H   UNK A  1       -1.745  -1.580  -8.556  0.00  0.00    +0.210 HD
ENDBRANCH  28  29
ENDBRANCH  25  28
ENDBRANCH  24  25
BRANCH  24  31
ATOM     31  C   UNK A  1        0.450  -3.912  -3.755  0.00  0.00    +0.180 C 
BRANCH  31  32
ATOM     32  O   UNK A  1        0.028  -5.215  -4.161  0.00  0.00    -0.393 OA
ATOM     33  H   UNK A  1        0.535  -5.935  -3.763  0.00  0.00    +0.209 HD
ENDBRANCH  31  32
ENDBRANCH  24  31
ENDBRANCH  22  24
ENDBRANCH   7  22
TORSDOF 12
