REMARK  Name = ZINC43465534
REMARK                            x       y       z     vdW  Elec       q    Type
REMARK                         _______ _______ _______ _____ _____    ______ ____
ROOT
ATOM      1  N   LIG    1       -1.227  -1.024   0.216  0.00  0.00    -0.243 N 
ATOM      2  C   LIG    1       -1.901  -1.388  -0.911  0.00  0.00    +0.164 A 
ATOM      3  C   LIG    1       -3.246  -1.576  -0.541  0.00  0.00    +0.086 A 
ATOM      4  C   LIG    1       -4.167  -1.960  -1.529  0.00  0.00    +0.131 A 
ATOM      5  N   LIG    1       -3.725  -2.129  -2.772  0.00  0.00    -0.220 NA
ATOM      6  C   LIG    1       -2.453  -1.941  -3.075  0.00  0.00    +0.225 A 
ATOM      7  C   LIG    1       -3.323  -1.297   0.893  0.00  0.00    +0.105 A 
ATOM      8  N   LIG    1       -1.556  -1.581  -2.184  0.00  0.00    -0.216 NA
ATOM      9  N   LIG    1       -2.114  -0.983   1.297  0.00  0.00    -0.168 NA
ENDROOT
BRANCH   7  10
ATOM     10  C   LIG    1       -4.540  -1.364   1.735  0.00  0.00    +0.006 A 
ATOM     11  C   LIG    1       -5.411  -2.449   1.617  0.00  0.00    +0.011 A 
ATOM     12  C   LIG    1       -6.534  -2.516   2.391  0.00  0.00    +0.022 A 
ATOM     13  C   LIG    1       -6.819  -1.497   3.305  0.00  0.00    +0.087 A 
ATOM     14  C   LIG    1       -5.949  -0.406   3.428  0.00  0.00    +0.141 A 
ATOM     15  F   LIG    1       -6.220   0.581   4.309  0.00  0.00    -0.204 F 
ATOM     16  C   LIG    1       -4.811  -0.345   2.648  0.00  0.00    +0.049 A 
BRANCH  13  17
ATOM     17  C   LIG    1       -7.998  -1.568   4.114  0.00  0.00    +0.102 C 
ATOM     18  N   LIG    1       -8.933  -1.624   4.756  0.00  0.00    -0.191 NA
ENDBRANCH  13  17
ENDBRANCH   7  10
BRANCH   1  20
ATOM     19  C   LIG    1        0.407   0.707   0.778  0.00  0.00    +0.032 C 
ATOM     20  C   LIG    1        0.206  -0.728   0.287  0.00  0.00    +0.103 C 
ATOM     21  C   LIG    1        0.880  -1.698   1.259  0.00  0.00    +0.032 C 
ENDBRANCH   1  20
BRANCH   4  22
ATOM     22  N   LIG    1       -5.498  -2.159  -1.218  0.00  0.00    -0.342 N 
ATOM     23  H   LIG    1       -6.074  -2.639  -1.833  0.00  0.00    +0.144 HD
ATOM     24  H   LIG    1       -5.857  -1.818  -0.384  0.00  0.00    +0.144 HD
ENDBRANCH   4  22
TORSDOF 4
