REMARK  Name = ZINC29333991
REMARK                            x       y       z     vdW  Elec       q    Type
REMARK                         _______ _______ _______ _____ _____    ______ ____
ROOT
ATOM      1  C   LIG    1        3.496  -2.086   1.180  0.00  0.00    -0.046 C 
ATOM      2  C   LIG    1        3.454  -0.560   1.298  0.00  0.00    +0.144 C 
ATOM      3  O   LIG    1        2.097  -0.116   1.204  0.00  0.00    -0.379 OA
ATOM      4  C   LIG    1        1.451  -0.494  -0.015  0.00  0.00    +0.112 C 
ATOM      5  C   LIG    1        1.474  -2.019  -0.146  0.00  0.00    -0.050 C 
ATOM      6  N   LIG    1        2.865  -2.491  -0.084  0.00  0.00    +0.384 N 
ATOM      7  H   LIG    1        2.871  -3.589  -0.162  0.00  0.00    -0.085 HD
ATOM      8  H   LIG    1        3.424  -2.061  -0.928  0.00  0.00    -0.085 HD
ENDROOT
BRANCH   1  10
ATOM      9  C   LIG    1        2.882  -4.233   2.300  0.00  0.00    +0.002 C 
ATOM     10  C   LIG    1        2.739  -2.711   2.353  0.00  0.00    -0.017 C 
ENDBRANCH   1  10
BRANCH   4  11
ATOM     11  C   LIG    1        0.002  -0.004   0.002  0.00  0.00    +0.150 C 
BRANCH  11  12
ATOM     12  C   LIG    1       -0.018   1.503   0.010  0.00  0.00    +0.307 C 
ATOM     13  O   LIG    1        1.020   2.121   0.004  0.00  0.00    -0.251 OA
BRANCH  12  14
ATOM     14  O   LIG    1       -1.190   2.158   0.019  0.00  0.00    -0.481 OA
ATOM     15  H   LIG    1       -1.995   1.678   0.025  0.00  0.00    +0.295 HD
ENDBRANCH  12  14
ENDBRANCH  11  12
ENDBRANCH   4  11
TORSDOF 4
