REMARK  Name = ZINC13831927
REMARK                            x       y       z     vdW  Elec       q    Type
REMARK                         _______ _______ _______ _____ _____    ______ ____
ROOT
ATOM      1  C   LIG    1       -0.782   1.596   1.290  0.00  0.00    +0.110 A 
ATOM      2  N   LIG    1       -1.671   0.940   1.990  0.00  0.00    -0.240 NA
ATOM      3  C   LIG    1       -2.049   1.671   3.039  0.00  0.00    +0.138 A 
ATOM      4  C   LIG    1       -1.349   2.861   2.991  0.00  0.00    +0.062 A 
ATOM      5  N   LIG    1       -0.544   2.788   1.870  0.00  0.00    -0.324 N 
ENDROOT
BRANCH   4   6
ATOM      6  C   LIG    1       -1.436   3.937   3.909  0.00  0.00    +0.034 C 
ATOM      7  C   LIG    1       -2.196   3.816   5.027  0.00  0.00    +0.093 C 
BRANCH   7   8
ATOM      8  C   LIG    1       -2.198   4.846   5.994  0.00  0.00    +0.330 C 
ATOM      9  O   LIG    1       -1.518   5.841   5.825  0.00  0.00    -0.246 OA
BRANCH   8  10
ATOM     10  O   LIG    1       -2.954   4.726   7.106  0.00  0.00    -0.478 OA
ATOM     11  H   LIG    1       -3.477   3.960   7.236  0.00  0.00    +0.295 HD
ENDBRANCH   8  10
ENDBRANCH   7   8
ENDBRANCH   4   6
BRANCH   1  12
ATOM     12  C   LIG    1       -0.120   1.094   0.032  0.00  0.00    +0.074 C 
BRANCH  12  13
ATOM     13  C   LIG    1       -0.881   1.616  -1.188  0.00  0.00    +0.007 C 
BRANCH  13  15
ATOM     14  C   LIG    1       -0.901   1.732  -3.684  0.00  0.00    +0.004 C 
ATOM     15  C   LIG    1       -0.140   1.209  -2.463  0.00  0.00    -0.003 C 
ENDBRANCH  13  15
ENDBRANCH  12  13
ENDBRANCH   1  12
BRANCH   5  16
ATOM     16  C   LIG    1        0.389   3.815   1.400  0.00  0.00    +0.158 C 
BRANCH  16  17
ATOM     17  C   LIG    1        1.762   3.537   1.954  0.00  0.00    -0.028 A 
ATOM     18  C   LIG    1        2.091   3.968   3.227  0.00  0.00    +0.006 A 
ATOM     19  C   LIG    1        3.345   3.713   3.742  0.00  0.00    +0.015 A 
ATOM     20  C   LIG    1        4.287   3.027   2.972  0.00  0.00    +0.059 A 
ATOM     21  C   LIG    1        3.950   2.600   1.686  0.00  0.00    +0.015 A 
ATOM     22  C   LIG    1        2.690   2.857   1.185  0.00  0.00    +0.006 A 
BRANCH  20  23
ATOM     23  C   LIG    1        5.633   2.755   3.515  0.00  0.00    +0.337 C 
ATOM     24  O   LIG    1        6.450   2.158   2.843  0.00  0.00    -0.245 OA
BRANCH  23  25
ATOM     25  O   LIG    1        5.955   3.169   4.756  0.00  0.00    -0.477 OA
ATOM     26  H   LIG    1        5.325   3.629   5.275  0.00  0.00    +0.295 HD
ENDBRANCH  23  25
ENDBRANCH  20  23
ENDBRANCH  16  17
ENDBRANCH   5  16
TORSDOF 10
