REMARK  Name = ZINC44125484
REMARK                            x       y       z     vdW  Elec       q    Type
REMARK                         _______ _______ _______ _____ _____    ______ ____
ROOT
ATOM      1  C   LIG    1       -0.019   1.526   0.010  0.00  0.00    +0.013 C 
ATOM      2  C   LIG    1        0.002  -0.004   0.002  0.00  0.00    +0.028 C 
ENDROOT
BRANCH   2   3
ATOM      3  C   LIG    1       -1.412  -0.526   0.013  0.00  0.00    -0.043 A 
ATOM      4  C   LIG    1       -2.276  -0.202  -1.017  0.00  0.00    +0.004 A 
ATOM      5  C   LIG    1       -3.572  -0.681  -1.007  0.00  0.00    +0.000 A 
ATOM      6  C   LIG    1       -4.005  -1.483   0.032  0.00  0.00    +0.000 A 
ATOM      7  C   LIG    1       -3.141  -1.807   1.061  0.00  0.00    +0.000 A 
ATOM      8  C   LIG    1       -1.843  -1.332   1.049  0.00  0.00    +0.004 A 
ENDBRANCH   2   3
BRANCH   2   9
ATOM      9  C   LIG    1        0.718  -0.497  -1.257  0.00  0.00    +0.073 C 
BRANCH   9  10
ATOM     10  N   LIG    1        2.129  -0.090  -1.209  0.00  0.00    -0.358 NA
ATOM     11  C   LIG    1        2.798  -0.358  -2.489  0.00  0.00    +0.084 C 
BRANCH  10  12
ATOM     12  N   LIG    1        2.823  -0.744  -0.112  0.00  0.00    +0.389 N 
ATOM     13  H   LIG    1        2.384  -0.492   0.761  0.00  0.00    -0.065 HD
ATOM     14  H   LIG    1        3.788  -0.448  -0.100  0.00  0.00    -0.065 HD
ATOM     15  H   LIG    1        2.780  -1.744  -0.234  0.00  0.00    -0.065 HD
ENDBRANCH  10  12
ENDBRANCH   9  10
ENDBRANCH   2   9
TORSDOF 4
