REMARK  Name = ZINC53214756
REMARK                            x       y       z     vdW  Elec       q    Type
REMARK                         _______ _______ _______ _____ _____    ______ ____
ROOT
ATOM      1  N   LIG    1        0.046   0.287   2.253  0.00  0.00    -0.245 N 
ATOM      2  C   LIG    1        1.208   0.442   2.920  0.00  0.00    +0.271 A 
ATOM      3  C   LIG    1        1.188   1.133   4.215  0.00  0.00    +0.101 A 
ATOM      4  C   LIG    1        2.345   1.335   4.968  0.00  0.00    +0.131 A 
ATOM      5  N   LIG    1        2.240   1.967   6.125  0.00  0.00    -0.222 NA
ATOM      6  C   LIG    1        1.065   2.402   6.566  0.00  0.00    +0.221 A 
ATOM      7  N   LIG    1       -0.059   2.230   5.882  0.00  0.00    -0.196 NA
ATOM      8  C   LIG    1       -0.042   1.607   4.714  0.00  0.00    +0.158 A 
ATOM      9  N   LIG    1       -1.192   1.411   3.973  0.00  0.00    -0.261 N 
ATOM     10  C   LIG    1       -2.513   1.762   4.208  0.00  0.00    +0.077 A 
ATOM     11  C   LIG    1       -3.163   2.420   5.241  0.00  0.00    +0.028 A 
ATOM     12  C   LIG    1       -4.527   2.619   5.177  0.00  0.00    +0.002 A 
ATOM     13  C   LIG    1       -5.253   2.164   4.086  0.00  0.00    +0.002 A 
ATOM     14  C   LIG    1       -4.620   1.530   3.040  0.00  0.00    +0.030 A 
ATOM     15  C   LIG    1       -3.240   1.314   3.093  0.00  0.00    +0.092 A 
ATOM     16  N   LIG    1       -2.358   0.713   2.256  0.00  0.00    -0.211 NA
ATOM     17  O   LIG    1        2.250   0.019   2.458  0.00  0.00    -0.266 OA
ATOM     18  C   LIG    1       -1.146   0.769   2.765  0.00  0.00    +0.225 A 
ENDROOT
BRANCH   1  26
ATOM     19  C   LIG    1        0.433   1.846  -0.097  0.00  0.00    +0.046 C 
ATOM     20  C   LIG    1        0.232   0.353  -0.155  0.00  0.00    -0.026 A 
ATOM     21  C   LIG    1        0.237  -0.297  -1.373  0.00  0.00    +0.005 A 
ATOM     22  C   LIG    1        0.053  -1.667  -1.428  0.00  0.00    +0.001 A 
ATOM     23  C   LIG    1       -0.138  -2.389  -0.264  0.00  0.00    +0.005 A 
ATOM     24  C   LIG    1       -0.144  -1.744   0.957  0.00  0.00    -0.026 A 
ATOM     25  C   LIG    1       -0.352  -2.531   2.225  0.00  0.00    +0.046 C 
ATOM     26  C   LIG    1        0.047  -0.369   1.016  0.00  0.00    +0.059 A 
ENDBRANCH   1  26
BRANCH   6  27
ATOM     27  N   LIG    1        1.011   3.055   7.781  0.00  0.00    -0.284 N 
ATOM     28  H   LIG    1        0.154   3.308   8.158  0.00  0.00    +0.155 HD
BRANCH  27  29
ATOM     29  C   LIG    1        2.192   3.353   8.468  0.00  0.00    +0.034 A 
ATOM     30  C   LIG    1        3.347   3.667   7.763  0.00  0.00    +0.025 A 
ATOM     31  C   LIG    1        4.511   3.961   8.444  0.00  0.00    +0.023 A 
ATOM     32  C   LIG    1        4.529   3.942   9.827  0.00  0.00    +0.013 A 
ATOM     33  C   LIG    1        3.381   3.630  10.532  0.00  0.00    +0.023 A 
ATOM     34  C   LIG    1        2.211   3.341   9.856  0.00  0.00    +0.025 A 
BRANCH  32  35
ATOM     35  N   LIG    1        5.709   4.240  10.514  0.00  0.00    -0.397 NA
ATOM     36  H   LIG    1        6.442   4.443   9.850  0.00  0.00    +0.126 HD
ATOM     37  C   LIG    1        6.100   3.088  11.338  0.00  0.00    +0.066 C 
ATOM     38  C   LIG    1        7.392   3.414  12.089  0.00  0.00    -0.062 C 
ATOM     39  N   LIG    1        7.176   4.583  12.952  0.00  0.00    +0.380 N 
ATOM     40  H   LIG    1        6.443   4.380  13.616  0.00  0.00    -0.082 HD
ATOM     41  C   LIG    1        8.416   4.896  13.674  0.00  0.00    -0.096 C 
ATOM     42  C   LIG    1        6.785   5.735  12.128  0.00  0.00    -0.062 C 
ATOM     43  C   LIG    1        5.493   5.409  11.377  0.00  0.00    +0.066 C 
ENDBRANCH  32  35
ENDBRANCH  27  29
ENDBRANCH   6  27
TORSDOF 4
