REMARK  Name = ZINC13861871
REMARK                            x       y       z     vdW  Elec       q    Type
REMARK                         _______ _______ _______ _____ _____    ______ ____
ROOT
ATOM      1  C   LIG    1        1.222   3.529   0.030  0.00  0.00    +0.026 C 
ATOM      2  C   LIG    1        2.314   4.192   0.562  0.00  0.00    +0.107 C 
ATOM      3  C   LIG    1        2.374   5.672   0.728  0.00  0.00    +0.204 C 
ATOM      4  C   LIG    1        3.740   6.245   0.652  0.00  0.00    +0.065 A 
ATOM      5  C   LIG    1        3.914   7.629   0.601  0.00  0.00    +0.015 A 
ATOM      6  C   LIG    1        5.186   8.156   0.544  0.00  0.00    +0.001 A 
ATOM      7  C   LIG    1        6.287   7.313   0.539  0.00  0.00    +0.004 A 
ATOM      8  C   LIG    1        6.125   5.945   0.584  0.00  0.00    +0.047 A 
ATOM      9  C   LIG    1        4.849   5.390   0.635  0.00  0.00    +0.143 A 
ATOM     10  O   LIG    1        4.722   4.043   0.645  0.00  0.00    -0.422 OA
ATOM     11  O   LIG    1        1.382   6.354   0.909  0.00  0.00    -0.286 OA
ATOM     12  C   LIG    1        3.542   3.499   1.032  0.00  0.00    +0.348 C 
ATOM     13  O   LIG    1        3.489   2.499   1.722  0.00  0.00    -0.244 OA
ENDROOT
BRANCH   1  17
ATOM     14  C   LIG    1        1.456  -0.565  -0.788  0.00  0.00    +0.029 A 
ATOM     15  C   LIG    1        0.249  -0.009  -0.366  0.00  0.00    +0.023 A 
ATOM     16  C   LIG    1        0.167   1.326  -0.098  0.00  0.00    +0.010 A 
ATOM     17  C   LIG    1        1.301   2.141  -0.247  0.00  0.00    -0.024 A 
ATOM     18  C   LIG    1        2.515   1.575  -0.672  0.00  0.00    +0.010 A 
ATOM     19  C   LIG    1        2.585   0.239  -0.938  0.00  0.00    +0.023 A 
BRANCH  14  21
ATOM     20  C   LIG    1        0.389  -2.793  -0.777  0.00  0.00    +0.129 C 
ATOM     21  N   LIG    1        1.534  -1.924  -1.059  0.00  0.00    -0.336 N 
ATOM     22  C   LIG    1        2.760  -2.488  -1.626  0.00  0.00    +0.129 C 
ENDBRANCH  14  21
ENDBRANCH   1  17
TORSDOF 2
