REMARK  Name = ZINC29042667
REMARK                            x       y       z     vdW  Elec       q    Type
REMARK                         _______ _______ _______ _____ _____    ______ ____
ROOT
ATOM      1  C   LIG    1        3.780   1.446  -0.849  0.00  0.00    +0.233 C 
ATOM      2  N   LIG    1        2.740   1.888  -0.114  0.00  0.00    -0.298 N 
ATOM      3  C   LIG    1        2.829   1.939   1.352  0.00  0.00    +0.108 C 
ATOM      4  C   LIG    1        2.474   3.355   1.819  0.00  0.00    +0.020 C 
ATOM      5  C   LIG    1        1.105   3.744   1.257  0.00  0.00    +0.011 C 
ATOM      6  C   LIG    1        1.158   3.739  -0.272  0.00  0.00    +0.038 C 
ATOM      7  C   LIG    1        1.497   2.328  -0.762  0.00  0.00    +0.067 C 
ATOM      8  O   LIG    1        3.694   1.409  -2.058  0.00  0.00    -0.274 OA
ENDROOT
BRANCH   6   9
ATOM      9  C   LIG    1       -0.182   4.154  -0.823  0.00  0.00    -0.043 A 
ATOM     10  C   LIG    1       -1.343   3.646  -0.273  0.00  0.00    +0.004 A 
ATOM     11  C   LIG    1       -2.572   4.030  -0.776  0.00  0.00    +0.000 A 
ATOM     12  C   LIG    1       -2.640   4.915  -1.835  0.00  0.00    +0.000 A 
ATOM     13  C   LIG    1       -1.478   5.419  -2.389  0.00  0.00    +0.000 A 
ATOM     14  C   LIG    1       -0.249   5.038  -1.884  0.00  0.00    +0.004 A 
ENDBRANCH   6   9
BRANCH   1  15
ATOM     15  C   LIG    1        5.048   0.999  -0.169  0.00  0.00    +0.200 C 
BRANCH  15  17
ATOM     16  C   LIG    1        6.048  -0.831  -1.615  0.00  0.00    +0.130 C 
ATOM     17  N   LIG    1        6.017   0.567  -1.179  0.00  0.00    -0.324 N 
BRANCH  17  18
ATOM     18  C   LIG    1        6.913   1.490  -1.726  0.00  0.00    +0.031 A 
ATOM     19  C   LIG    1        7.833   1.082  -2.684  0.00  0.00    +0.024 A 
ATOM     20  C   LIG    1        8.717   1.995  -3.224  0.00  0.00    +0.023 A 
ATOM     21  C   LIG    1        8.688   3.316  -2.812  0.00  0.00    +0.059 A 
ATOM     22 CL   LIG    1        9.802   4.460  -3.491  0.00  0.00    -0.082 Cl
ATOM     23  C   LIG    1        7.773   3.725  -1.857  0.00  0.00    +0.061 A 
ATOM     24 CL   LIG    1        7.739   5.383  -1.342  0.00  0.00    -0.082 Cl
ATOM     25  C   LIG    1        6.881   2.817  -1.318  0.00  0.00    +0.044 A 
ENDBRANCH  17  18
ENDBRANCH  15  17
ENDBRANCH   1  15
BRANCH   7  26
ATOM     26  C   LIG    1        0.361   1.370  -0.396  0.00  0.00    -0.056 C 
BRANCH  26  27
ATOM     27  N   LIG    1        0.642   0.041  -0.955  0.00  0.00    +0.381 N 
ATOM     28  H   LIG    1        0.932   0.212  -2.002  0.00  0.00    -0.082 HD
ATOM     29  C   LIG    1        1.715  -0.643  -0.188  0.00  0.00    -0.079 C 
ATOM     30  C   LIG    1        1.508  -2.136  -0.545  0.00  0.00    -0.020 C 
ATOM     31  C   LIG    1       -0.031  -2.267  -0.612  0.00  0.00    -0.020 C 
ATOM     32  C   LIG    1       -0.545  -0.836  -0.857  0.00  0.00    -0.079 C 
ENDBRANCH  26  27
ENDBRANCH   7  26
TORSDOF 6
