REMARK  Name = ZINC38334036
REMARK                            x       y       z     vdW  Elec       q    Type
REMARK                         _______ _______ _______ _____ _____    ______ ____
ROOT
ATOM      1  C   LIG    1        3.467  -2.198  -0.246  0.00  0.00    -0.039 C 
ATOM      2  C   LIG    1        4.840  -2.722  -0.673  0.00  0.00    +0.044 C 
ATOM      3  C   LIG    1        4.954  -4.198  -0.270  0.00  0.00    +0.001 C 
ATOM      4  C   LIG    1        4.762  -4.302   1.248  0.00  0.00    -0.014 C 
ATOM      5  C   LIG    1        3.392  -3.728   1.613  0.00  0.00    -0.078 C 
ATOM      6  C   LIG    1        3.821  -4.975  -0.955  0.00  0.00    -0.014 C 
ATOM      7  C   LIG    1        2.483  -4.380  -0.518  0.00  0.00    -0.078 C 
ATOM      8  N   LIG    1        2.706  -3.266   0.407  0.00  0.00    +0.383 N 
ATOM      9  H   LIG    1        1.806  -2.898   0.675  0.00  0.00    -0.081 HD
ENDROOT
BRANCH   2  10
ATOM     10  N   LIG    1        5.893  -1.945  -0.005  0.00  0.00    -0.310 NA
ATOM     11  H   LIG    1        5.796  -0.960  -0.203  0.00  0.00    +0.122 HD
BRANCH  10  12
ATOM     12  C   LIG    1        7.226  -2.430  -0.385  0.00  0.00    +0.118 C 
BRANCH  12  13
ATOM     13  C   LIG    1        8.278  -1.610   0.318  0.00  0.00    -0.015 A 
ATOM     14  C   LIG    1        8.922  -0.588  -0.354  0.00  0.00    +0.006 A 
ATOM     15  C   LIG    1        9.886   0.164   0.290  0.00  0.00    +0.000 A 
ATOM     16  C   LIG    1       10.207  -0.106   1.608  0.00  0.00    +0.001 A 
ATOM     17  C   LIG    1        9.564  -1.128   2.281  0.00  0.00    +0.020 A 
ATOM     18  C   LIG    1        8.595  -1.877   1.638  0.00  0.00    +0.045 A 
ATOM     19 CL   LIG    1        7.782  -3.156   2.485  0.00  0.00    -0.083 Cl
ENDBRANCH  12  13
ENDBRANCH  10  12
ENDBRANCH   2  10
BRANCH   1  20
ATOM     20  C   LIG    1        3.649  -1.035   0.731  0.00  0.00    +0.037 C 
BRANCH  20  24
ATOM     21  C   LIG    1        5.314   2.312  -1.337  0.00  0.00    +0.000 A 
ATOM     22  C   LIG    1        5.702   2.039  -0.038  0.00  0.00    +0.000 A 
ATOM     23  C   LIG    1        5.163   0.956   0.631  0.00  0.00    +0.004 A 
ATOM     24  C   LIG    1        4.236   0.146   0.002  0.00  0.00    -0.041 A 
ATOM     25  C   LIG    1        3.848   0.419  -1.297  0.00  0.00    +0.004 A 
ATOM     26  C   LIG    1        4.388   1.501  -1.967  0.00  0.00    +0.000 A 
ENDBRANCH  20  24
BRANCH  20  27
ATOM     27  C   LIG    1        2.311  -0.652   1.311  0.00  0.00    -0.041 A 
ATOM     28  C   LIG    1        2.124  -0.661   2.681  0.00  0.00    +0.004 A 
ATOM     29  C   LIG    1        0.898  -0.310   3.213  0.00  0.00    +0.000 A 
ATOM     30  C   LIG    1       -0.142   0.049   2.376  0.00  0.00    +0.000 A 
ATOM     31  C   LIG    1        0.045   0.058   1.006  0.00  0.00    +0.000 A 
ATOM     32  C   LIG    1        1.273  -0.288   0.474  0.00  0.00    +0.004 A 
ENDBRANCH  20  27
ENDBRANCH   1  20
TORSDOF 6
