REMARK  Name = ZINC28572587
REMARK                            x       y       z     vdW  Elec       q    Type
REMARK                         _______ _______ _______ _____ _____    ______ ____
ROOT
ATOM      1  N   LIG    1        0.985   3.421   0.095  0.00  0.00    -0.214 N 
ATOM      2  C   LIG    1        0.039   4.183  -0.533  0.00  0.00    +0.077 A 
ATOM      3  C   LIG    1        0.410   5.490  -0.389  0.00  0.00    +0.062 A 
ATOM      4  C   LIG    1        1.605   5.519   0.332  0.00  0.00    +0.166 A 
ATOM      5  N   LIG    1        1.949   4.290   0.621  0.00  0.00    -0.160 NA
ENDROOT
BRANCH   2   6
ATOM      6  C   LIG    1       -1.162   3.685  -1.236  0.00  0.00    +0.002 A 
ATOM      7  C   LIG    1       -2.320   4.467  -1.279  0.00  0.00    +0.011 A 
ATOM      8  C   LIG    1       -3.439   4.005  -1.932  0.00  0.00    +0.013 A 
ATOM      9  C   LIG    1       -3.418   2.753  -2.554  0.00  0.00    +0.036 A 
ATOM     10  C   LIG    1       -2.260   1.970  -2.511  0.00  0.00    +0.052 A 
ATOM     11 CL   LIG    1       -2.233   0.415  -3.282  0.00  0.00    -0.083 Cl
ATOM     12  C   LIG    1       -1.139   2.437  -1.861  0.00  0.00    +0.030 A 
BRANCH   9  13
ATOM     13  C   LIG    1       -4.619   2.257  -3.255  0.00  0.00    +0.136 A 
ATOM     14  C   LIG    1       -4.654   1.753  -4.519  0.00  0.00    +0.050 A 
ATOM     15  C   LIG    1       -5.995   1.405  -4.779  0.00  0.00    +0.042 A 
ATOM     16  C   LIG    1       -6.704   1.710  -3.675  0.00  0.00    +0.196 A 
ATOM     17  O   LIG    1       -5.869   2.220  -2.754  0.00  0.00    -0.463 OA
ENDBRANCH   9  13
ENDBRANCH   2   6
BRANCH   1  21
ATOM     18  C   LIG    1        0.969  -0.689   0.372  0.00  0.00    +0.106 A 
ATOM     19  C   LIG    1        2.191  -0.031   0.392  0.00  0.00    +0.032 A 
ATOM     20  C   LIG    1        2.199   1.350   0.299  0.00  0.00    +0.050 A 
ATOM     21  C   LIG    1        0.991   2.027   0.189  0.00  0.00    +0.155 A 
ATOM     22  N   LIG    1       -0.154   1.364   0.174  0.00  0.00    -0.234 NA
ATOM     23  C   LIG    1       -0.194   0.049   0.260  0.00  0.00    +0.140 A 
BRANCH  18  25
ATOM     24  C   LIG    1        0.976  -3.029  -1.228  0.00  0.00    +0.200 C 
ATOM     25  S   LIG    1        0.901  -2.446   0.488  0.00  0.00    -0.004 S 
ATOM     26  O   LIG    1       -0.376  -2.723   1.044  0.00  0.00    -0.170 OA
ATOM     27  O   LIG    1        2.088  -2.809   1.180  0.00  0.00    -0.170 OA
ENDBRANCH  18  25
ENDBRANCH   1  21
BRANCH   4  28
ATOM     28  C   LIG    1        2.372   6.759   0.713  0.00  0.00    +0.436 C 
ATOM     29  F   LIG    1        1.607   7.526   1.600  0.00  0.00    -0.164 F 
ATOM     30  F   LIG    1        2.646   7.510  -0.435  0.00  0.00    -0.164 F 
ATOM     31  F   LIG    1        3.573   6.393   1.329  0.00  0.00    -0.164 F 
ENDBRANCH   4  28
TORSDOF 5
