REMARK  Name = ZINC26826392
REMARK                            x       y       z     vdW  Elec       q    Type
REMARK                         _______ _______ _______ _____ _____    ______ ____
ROOT
ATOM      1  C   LIG    1        0.208   1.497   0.118  0.00  0.00    +0.061 C 
ATOM      2  C   LIG    1        0.113  -0.006   0.057  0.00  0.00    +0.016 C 
ATOM      3  C   LIG    1       -1.091  -0.599   0.143  0.00  0.00    +0.065 C 
ATOM      4  C   LIG    1       -1.233  -2.093   0.095  0.00  0.00    +0.096 C 
ATOM      5  C   LIG    1        0.019  -2.730  -0.438  0.00  0.00    +0.065 C 
ATOM      6  C   LIG    1        1.178  -2.052  -0.501  0.00  0.00    +0.016 C 
ATOM      7  C   LIG    1        2.411  -2.734  -1.035  0.00  0.00    +0.061 C 
ATOM      8  N   LIG    1        1.251  -0.750  -0.092  0.00  0.00    -0.321 N 
ATOM      9  H   LIG    1        2.116  -0.353   0.097  0.00  0.00    +0.152 HD
ENDROOT
BRANCH   4  10
ATOM     10  C   LIG    1       -1.498  -2.611   1.485  0.00  0.00    -0.033 A 
ATOM     11  C   LIG    1       -0.580  -2.387   2.494  0.00  0.00    +0.005 A 
ATOM     12  C   LIG    1       -0.823  -2.862   3.769  0.00  0.00    +0.003 A 
ATOM     13  C   LIG    1       -1.986  -3.561   4.036  0.00  0.00    +0.032 A 
ATOM     14  C   LIG    1       -2.905  -3.784   3.028  0.00  0.00    +0.122 A 
ATOM     15  C   LIG    1       -2.663  -3.306   1.754  0.00  0.00    +0.037 A 
BRANCH  14  16
ATOM     16  N   LIG    1       -4.149  -4.533   3.313  0.00  0.00    +0.006 N 
ATOM     17  O   LIG    1       -4.362  -4.949   4.428  0.00  0.00    -0.130 OA
BRANCH  16  18
ATOM     18  O   LIG    1       -4.953  -4.729   2.432  0.00  0.00    -0.396 OA
ATOM     19  H   LIG    1       -4.788  -4.406   1.568  0.00  0.00    +0.329 HD
ENDBRANCH  16  18
ENDBRANCH  14  16
ENDBRANCH   4  10
BRANCH   3  20
ATOM     20  C   LIG    1       -2.248   0.202   0.282  0.00  0.00    +0.337 C 
ATOM     21  O   LIG    1       -2.148   1.415   0.323  0.00  0.00    -0.245 OA
BRANCH  20  22
ATOM     22  O   LIG    1       -3.463  -0.377   0.370  0.00  0.00    -0.465 OA
ATOM     23  C   LIG    1       -4.588   0.492   0.510  0.00  0.00    +0.280 C 
ENDBRANCH  20  22
ENDBRANCH   3  20
BRANCH   5  24
ATOM     24  C   LIG    1       -0.023  -4.072  -0.883  0.00  0.00    +0.338 C 
ATOM     25  O   LIG    1       -0.451  -4.332  -1.992  0.00  0.00    -0.245 OA
BRANCH  24  26
ATOM     26  O   LIG    1        0.412  -5.064  -0.078  0.00  0.00    -0.461 OA
BRANCH  26  27
ATOM     27  C   LIG    1        0.341  -6.395  -0.592  0.00  0.00    +0.235 C 
BRANCH  27  28
ATOM     28  C   LIG    1        0.874  -7.375   0.455  0.00  0.00    +0.020 C 
ATOM     29  C   LIG    1        0.915  -8.784  -0.140  0.00  0.00    +0.010 C 
ATOM     30  C   LIG    1       -0.044  -7.364   1.679  0.00  0.00    +0.010 C 
ENDBRANCH  27  28
ENDBRANCH  26  27
ENDBRANCH  24  26
ENDBRANCH   5  24
TORSDOF 9
