REMARK  Name = ZINC19632834
REMARK                            x       y       z     vdW  Elec       q    Type
REMARK                         _______ _______ _______ _____ _____    ______ ____
ROOT
ATOM      1  C   LIG    1        3.320  -5.211   0.794  0.00  0.00    +0.328 C 
ATOM      2  C   LIG    1        3.918  -5.659   2.105  0.00  0.00    +0.131 A 
ATOM      3  C   LIG    1        3.523  -6.985   2.287  0.00  0.00    +0.153 A 
ATOM      4  C   LIG    1        2.695  -7.385   1.129  0.00  0.00    +0.275 C 
ATOM      5  O   LIG    1        2.193  -8.481   0.979  0.00  0.00    -0.268 OA
ATOM      6  N   LIG    1        3.914  -7.641   3.377  0.00  0.00    -0.247 NA
ATOM      7  C   LIG    1        4.668  -7.035   4.273  0.00  0.00    +0.131 A 
ATOM      8  C   LIG    1        5.056  -5.716   4.085  0.00  0.00    +0.131 A 
ATOM      9  N   LIG    1        4.671  -5.059   3.003  0.00  0.00    -0.251 NA
ATOM     10  N   LIG    1        2.577  -6.360   0.265  0.00  0.00    -0.208 N 
ENDROOT
BRANCH  10  11
ATOM     11  C   LIG    1        1.867  -6.385  -0.934  0.00  0.00    +0.131 A 
ATOM     12  C   LIG    1        1.978  -5.321  -1.822  0.00  0.00    +0.045 A 
ATOM     13  C   LIG    1        1.267  -5.358  -3.009  0.00  0.00    +0.025 A 
ATOM     14  C   LIG    1        0.467  -6.464  -3.268  0.00  0.00    +0.059 A 
ATOM     15 CL   LIG    1       -0.445  -6.561  -4.742  0.00  0.00    -0.082 Cl
ATOM     16  C   LIG    1        0.405  -7.486  -2.340  0.00  0.00    +0.132 A 
ATOM     17  N   LIG    1        1.099  -7.424  -1.219  0.00  0.00    -0.238 NA
ENDBRANCH  10  11
BRANCH   1  18
ATOM     18  O   LIG    1        2.434  -4.111   1.009  0.00  0.00    -0.422 OA
BRANCH  18  24
ATOM     19  C   LIG    1        0.298   1.316   3.025  0.00  0.00    +0.105 C 
ATOM     20  N   LIG    1        0.766   0.354   2.018  0.00  0.00    -0.302 NA
ATOM     21  C   LIG    1        2.222   0.438   1.846  0.00  0.00    +0.103 C 
ATOM     22  C   LIG    1        2.646  -0.445   0.667  0.00  0.00    +0.126 C 
ATOM     23  N   LIG    1        2.123  -1.802   0.888  0.00  0.00    -0.265 N 
ATOM     24  C   LIG    1        2.932  -2.877   0.804  0.00  0.00    +0.405 C 
ATOM     25  O   LIG    1        4.110  -2.732   0.542  0.00  0.00    -0.226 OA
ATOM     26  C   LIG    1        0.695  -1.954   1.203  0.00  0.00    +0.126 C 
ATOM     27  C   LIG    1        0.348  -1.012   2.360  0.00  0.00    +0.103 C 
ENDBRANCH  18  24
ENDBRANCH   1  18
TORSDOF 3
