REMARK  Name = ZINC15880092
REMARK                            x       y       z     vdW  Elec       q    Type
REMARK                         _______ _______ _______ _____ _____    ______ ____
ROOT
ATOM      1  C   LIG    1        0.710  -2.008  -1.215  0.00  0.00    +0.036 C 
ENDROOT
BRANCH   1   2
ATOM      2  C   LIG    1        1.416  -2.494  -2.455  0.00  0.00    +0.040 A 
ATOM      3  C   LIG    1        2.485  -3.362  -2.337  0.00  0.00    +0.023 A 
ATOM      4  C   LIG    1        3.127  -3.803  -3.483  0.00  0.00    +0.003 A 
ATOM      5  C   LIG    1        2.667  -3.352  -4.712  0.00  0.00    +0.020 A 
ATOM      6  C   LIG    1        1.593  -2.485  -4.752  0.00  0.00    +0.111 A 
ATOM      7  N   LIG    1        1.003  -2.090  -3.640  0.00  0.00    -0.260 NA
ENDBRANCH   1   2
BRANCH   1   8
ATOM      8  C   LIG    1        0.690  -0.478  -1.207  0.00  0.00    -0.077 C 
BRANCH   8  10
ATOM      9  C   LIG    1       -0.018   1.465   0.010  0.00  0.00    -0.100 C 
ATOM     10  N   LIG    1        0.002  -0.004   0.002  0.00  0.00    +0.377 N 
ATOM     11  H   LIG    1       -0.945  -0.353   0.009  0.00  0.00    -0.086 HD
ATOM     12  H   LIG    1        0.490  -0.338   0.820  0.00  0.00    -0.086 HD
ENDBRANCH   8  10
ENDBRANCH   1   8
TORSDOF 3
