REMARK  Name = ZINC15521877
REMARK                            x       y       z     vdW  Elec       q    Type
REMARK                         _______ _______ _______ _____ _____    ______ ____
ROOT
ATOM      1  C   LIG    1        0.038  -3.213  -1.618  0.00  0.00    +0.253 C 
ATOM      2  C   LIG    1       -1.402  -3.707  -1.879  0.00  0.00    +0.195 C 
ATOM      3  C   LIG    1       -1.394  -4.119  -3.368  0.00  0.00    +0.178 C 
ATOM      4  C   LIG    1        0.050  -3.825  -3.831  0.00  0.00    +0.178 C 
ATOM      5  O   LIG    1        0.536  -2.818  -2.915  0.00  0.00    -0.346 OA
ENDROOT
BRANCH   1   9
ATOM      6  C   LIG    1       -0.018   1.461   0.010  0.00  0.00    +0.150 C 
ATOM      7  N   LIG    1        0.002  -0.004   0.002  0.00  0.00    -0.329 N 
ATOM      8  C   LIG    1        0.008  -0.751  -1.063  0.00  0.00    +0.180 A 
ATOM      9  N   LIG    1        0.027  -2.067  -0.706  0.00  0.00    -0.287 N 
ATOM     10  C   LIG    1        0.034  -2.122   0.662  0.00  0.00    +0.169 A 
ATOM     11  N   LIG    1        0.050  -3.117   1.556  0.00  0.00    -0.196 NA
ATOM     12  C   LIG    1        0.068  -2.871   2.847  0.00  0.00    +0.195 A 
ATOM     13  N   LIG    1        0.055  -1.599   3.338  0.00  0.00    -0.294 N 
ATOM     14  H   LIG    1        0.062  -1.452   4.296  0.00  0.00    +0.172 HD
ATOM     15  C   LIG    1        0.033  -0.543   2.495  0.00  0.00    +0.278 A 
ATOM     16  O   LIG    1        0.021   0.598   2.925  0.00  0.00    -0.265 OA
ATOM     17  C   LIG    1        0.023  -0.794   1.103  0.00  0.00    +0.151 A 
BRANCH  12  18
ATOM     18  N   LIG    1        0.090  -3.924   3.726  0.00  0.00    -0.329 N 
ATOM     19  H   LIG    1        0.100  -4.835   3.392  0.00  0.00    +0.145 HD
ATOM     20  H   LIG    1        0.097  -3.758   4.682  0.00  0.00    +0.145 HD
ENDBRANCH  12  18
ENDBRANCH   1   9
BRANCH   2  21
ATOM     21  O   LIG    1       -1.705  -4.830  -1.048  0.00  0.00    -0.385 OA
ATOM     22  H   LIG    1       -2.597  -5.181  -1.170  0.00  0.00    +0.210 HD
ENDBRANCH   2  21
BRANCH   3  23
ATOM     23  O   LIG    1       -1.694  -5.510  -3.504  0.00  0.00    -0.386 OA
ATOM     24  H   LIG    1       -2.567  -5.758  -3.173  0.00  0.00    +0.210 HD
ENDBRANCH   3  23
BRANCH   4  25
ATOM     25  C   LIG    1        0.051  -3.291  -5.265  0.00  0.00    +0.206 C 
BRANCH  25  26
ATOM     26  O   LIG    1        1.399  -3.136  -5.714  0.00  0.00    -0.284 OA
BRANCH  26  27
ATOM     27  P   LIG    1        1.777  -2.593  -7.182  0.00  0.00    +0.483 P 
ATOM     28  O   LIG    1        1.075  -3.462  -8.249  0.00  0.00    -0.227 OA
BRANCH  27  29
ATOM     29  O   LIG    1        1.311  -1.127  -7.324  0.00  0.00    -0.302 OA
ATOM     30  H   LIG    1        0.350  -1.079  -7.199  0.00  0.00    +0.222 HD
ENDBRANCH  27  29
BRANCH  27  31
ATOM     31  O   LIG    1        3.372  -2.672  -7.389  0.00  0.00    -0.186 OA
BRANCH  31  32
ATOM     32  P   LIG    1        4.338  -2.584  -8.673  0.00  0.00    +0.481 P 
ATOM     33  O   LIG    1        3.689  -3.361  -9.869  0.00  0.00    -0.227 OA
BRANCH  32  34
ATOM     34  O   LIG    1        5.726  -3.224  -8.327  0.00  0.00    -0.302 OA
ATOM     35  H   LIG    1        5.601  -4.153  -8.080  0.00  0.00    +0.222 HD
ENDBRANCH  32  34
BRANCH  32  36
ATOM     36  O   LIG    1        4.540  -1.083  -9.073  0.00  0.00    -0.302 OA
ATOM     37  H   LIG    1        3.681  -0.687  -9.288  0.00  0.00    +0.222 HD
ENDBRANCH  32  36
ENDBRANCH  31  32
ENDBRANCH  27  31
ENDBRANCH  26  27
ENDBRANCH  25  26
ENDBRANCH   4  25
TORSDOF 12
