REMARK  Name = ZINC14904354
REMARK                            x       y       z     vdW  Elec       q    Type
REMARK                         _______ _______ _______ _____ _____    ______ ____
ROOT
ATOM      1  C   LIG    1       -1.959  -0.312  -1.607  0.00  0.00    +0.061 C 
ATOM      2  C   LIG    1       -0.557  -0.499  -2.224  0.00  0.00    +0.012 C 
ATOM      3  C   LIG    1        0.076   0.908  -2.304  0.00  0.00    +0.005 C 
ATOM      4  C   LIG    1       -0.675   1.726  -1.195  0.00  0.00    -0.001 C 
ATOM      5  C   LIG    1       -0.079   1.272   0.139  0.00  0.00    -0.004 C 
ATOM      6  C   LIG    1        1.317   1.876   0.307  0.00  0.00    +0.006 C 
ATOM      7  C   LIG    1        1.945   1.364   1.608  0.00  0.00    +0.023 C 
ATOM      8  C   LIG    1        0.936   0.467   2.323  0.00  0.00    +0.082 C 
ATOM      9  C   LIG    1       -0.332   1.267   2.619  0.00  0.00    -0.010 C 
ATOM     10  C   LIG    1        0.028   2.510   3.435  0.00  0.00    +0.013 C 
ATOM     11  C   LIG    1       -1.298   0.384   3.407  0.00  0.00    +0.018 C 
ATOM     12  C   LIG    1       -0.688   0.154   4.793  0.00  0.00    +0.096 C 
ATOM     13  C   LIG    1        0.755  -0.242   4.668  0.00  0.00    +0.216 C 
ATOM     14  O   LIG    1        1.291  -0.754   5.628  0.00  0.00    -0.276 OA
ATOM     15  N   LIG    1        1.482  -0.064   3.562  0.00  0.00    -0.301 N 
ATOM     16  C   LIG    1        2.902  -0.423   3.598  0.00  0.00    +0.132 C 
ATOM     17  C   LIG    1       -0.979   1.707   1.294  0.00  0.00    +0.000 C 
ATOM     18  C   LIG    1       -2.337   1.012   1.140  0.00  0.00    +0.005 C 
ATOM     19  C   LIG    1       -2.982   1.498  -0.158  0.00  0.00    +0.008 C 
ATOM     20  C   LIG    1       -2.110   1.194  -1.354  0.00  0.00    -0.019 C 
ATOM     21  C   LIG    1       -2.722   1.846  -2.595  0.00  0.00    +0.012 C 
ENDROOT
BRANCH   1  23
ATOM     22  C   LIG    1       -4.370  -1.204  -2.056  0.00  0.00    +0.086 C 
ATOM     23  C   LIG    1       -3.017  -0.786  -2.570  0.00  0.00    +0.134 C 
ATOM     24  O   LIG    1       -2.780  -0.830  -3.754  0.00  0.00    -0.297 OA
ENDBRANCH   1  23
TORSDOF 1
