REMARK  Name = ZINC28378787
REMARK                            x       y       z     vdW  Elec       q    Type
REMARK                         _______ _______ _______ _____ _____    ______ ____
ROOT
ATOM      1  C   LIG    1        0.753  -0.524  -1.246  0.00  0.00    +0.044 C 
ATOM      2  C   LIG    1        1.479  -1.760  -0.659  0.00  0.00    +0.131 C 
ATOM      3  C   LIG    1        1.569  -1.459   0.821  0.00  0.00    +0.237 C 
ATOM      4  N   LIG    1        0.765  -0.509   1.149  0.00  0.00    -0.277 N 
ATOM      5  H   LIG    1        0.713  -0.169   2.194  0.00  0.00    +0.304 HD
ATOM      6  C   LIG    1        0.002  -0.004   0.002  0.00  0.00    +0.173 C 
ATOM      7  C   LIG    1       -0.019   1.526   0.010  0.00  0.00    +0.057 C 
ENDROOT
BRANCH   3   8
ATOM      8  N   LIG    1        2.398  -2.111   1.696  0.00  0.00    -0.254 N 
ATOM      9  H   LIG    1        3.057  -2.914   1.335  0.00  0.00    +0.288 HD
ATOM     10  H   LIG    1        2.404  -1.831   2.760  0.00  0.00    +0.288 HD
ENDBRANCH   3   8
BRANCH   1  12
ATOM     11  C   LIG    1        2.385   0.014  -3.060  0.00  0.00    +0.004 C 
ATOM     12  C   LIG    1        1.756   0.512  -1.757  0.00  0.00    +0.005 C 
ENDBRANCH   1  12
TORSDOF 2
