REMARK  Name = ZINC53683151
REMARK                            x       y       z     vdW  Elec       q    Type
REMARK                         _______ _______ _______ _____ _____    ______ ____
ROOT
ATOM      1  C   LIG    1       -0.032  -0.017   1.916  0.00  0.00    +0.167 C 
ATOM      2  C   LIG    1        0.830  -0.563   3.032  0.00  0.00    +0.237 C 
ATOM      3  N   LIG    1        1.574   0.258   3.784  0.00  0.00    -0.290 N 
ATOM      4  C   LIG    1        2.701  -0.123   4.662  0.00  0.00    +0.108 C 
ATOM      5  C   LIG    1        3.748   0.986   4.369  0.00  0.00    +0.021 C 
ATOM      6  C   LIG    1        2.869   2.254   4.236  0.00  0.00    +0.031 C 
ATOM      7  C   LIG    1        1.470   1.726   3.875  0.00  0.00    +0.156 C 
ATOM      8  C   LIG    1        1.039   2.266   2.506  0.00  0.00    +0.269 C 
ATOM      9  O   LIG    1        0.589   3.615   2.630  0.00  0.00    -0.298 OA
ATOM     10  C   LIG    1       -0.777   3.649   2.192  0.00  0.00    +0.220 C 
ATOM     11  C   LIG    1       -1.155   2.236   1.823  0.00  0.00    +0.271 C 
ATOM     12  O   LIG    1       -2.229   1.878   1.388  0.00  0.00    -0.270 OA
ATOM     13  O   LIG    1        0.848  -1.756   3.248  0.00  0.00    -0.274 OA
ATOM     14  N   LIG    1       -0.100   1.444   2.058  0.00  0.00    -0.233 N 
ENDROOT
BRANCH  10  15
ATOM     15  N   LIG    1       -0.907   4.524   1.024  0.00  0.00    -0.279 N 
ATOM     16  H   LIG    1       -0.126   4.970   0.663  0.00  0.00    +0.152 HD
ATOM     17  C   LIG    1       -2.114   4.709   0.453  0.00  0.00    +0.224 C 
ATOM     18  O   LIG    1       -3.105   4.229   0.960  0.00  0.00    -0.275 OA
BRANCH  17  19
ATOM     19  C   LIG    1       -2.230   5.511  -0.818  0.00  0.00    +0.112 C 
ATOM     20  C   LIG    1       -3.699   5.582  -1.250  0.00  0.00    +0.101 C 
ATOM     21  N   LIG    1       -3.794   6.449  -2.429  0.00  0.00    -0.297 NA
ATOM     22  C   LIG    1       -5.128   6.366  -3.038  0.00  0.00    +0.105 C 
ATOM     23  C   LIG    1       -3.432   7.832  -2.149  0.00  0.00    +0.091 C 
ATOM     24  C   LIG    1       -3.199   8.582  -3.468  0.00  0.00    +0.062 C 
ATOM     25  C   LIG    1       -2.711   9.976  -3.171  0.00  0.00    -0.006 A 
ATOM     26  C   LIG    1       -2.019  10.248  -1.917  0.00  0.00    +0.011 A 
ATOM     27  C   LIG    1       -1.766   9.306  -0.897  0.00  0.00    -0.011 A 
ATOM     28  C   LIG    1       -1.088   9.784   0.200  0.00  0.00    +0.009 A 
ATOM     29  C   LIG    1       -0.711  11.125   0.249  0.00  0.00    +0.003 A 
ATOM     30  C   LIG    1       -0.974  12.049  -0.755  0.00  0.00    +0.026 A 
ATOM     31  C   LIG    1       -1.657  11.597  -1.884  0.00  0.00    +0.048 A 
ATOM     32  N   LIG    1       -2.115  12.121  -3.056  0.00  0.00    -0.349 N 
ATOM     33  H   LIG    1       -2.018  13.048  -3.323  0.00  0.00    +0.166 HD
ATOM     34  C   LIG    1       -2.741  11.141  -3.811  0.00  0.00    +0.087 A 
ATOM     35 BR   LIG    1       -3.525  11.422  -5.509  0.00  0.00    -0.031 Br
ATOM     36  C   LIG    1       -2.276   7.954  -1.191  0.00  0.00    -0.025 C 
ATOM     37  C   LIG    1       -1.737   6.913  -0.579  0.00  0.00    -0.007 C 
ENDBRANCH  17  19
ENDBRANCH  10  15
BRANCH  10  38
ATOM     38  C   LIG    1       -1.675   4.151   3.325  0.00  0.00    +0.043 C 
ATOM     39  C   LIG    1       -1.331   5.608   3.641  0.00  0.00    +0.012 C 
ATOM     40  C   LIG    1       -1.453   3.292   4.571  0.00  0.00    +0.012 C 
ENDBRANCH  10  38
BRANCH   8  41
ATOM     41  O   LIG    1        2.123   2.188   1.578  0.00  0.00    -0.348 OA
ATOM     42  H   LIG    1        1.908   2.516   0.694  0.00  0.00    +0.214 HD
ENDBRANCH   8  41
BRANCH   1  43
ATOM     43  C   LIG    1        0.587  -0.376   0.564  0.00  0.00    +0.035 C 
BRANCH  43  45
ATOM     44  C   LIG    1       -0.960  -2.313   0.251  0.00  0.00    +0.007 C 
ATOM     45  C   LIG    1        0.506  -1.889   0.351  0.00  0.00    -0.015 C 
ATOM     46  C   LIG    1        1.234  -2.262  -0.942  0.00  0.00    +0.007 C 
ENDBRANCH  43  45
ENDBRANCH   1  43
TORSDOF 6
