REMARK  Name = ZINC27215486
REMARK                            x       y       z     vdW  Elec       q    Type
REMARK                         _______ _______ _______ _____ _____    ______ ____
ROOT
ATOM      1  C   UNK A  2        4.052  -0.693   1.732  0.00  0.00    +0.163 C 
ATOM      2  C   UNK A  2        5.188  -1.691   1.737  0.00  0.00    +0.238 C 
ATOM      3  N   UNK A  1        6.152  -1.529   2.668  0.00  0.00    -0.269 N 
ATOM      4  C   UNK A  1        6.082  -0.511   3.728  0.00  0.00    +0.165 C 
ATOM      5  C   UNK A  1        5.460   0.728   3.134  0.00  0.00    +0.234 C 
ATOM      6  O   UNK A  1        5.812   1.828   3.503  0.00  0.00    -0.274 OA
ATOM      7  C   UNK A  1        7.513  -0.251   4.209  0.00  0.00    +0.048 C 
ATOM      8  C   UNK A  1        8.404  -1.238   3.439  0.00  0.00    +0.047 C 
ATOM      9  C   UNK A  1        9.041  -0.582   2.252  0.00  0.00    -0.016 A 
ATOM     10  C   UNK A  1        9.814   0.561   2.178  0.00  0.00    +0.006 A 
ATOM     11  C   UNK A  1       10.248   0.953   0.917  0.00  0.00    +0.000 A 
ATOM     12  C   UNK A  1        9.921   0.233  -0.213  0.00  0.00    +0.002 A 
ATOM     13  C   UNK A  1        9.156  -0.921  -0.149  0.00  0.00    +0.023 A 
ATOM     14  C   UNK A  1        8.725  -1.333   1.114  0.00  0.00    +0.032 A 
ATOM     15  N   UNK A  1        7.981  -2.457   1.447  0.00  0.00    -0.325 N 
ATOM     16  H   UNK A  1        7.853  -3.239   0.888  0.00  0.00    +0.148 HD
ATOM     17  C   UNK A  1        7.417  -2.257   2.800  0.00  0.00    +0.173 C 
ATOM     18  O   UNK A  2        5.231  -2.602   0.937  0.00  0.00    -0.273 OA
ATOM     19  N   UNK A  2        4.538   0.615   2.171  0.00  0.00    -0.302 N 
ATOM     20  H   UNK A  2        4.174   1.417   1.763  0.00  0.00    +0.150 HD
ENDROOT
BRANCH   8  21
ATOM     21  C   UNK A  1        9.440  -1.901   4.349  0.00  0.00    +0.047 C 
ATOM     22  C   UNK A  1        8.783  -2.780   5.439  0.00  0.00    +0.048 C 
ATOM     23  C   UNK A  1        8.821  -1.864   6.681  0.00  0.00    +0.165 C 
ATOM     24  C   UNK A  1        8.549  -2.709   7.894  0.00  0.00    +0.234 C 
ATOM     25  N   UNK A  1        9.353  -2.598   8.973  0.00  0.00    -0.302 N 
ATOM     26  H   UNK A  1        9.178  -3.128   9.766  0.00  0.00    +0.150 HD
ATOM     27  C   UNK A  1       10.491  -1.674   8.946  0.00  0.00    +0.163 C 
ATOM     28  C   UNK A  1       10.865  -0.977   7.660  0.00  0.00    +0.238 C 
ATOM     29  O   UNK A  1       11.832  -0.246   7.621  0.00  0.00    -0.273 OA
ATOM     30  O   UNK A  1        7.615  -3.483   7.904  0.00  0.00    -0.274 OA
ATOM     31  N   UNK A  1       10.113  -1.161   6.554  0.00  0.00    -0.269 N 
ATOM     32  C   UNK A  1       10.449  -2.712   3.571  0.00  0.00    -0.016 A 
ATOM     33  C   UNK A  1       10.283  -3.783   2.714  0.00  0.00    +0.006 A 
ATOM     34  C   UNK A  1       11.380  -4.365   2.108  0.00  0.00    +0.000 A 
ATOM     35  C   UNK A  1       12.647  -3.872   2.361  0.00  0.00    +0.002 A 
ATOM     36  C   UNK A  1       12.819  -2.804   3.215  0.00  0.00    +0.023 A 
ATOM     37  C   UNK A  1       11.715  -2.212   3.833  0.00  0.00    +0.032 A 
ATOM     38  N   UNK A  1       11.671  -1.137   4.721  0.00  0.00    -0.325 N 
ATOM     39  H   UNK A  1       12.446  -0.638   5.026  0.00  0.00    +0.148 HD
ATOM     40  C   UNK A  1       10.290  -0.867   5.126  0.00  0.00    +0.173 C 
BRANCH  27  41
ATOM     41  C   UNK A  1       11.721  -2.453   9.415  0.00  0.00    +0.067 C 
BRANCH  41  42
ATOM     42  C   UNK A  1       11.540  -2.859  10.855  0.00  0.00    -0.045 A 
ATOM     43  C   UNK A  1       11.964  -2.020  11.868  0.00  0.00    +0.004 A 
ATOM     44  C   UNK A  1       11.797  -2.392  13.189  0.00  0.00    +0.000 A 
ATOM     45  C   UNK A  1       11.206  -3.603  13.496  0.00  0.00    +0.000 A 
ATOM     46  C   UNK A  1       10.781  -4.442  12.483  0.00  0.00    +0.000 A 
ATOM     47  C   UNK A  1       10.944  -4.068  11.162  0.00  0.00    +0.004 A 
ENDBRANCH  41  42
ENDBRANCH  27  41
ENDBRANCH   8  21
BRANCH   1  48
ATOM     48  C   UNK A  2        3.485  -0.576   0.316  0.00  0.00    +0.067 C 
BRANCH  48  52
ATOM     49  C   UNK A  2        0.051   1.964   0.360  0.00  0.00    +0.000 A 
ATOM     50  C   UNK A  2        1.306   2.503   0.152  0.00  0.00    +0.000 A 
ATOM     51  C   UNK A  2        2.418   1.681   0.138  0.00  0.00    +0.004 A 
ATOM     52  C   UNK A  2        2.273   0.320   0.332  0.00  0.00    -0.045 A 
ATOM     53  C   UNK A  2        1.018  -0.219   0.540  0.00  0.00    +0.004 A 
ATOM     54  C   UNK A  2       -0.094   0.603   0.553  0.00  0.00    +0.000 A 
ENDBRANCH  48  52
ENDBRANCH   1  48
TORSDOF 5
