REMARK  Name = ZINC13810714
REMARK                            x       y       z     vdW  Elec       q    Type
REMARK                         _______ _______ _______ _____ _____    ______ ____
ROOT
ATOM      1  N   LIG    1        3.563   2.105  -0.021  0.00  0.00    -0.226 NA
ATOM      2  C   LIG    1        4.546   1.744   0.773  0.00  0.00    +0.166 C 
ATOM      3  N   LIG    1        4.593   0.699   1.673  0.00  0.00    -0.260 N 
ATOM      4  H   LIG    1        3.825   0.117   1.780  0.00  0.00    +0.157 HD
ATOM      5  C   LIG    1        5.683   0.491   2.392  0.00  0.00    +0.256 C 
ATOM      6  O   LIG    1        5.738  -0.427   3.190  0.00  0.00    -0.269 OA
ATOM      7  C   LIG    1        6.793   1.368   2.209  0.00  0.00    +0.077 C 
ATOM      8  C   LIG    1        8.023   1.359   2.829  0.00  0.00    +0.020 C 
ATOM      9  S   LIG    1        6.166   2.476   0.955  0.00  0.00    -0.049 S 
ENDROOT
BRANCH   1  12
ATOM     10  C   LIG    1       -0.017   1.379   0.010  0.00  0.00    +0.003 A 
ATOM     11  C   LIG    1        1.166   2.089   0.002  0.00  0.00    +0.028 A 
ATOM     12  C   LIG    1        2.386   1.407  -0.013  0.00  0.00    +0.068 A 
ATOM     13  C   LIG    1        2.398   0.011  -0.021  0.00  0.00    +0.047 A 
ATOM     14  C   LIG    1        1.207  -0.687  -0.013  0.00  0.00    +0.043 A 
ATOM     15 CL   LIG    1        1.220  -2.423  -0.023  0.00  0.00    -0.083 Cl
ATOM     16  C   LIG    1        0.002  -0.004   0.002  0.00  0.00    +0.020 A 
ENDBRANCH   1  12
BRANCH   8  17
ATOM     17  C   LIG    1        8.984   2.326   2.496  0.00  0.00    +0.005 C 
ATOM     18  C   LIG    1       10.199   2.317   3.108  0.00  0.00    +0.046 C 
BRANCH  18  19
ATOM     19  C   LIG    1       11.168   3.292   2.773  0.00  0.00    +0.128 A 
ATOM     20  C   LIG    1       12.436   3.397   3.308  0.00  0.00    +0.049 A 
ATOM     21  C   LIG    1       13.041   4.500   2.686  0.00  0.00    +0.042 A 
ATOM     22  C   LIG    1       12.143   5.013   1.818  0.00  0.00    +0.195 A 
ATOM     23  O   LIG    1       11.019   4.282   1.868  0.00  0.00    -0.464 OA
ENDBRANCH  18  19
ENDBRANCH   8  17
TORSDOF 3
