REMARK  Name = ZINC18187630
REMARK                            x       y       z     vdW  Elec       q    Type
REMARK                         _______ _______ _______ _____ _____    ______ ____
ROOT
ATOM      1  C   LIG    1       -0.016   1.350   0.009  0.00  0.00    +0.049 A 
ATOM      2  C   LIG    1        1.204   2.071   0.002  0.00  0.00    +0.067 A 
ATOM      3  N   LIG    1        1.202   3.389   0.009  0.00  0.00    -0.316 N 
ATOM      4  H   LIG    1        0.361   3.873   0.020  0.00  0.00    +0.169 HD
ATOM      5  C   LIG    1        2.369   4.064   0.002  0.00  0.00    +0.314 A 
ATOM      6  C   LIG    1        3.659   3.306  -0.015  0.00  0.00    +0.314 A 
ATOM      7  N   LIG    1        3.637   1.959  -0.023  0.00  0.00    -0.316 N 
ATOM      8  H   LIG    1        4.470   1.460  -0.034  0.00  0.00    +0.169 HD
ATOM      9  O   LIG    1        4.717   3.901  -0.022  0.00  0.00    -0.262 OA
ATOM     10  O   LIG    1        2.372   5.278   0.009  0.00  0.00    -0.262 OA
ATOM     11  C   LIG    1        2.485   1.318  -0.015  0.00  0.00    +0.067 A 
ATOM     12  C   LIG    1        2.451  -0.099  -0.022  0.00  0.00    +0.049 A 
ATOM     13  C   LIG    1        1.260  -0.742  -0.014  0.00  0.00    +0.061 A 
ATOM     14 CL   LIG    1        1.229  -2.478  -0.023  0.00  0.00    -0.082 Cl
ATOM     15  C   LIG    1        0.002  -0.004   0.002  0.00  0.00    +0.061 A 
ATOM     16 CL   LIG    1       -1.498  -0.877   0.012  0.00  0.00    -0.082 Cl
ENDROOT
TORSDOF 0
