REMARK  Name = ZINC28704669
REMARK                            x       y       z     vdW  Elec       q    Type
REMARK                         _______ _______ _______ _____ _____    ______ ____
ROOT
ATOM      1  C   LIG    1        1.235   1.726   2.793  0.00  0.00    +0.039 C 
ATOM      2  C   LIG    1        1.696   2.136   4.030  0.00  0.00    +0.048 C 
ATOM      3  C   LIG    1        3.098   2.174   4.500  0.00  0.00    +0.008 A 
ATOM      4  C   LIG    1        4.312   1.852   3.899  0.00  0.00    +0.011 A 
ATOM      5  C   LIG    1        5.487   2.003   4.602  0.00  0.00    +0.009 A 
ATOM      6  C   LIG    1        5.459   2.483   5.913  0.00  0.00    -0.016 A 
ATOM      7  C   LIG    1        4.249   2.812   6.516  0.00  0.00    +0.032 A 
ATOM      8  C   LIG    1        3.060   2.664   5.814  0.00  0.00    +0.042 A 
ATOM      9  N   LIG    1        1.740   2.913   6.170  0.00  0.00    -0.281 N 
ATOM     10  H   LIG    1        1.505   3.300   7.172  0.00  0.00    +0.155 HD
ATOM     11  C   LIG    1        0.899   2.622   5.164  0.00  0.00    +0.249 C 
ATOM     12  O   LIG    1       -0.314   2.740   5.188  0.00  0.00    -0.270 OA
ENDROOT
BRANCH   1  20
ATOM     13  C   LIG    1       -0.179   2.294   0.073  0.00  0.00    +0.046 C 
ATOM     14  C   LIG    1       -0.809   1.847   1.367  0.00  0.00    -0.022 A 
ATOM     15  C   LIG    1       -2.166   1.606   1.590  0.00  0.00    -0.023 A 
ATOM     16  C   LIG    1       -2.315   1.218   2.881  0.00  0.00    +0.017 A 
ATOM     17  C   LIG    1       -3.620   0.856   3.541  0.00  0.00    +0.063 C 
ATOM     18  N   LIG    1       -1.099   1.215   3.484  0.00  0.00    -0.358 N 
ATOM     19  H   LIG    1       -1.012   0.931   4.543  0.00  0.00    +0.166 HD
ATOM     20  C   LIG    1       -0.150   1.602   2.562  0.00  0.00    +0.043 A 
BRANCH  15  21
ATOM     21  C   LIG    1       -3.270   1.748   0.574  0.00  0.00    +0.048 C 
BRANCH  21  22
ATOM     22  C   LIG    1       -3.463   0.420  -0.159  0.00  0.00    +0.125 C 
BRANCH  22  23
ATOM     23  C   LIG    1       -4.567   0.562  -1.175  0.00  0.00    +0.305 C 
ATOM     24  O   LIG    1       -5.140   1.618  -1.300  0.00  0.00    -0.251 OA
BRANCH  23  25
ATOM     25  O   LIG    1       -4.913  -0.484  -1.941  0.00  0.00    -0.481 OA
ATOM     26  H   LIG    1       -4.469  -1.303  -1.844  0.00  0.00    +0.295 HD
ENDBRANCH  23  25
ENDBRANCH  22  23
ENDBRANCH  21  22
ENDBRANCH  15  21
ENDBRANCH   1  20
BRANCH   6  27
ATOM     27  C   LIG    1        6.726   2.644   6.666  0.00  0.00    -0.011 A 
ATOM     28  C   LIG    1        6.705   3.129   7.973  0.00  0.00    +0.054 A 
ATOM     29  C   LIG    1        7.890   3.273   8.676  0.00  0.00    +0.124 A 
ATOM     30  C   LIG    1        9.098   2.945   8.077  0.00  0.00    +0.091 A 
ATOM     31  C   LIG    1        9.123   2.467   6.775  0.00  0.00    +0.124 A 
ATOM     32  C   LIG    1        7.941   2.316   6.068  0.00  0.00    +0.054 A 
BRANCH  29  33
ATOM     33  O   LIG    1        7.870   3.740   9.952  0.00  0.00    -0.495 OA
ATOM     34  C   LIG    1        9.129   3.869  10.616  0.00  0.00    +0.277 C 
ENDBRANCH  29  33
BRANCH  31  35
ATOM     35  O   LIG    1       10.308   2.148   6.192  0.00  0.00    -0.495 OA
ATOM     36  C   LIG    1       11.488   2.329   6.978  0.00  0.00    +0.277 C 
ENDBRANCH  31  35
ENDBRANCH   6  27
TORSDOF 8
