REMARK  Name = ZINC13831238
REMARK                            x       y       z     vdW  Elec       q    Type
REMARK                         _______ _______ _______ _____ _____    ______ ____
ROOT
ATOM      1  C   LIG    1        1.156  -4.257   1.836  0.00  0.00    +0.019 C 
ENDROOT
BRANCH   1   2
ATOM      2  C   LIG    1        1.277  -2.753   2.085  0.00  0.00    +0.103 C 
BRANCH   2   3
ATOM      3  N   LIG    1        0.623  -2.023   0.996  0.00  0.00    -0.327 N 
ATOM      4  H   LIG    1        0.202  -2.510   0.270  0.00  0.00    +0.148 HD
BRANCH   3   5
ATOM      5  C   LIG    1        0.604  -0.675   1.004  0.00  0.00    +0.130 C 
ATOM      6  S   LIG    1        1.346   0.184   2.285  0.00  0.00    -0.019 S 
BRANCH   5   8
ATOM      7  C   LIG    1       -0.018   1.461   0.010  0.00  0.00    +0.127 C 
ATOM      8  N   LIG    1        0.002  -0.004   0.002  0.00  0.00    -0.330 N 
ATOM      9  H   LIG    1       -0.418  -0.491  -0.724  0.00  0.00    +0.147 HD
ENDBRANCH   5   8
ENDBRANCH   3   5
ENDBRANCH   2   3
ENDBRANCH   1   2
BRANCH   1  10
ATOM     10  C   LIG    1        1.839  -5.019   2.973  0.00  0.00    +0.008 C 
BRANCH  10  11
ATOM     11  C   LIG    1        1.718  -6.524   2.724  0.00  0.00    +0.055 C 
BRANCH  11  12
ATOM     12  C   LIG    1        2.391  -7.275   3.844  0.00  0.00    +0.035 A 
ATOM     13  C   LIG    1        3.701  -7.572   3.937  0.00  0.00    +0.133 A 
ATOM     14  N   LIG    1        3.894  -8.246   5.080  0.00  0.00    -0.244 NA
ATOM     15  C   LIG    1        2.752  -8.377   5.699  0.00  0.00    +0.196 A 
ATOM     16  N   LIG    1        1.790  -7.780   4.965  0.00  0.00    -0.348 N 
ATOM     17  H   LIG    1        0.848  -7.722   5.188  0.00  0.00    +0.166 HD
ENDBRANCH  11  12
ENDBRANCH  10  11
ENDBRANCH   1  10
TORSDOF 7
