REMARK  Name = ZINC19688764
REMARK                            x       y       z     vdW  Elec       q    Type
REMARK                         _______ _______ _______ _____ _____    ______ ____
ROOT
ATOM      1  C   LIG    1       -1.984   0.866   1.411  0.00  0.00    +0.132 C 
ATOM      2  C   LIG    1       -2.778   0.960   0.129  0.00  0.00    +0.042 A 
ATOM      3  C   LIG    1       -2.222   1.290  -1.059  0.00  0.00    -0.016 A 
ATOM      4  C   LIG    1       -0.755   1.594  -1.235  0.00  0.00    +0.052 C 
ATOM      5  C   LIG    1       -0.013   1.086   0.008  0.00  0.00    +0.086 C 
ATOM      6  C   LIG    1       -3.281   1.284  -2.043  0.00  0.00    +0.003 A 
ATOM      7  C   LIG    1       -3.305   1.543  -3.417  0.00  0.00    +0.010 A 
ATOM      8  C   LIG    1       -4.521   1.440  -4.048  0.00  0.00    +0.001 A 
ATOM      9  C   LIG    1       -5.677   1.096  -3.367  0.00  0.00    +0.002 A 
ATOM     10  C   LIG    1       -5.682   0.833  -2.008  0.00  0.00    +0.026 A 
ATOM     11  C   LIG    1       -4.463   0.930  -1.341  0.00  0.00    +0.047 A 
ATOM     12  N   LIG    1       -4.119   0.742  -0.033  0.00  0.00    -0.356 N 
ATOM     13  H   LIG    1       -4.738   0.460   0.832  0.00  0.00    +0.166 HD
ATOM     14  N   LIG    1       -0.701   1.560   1.217  0.00  0.00    -0.304 NA
ATOM     15  H   LIG    1       -0.879   2.641   1.116  0.00  0.00    +0.123 HD
ENDROOT
BRANCH   1  20
ATOM     16  C   LIG    1       -4.177   1.343   4.451  0.00  0.00    +0.120 A 
ATOM     17  C   LIG    1       -4.163   2.724   4.586  0.00  0.00    +0.045 A 
ATOM     18  C   LIG    1       -3.446   3.496   3.694  0.00  0.00    +0.004 A 
ATOM     19  C   LIG    1       -2.737   2.894   2.670  0.00  0.00    +0.006 A 
ATOM     20  C   LIG    1       -2.753   1.519   2.531  0.00  0.00    -0.021 A 
ATOM     21  C   LIG    1       -3.470   0.742   3.421  0.00  0.00    +0.051 A 
BRANCH  16  23
ATOM     22  C   LIG    1       -5.587   1.267   6.364  0.00  0.00    +0.277 C 
ATOM     23  O   LIG    1       -4.883   0.581   5.328  0.00  0.00    -0.495 OA
ENDBRANCH  16  23
ENDBRANCH   1  20
TORSDOF 2
