REMARK  Name = ZINC00001137
REMARK                            x       y       z     vdW  Elec       q    Type
REMARK                         _______ _______ _______ _____ _____    ______ ____
ROOT
ATOM      1  C   LIG    1        2.864  -0.539  -2.397  0.00  0.00    -0.020 C 
ATOM      2  C   LIG    1        3.466   0.301  -3.252  0.00  0.00    -0.013 C 
ATOM      3  C   LIG    1        4.037  -0.241  -4.499  0.00  0.00    -0.004 A 
ATOM      4  C   LIG    1        4.369  -1.598  -4.558  0.00  0.00    +0.009 A 
ATOM      5  C   LIG    1        4.905  -2.131  -5.710  0.00  0.00    +0.001 A 
ATOM      6  C   LIG    1        5.120  -1.325  -6.816  0.00  0.00    +0.001 A 
ATOM      7  C   LIG    1        4.797   0.015  -6.771  0.00  0.00    +0.015 A 
ATOM      8  C   LIG    1        4.252   0.570  -5.615  0.00  0.00    +0.020 A 
ATOM      9  S   LIG    1        3.847   2.280  -5.597  0.00  0.00    -0.088 S 
ATOM     10  C   LIG    1        3.705   2.709  -3.898  0.00  0.00    +0.021 A 
ATOM     11  C   LIG    1        3.764   4.052  -3.531  0.00  0.00    +0.017 A 
ATOM     12  C   LIG    1        3.639   4.421  -2.213  0.00  0.00    +0.021 A 
ATOM     13  C   LIG    1        3.468   3.457  -1.233  0.00  0.00    +0.042 A 
ATOM     14 CL   LIG    1        3.322   3.929   0.431  0.00  0.00    -0.084 Cl
ATOM     15  C   LIG    1        3.413   2.122  -1.577  0.00  0.00    +0.029 A 
ATOM     16  C   LIG    1        3.529   1.735  -2.915  0.00  0.00    -0.002 A 
ENDROOT
BRANCH   1  17
ATOM     17  C   LIG    1        1.915  -0.003  -1.357  0.00  0.00    +0.009 C 
BRANCH  17  18
ATOM     18  C   LIG    1        0.594  -0.772  -1.427  0.00  0.00    -0.075 C 
BRANCH  18  20
ATOM     19  C   LIG    1       -0.675   1.142  -0.734  0.00  0.00    -0.097 C 
ATOM     20  N   LIG    1       -0.332  -0.250  -0.413  0.00  0.00    +0.376 N 
ATOM     21  H   LIG    1        0.108  -0.287   0.495  0.00  0.00    -0.083 HD
ATOM     22  C   LIG    1       -1.554  -1.065  -0.399  0.00  0.00    -0.097 C 
ENDBRANCH  18  20
ENDBRANCH  17  18
ENDBRANCH   1  17
TORSDOF 3
