REMARK  Name = ZINC18115268
REMARK                            x       y       z     vdW  Elec       q    Type
REMARK                         _______ _______ _______ _____ _____    ______ ____
ROOT
ATOM      1  C   LIG    1        1.456   0.284  -4.892  0.00  0.00    +0.110 C 
ENDROOT
BRANCH   1   2
ATOM      2  S   LIG    1        1.598  -0.247  -3.163  0.00  0.00    -0.151 S 
BRANCH   2   3
ATOM      3  C   LIG    1       -0.107  -0.636  -2.682  0.00  0.00    +0.126 C 
BRANCH   3   6
ATOM      4  C   LIG    1       -0.466   1.187  -0.162  0.00  0.00    +0.065 C 
ATOM      5  C   LIG    1       -0.285  -0.310  -0.166  0.00  0.00    +0.036 A 
ATOM      6  C   LIG    1       -0.131  -1.097  -1.247  0.00  0.00    +0.072 A 
ATOM      7  N   LIG    1       -0.001  -2.363  -0.823  0.00  0.00    -0.240 NA
ATOM      8  C   LIG    1       -0.070  -2.390   0.479  0.00  0.00    +0.197 A 
ATOM      9  N   LIG    1       -0.241  -1.129   0.930  0.00  0.00    -0.348 N 
ATOM     10  H   LIG    1       -0.321  -0.854   1.857  0.00  0.00    +0.166 HD
ENDBRANCH   3   6
ENDBRANCH   2   3
ENDBRANCH   1   2
BRANCH   1  11
ATOM     11  C   LIG    1        2.841   0.647  -5.430  0.00  0.00    +0.254 C 
BRANCH  11  12
ATOM     12  N   LIG    1        2.726   1.076  -6.826  0.00  0.00    -0.112 NA
ATOM     13  C   LIG    1        3.046   2.293  -7.162  0.00  0.00    +0.395 C 
BRANCH  13  14
ATOM     14  N   LIG    1        2.824   2.733  -8.445  0.00  0.00    -0.278 N 
ATOM     15  H   LIG    1        2.430   2.136  -9.101  0.00  0.00    +0.258 HD
ATOM     16  C   LIG    1        3.184   4.102  -8.823  0.00  0.00    +0.239 C 
ENDBRANCH  13  14
BRANCH  13  17
ATOM     17  N   LIG    1        3.608   3.141  -6.230  0.00  0.00    -0.178 N 
ATOM     18  H   LIG    1        3.843   2.807  -5.350  0.00  0.00    +0.278 HD
BRANCH  17  19
ATOM     19  C   LIG    1        3.830   4.440  -6.543  0.00  0.00    +0.255 C 
ATOM     20  N   LIG    1        4.017   5.529  -6.805  0.00  0.00    -0.154 NA
ENDBRANCH  17  19
ENDBRANCH  13  17
ENDBRANCH  11  12
ENDBRANCH   1  11
TORSDOF 8
