REMARK  Name = ZINC53227588
REMARK                            x       y       z     vdW  Elec       q    Type
REMARK                         _______ _______ _______ _____ _____    ______ ____
ROOT
ATOM      1  C   LIG    1       -3.322  -4.646   0.025  0.00  0.00    +0.253 C 
ATOM      2  C   LIG    1       -2.999  -5.096   1.467  0.00  0.00    +0.195 C 
ATOM      3  C   LIG    1       -3.284  -6.614   1.459  0.00  0.00    +0.178 C 
ATOM      4  C   LIG    1       -3.744  -6.902   0.013  0.00  0.00    +0.178 C 
ATOM      5  O   LIG    1       -4.244  -5.637  -0.476  0.00  0.00    -0.346 OA
ENDROOT
BRANCH   1  11
ATOM      6  C   LIG    1       -1.702  -0.454   0.016  0.00  0.00    +0.192 A 
ATOM      7  N   LIG    1       -2.618   0.507   0.024  0.00  0.00    -0.205 NA
ATOM      8  C   LIG    1       -3.914   0.219   0.035  0.00  0.00    +0.148 A 
ATOM      9  C   LIG    1       -4.303  -1.133   0.037  0.00  0.00    +0.147 A 
ATOM     10  C   LIG    1       -3.299  -2.114   0.028  0.00  0.00    +0.169 A 
ATOM     11  N   LIG    1       -3.950  -3.322   0.032  0.00  0.00    -0.285 N 
ATOM     12  C   LIG    1       -5.290  -3.064   0.044  0.00  0.00    +0.203 A 
ATOM     13  N   LIG    1       -5.494  -1.780   0.046  0.00  0.00    -0.231 NA
ATOM     14  N   LIG    1       -2.024  -1.737   0.012  0.00  0.00    -0.202 NA
BRANCH   8  15
ATOM     15  N   LIG    1       -4.862   1.227   0.044  0.00  0.00    -0.341 N 
ATOM     16  H   LIG    1       -5.806   1.004   0.052  0.00  0.00    +0.144 HD
ATOM     17  H   LIG    1       -4.583   2.155   0.043  0.00  0.00    +0.144 HD
ENDBRANCH   8  15
BRANCH   6  19
ATOM     18  C   LIG    1       -0.022   1.810   0.012  0.00  0.00    +0.093 C 
ATOM     19  S   LIG    1        0.002  -0.004   0.002  0.00  0.00    -0.089 S 
ENDBRANCH   6  19
ENDBRANCH   1  11
BRANCH   2  20
ATOM     20  O   LIG    1       -1.627  -4.842   1.776  0.00  0.00    -0.385 OA
ATOM     21  H   LIG    1       -1.370  -5.106   2.670  0.00  0.00    +0.210 HD
ENDBRANCH   2  20
BRANCH   3  22
ATOM     22  O   LIG    1       -2.096  -7.348   1.765  0.00  0.00    -0.386 OA
ATOM     23  H   LIG    1       -1.732  -7.159   2.640  0.00  0.00    +0.210 HD
ENDBRANCH   3  22
BRANCH   4  24
ATOM     24  C   LIG    1       -4.854  -7.955   0.007  0.00  0.00    +0.206 C 
BRANCH  24  25
ATOM     25  O   LIG    1       -5.184  -8.291  -1.342  0.00  0.00    -0.284 OA
BRANCH  25  26
ATOM     26  P   LIG    1       -6.316  -9.371  -1.725  0.00  0.00    +0.483 P 
ATOM     27  O   LIG    1       -6.008 -10.711  -1.021  0.00  0.00    -0.227 OA
BRANCH  26  28
ATOM     28  O   LIG    1       -7.697  -8.854  -1.266  0.00  0.00    -0.302 OA
ATOM     29  H   LIG    1       -7.690  -8.720  -0.305  0.00  0.00    +0.222 HD
ENDBRANCH  26  28
BRANCH  26  30
ATOM     30  O   LIG    1       -6.328  -9.593  -3.320  0.00  0.00    -0.186 OA
BRANCH  30  31
ATOM     31  P   LIG    1       -6.967 -10.709  -4.289  0.00  0.00    +0.481 P 
ATOM     32  O   LIG    1       -6.798 -12.124  -3.638  0.00  0.00    -0.227 OA
BRANCH  31  33
ATOM     33  O   LIG    1       -6.234 -10.680  -5.673  0.00  0.00    -0.302 OA
ATOM     34  H   LIG    1       -5.290 -10.866  -5.543  0.00  0.00    +0.222 HD
ENDBRANCH  31  33
BRANCH  31  35
ATOM     35  O   LIG    1       -8.490 -10.409  -4.498  0.00  0.00    -0.302 OA
ATOM     36  H   LIG    1       -8.944 -10.426  -3.641  0.00  0.00    +0.222 HD
ENDBRANCH  31  35
ENDBRANCH  30  31
ENDBRANCH  26  30
ENDBRANCH  25  26
ENDBRANCH  24  25
ENDBRANCH   4  24
TORSDOF 13
