REMARK  Name = ZINC34847740
REMARK                            x       y       z     vdW  Elec       q    Type
REMARK                         _______ _______ _______ _____ _____    ______ ____
ROOT
ATOM      1  N   LIG    1       -1.228  -0.692   0.117  0.00  0.00    -0.269 N 
ATOM      2  H   LIG    1       -2.069  -0.248   0.305  0.00  0.00    +0.156 HD
ATOM      3  C   LIG    1       -1.200  -2.024  -0.089  0.00  0.00    +0.306 C 
ATOM      4  N   LIG    1       -2.354  -2.714  -0.188  0.00  0.00    -0.284 N 
ATOM      5  C   LIG    1       -2.274  -4.175  -0.205  0.00  0.00    +0.111 C 
ATOM      6  C   LIG    1       -2.546  -4.676   1.198  0.00  0.00    +0.038 C 
ATOM      7  C   LIG    1       -4.051  -4.844   1.422  0.00  0.00    +0.108 C 
ATOM      8  N   LIG    1       -4.835  -3.743   0.840  0.00  0.00    -0.312 N 
ATOM      9  C   LIG    1       -4.451  -2.347   0.952  0.00  0.00    +0.125 C 
ATOM     10  C   LIG    1       -3.564  -1.973  -0.262  0.00  0.00    +0.128 C 
ATOM     11  O   LIG    1       -0.136  -2.602  -0.186  0.00  0.00    -0.252 OA
ENDROOT
BRANCH   1  19
ATOM     12  C   LIG    1       -0.069   1.373  -0.359  0.00  0.00    +0.025 A 
ATOM     13  C   LIG    1        1.102   2.103  -0.415  0.00  0.00    +0.023 A 
ATOM     14  C   LIG    1        2.302   1.517  -0.055  0.00  0.00    +0.059 A 
ATOM     15 CL   LIG    1        3.772   2.438  -0.127  0.00  0.00    -0.082 Cl
ATOM     16  C   LIG    1        2.333   0.197   0.362  0.00  0.00    +0.061 A 
ATOM     17 CL   LIG    1        3.841  -0.536   0.812  0.00  0.00    -0.082 Cl
ATOM     18  C   LIG    1        1.164  -0.538   0.419  0.00  0.00    +0.044 A 
ATOM     19  C   LIG    1       -0.042   0.049   0.059  0.00  0.00    +0.036 A 
ENDBRANCH   1  19
BRANCH   8  20
ATOM     20  C   LIG    1       -6.000  -4.056   0.149  0.00  0.00    +0.140 A 
ATOM     21  C   LIG    1       -7.197  -4.203   0.846  0.00  0.00    +0.081 A 
ATOM     22 CL   LIG    1       -7.243  -4.001   2.569  0.00  0.00    -0.080 Cl
ATOM     23  C   LIG    1       -8.349  -4.513   0.145  0.00  0.00    +0.037 A 
ATOM     24  C   LIG    1       -8.266  -4.666  -1.233  0.00  0.00    +0.074 A 
ATOM     25  C   LIG    1       -7.046  -4.506  -1.859  0.00  0.00    +0.125 A 
ATOM     26  N   LIG    1       -5.964  -4.205  -1.165  0.00  0.00    -0.238 NA
BRANCH  24  27
ATOM     27  C   LIG    1       -9.495  -5.005  -2.037  0.00  0.00    +0.419 C 
ATOM     28  F   LIG    1      -10.374  -5.756  -1.251  0.00  0.00    -0.166 F 
ATOM     29  F   LIG    1       -9.125  -5.748  -3.163  0.00  0.00    -0.166 F 
ATOM     30  F   LIG    1      -10.126  -3.824  -2.444  0.00  0.00    -0.166 F 
ENDBRANCH  24  27
ENDBRANCH   8  20
TORSDOF 3
