REMARK  Name = ZINC13808164
REMARK                            x       y       z     vdW  Elec       q    Type
REMARK                         _______ _______ _______ _____ _____    ______ ____
ROOT
ATOM      1  S   LIG    1        1.156  -4.311  -0.219  0.00  0.00    +0.098 S 
ATOM      2  O   LIG    1        1.718  -4.623   1.048  0.00  0.00    -0.148 OA
ATOM      3  O   LIG    1        1.911  -4.367  -1.422  0.00  0.00    -0.148 OA
ENDROOT
BRANCH   1   9
ATOM      4  C   LIG    1       -1.023   1.300   0.190  0.00  0.00    +0.044 C 
ATOM      5  C   LIG    1       -0.478  -0.101   0.088  0.00  0.00    -0.050 A 
ATOM      6  C   LIG    1       -0.088  -0.603  -1.139  0.00  0.00    +0.008 A 
ATOM      7  C   LIG    1        0.412  -1.889  -1.233  0.00  0.00    -0.023 A 
ATOM      8  C   LIG    1        0.837  -2.436  -2.571  0.00  0.00    +0.046 C 
ATOM      9  C   LIG    1        0.521  -2.672  -0.100  0.00  0.00    +0.117 A 
ATOM     10  C   LIG    1        0.131  -2.170   1.128  0.00  0.00    -0.023 A 
ATOM     11  C   LIG    1        0.249  -3.024   2.364  0.00  0.00    +0.046 C 
ATOM     12  C   LIG    1       -0.365  -0.883   1.222  0.00  0.00    +0.008 A 
ENDBRANCH   1   9
BRANCH   1  13
ATOM     13  N   LIG    1       -0.138  -5.324  -0.425  0.00  0.00    -0.070 N 
ATOM     14  H   LIG    1       -0.313  -6.025   0.222  0.00  0.00    +0.215 HD
BRANCH  13  15
ATOM     15  N   LIG    1       -0.979  -5.169  -1.535  0.00  0.00    +0.026 NA
ATOM     16  C   LIG    1       -1.994  -5.963  -1.696  0.00  0.00    +0.401 C 
BRANCH  16  17
ATOM     17  N   LIG    1       -2.828  -5.809  -2.796  0.00  0.00    -0.288 N 
ATOM     18  H   LIG    1       -3.586  -6.403  -2.916  0.00  0.00    +0.255 HD
ATOM     19  H   LIG    1       -2.652  -5.109  -3.443  0.00  0.00    +0.255 HD
ENDBRANCH  16  17
BRANCH  16  20
ATOM     20  N   LIG    1       -2.245  -6.966  -0.770  0.00  0.00    -0.288 N 
ATOM     21  H   LIG    1       -3.003  -7.559  -0.891  0.00  0.00    +0.255 HD
ATOM     22  H   LIG    1       -1.663  -7.073  -0.002  0.00  0.00    +0.255 HD
ENDBRANCH  16  20
ENDBRANCH  13  15
ENDBRANCH   1  13
TORSDOF 5
