REMARK  Name = ZINC21810129
REMARK                            x       y       z     vdW  Elec       q    Type
REMARK                         _______ _______ _______ _____ _____    ______ ____
ROOT
ATOM      1  N   LIG    1       -0.011   0.966   0.007  0.00  0.00    -0.280 N 
ATOM      2  H   LIG    1       -0.154  -0.031  -0.435  0.00  0.00    +0.155 HD
ATOM      3  C   LIG    1       -1.036   1.579   0.631  0.00  0.00    +0.252 C 
ATOM      4  O   LIG    1       -0.901   2.712   1.053  0.00  0.00    -0.270 OA
ENDROOT
BRANCH   1  13
ATOM      5  C   LIG    1        2.542   3.604  -0.302  0.00  0.00    +0.003 A 
ATOM      6  C   LIG    1        3.704   2.896  -0.251  0.00  0.00    +0.010 A 
ATOM      7  C   LIG    1        3.668   1.500  -0.110  0.00  0.00    +0.002 A 
ATOM      8  C   LIG    1        4.851   0.739  -0.053  0.00  0.00    +0.011 A 
ATOM      9  C   LIG    1        4.741  -0.615   0.086  0.00  0.00    +0.020 A 
ATOM     10  C   LIG    1        3.481  -1.206   0.167  0.00  0.00    +0.111 A 
ATOM     11  N   LIG    1        2.382  -0.494   0.114  0.00  0.00    -0.253 NA
ATOM     12  C   LIG    1        2.420   0.835  -0.015  0.00  0.00    +0.092 A 
ATOM     13  C   LIG    1        1.232   1.595  -0.077  0.00  0.00    +0.060 A 
ATOM     14  C   LIG    1        1.309   2.964  -0.217  0.00  0.00    +0.025 A 
ENDBRANCH   1  13
BRANCH   3  15
ATOM     15  C   LIG    1       -2.322   0.877   0.803  0.00  0.00    +0.080 A 
ATOM     16  C   LIG    1       -2.481  -0.424   0.320  0.00  0.00    +0.036 A 
ATOM     17  C   LIG    1       -3.686  -1.075   0.484  0.00  0.00    +0.042 A 
ATOM     18 CL   LIG    1       -3.883  -2.692  -0.116  0.00  0.00    -0.084 Cl
ATOM     19  C   LIG    1       -4.739  -0.444   1.127  0.00  0.00    +0.023 A 
ATOM     20  C   LIG    1       -4.594   0.842   1.609  0.00  0.00    +0.047 A 
ATOM     21  C   LIG    1       -3.388   1.509   1.456  0.00  0.00    +0.129 A 
BRANCH  21  22
ATOM     22  O   LIG    1       -3.243   2.771   1.934  0.00  0.00    -0.506 OA
ATOM     23  H   LIG    1       -4.081   3.265   2.447  0.00  0.00    +0.292 HD
ENDBRANCH  21  22
ENDBRANCH   3  15
TORSDOF 3
