REMARK  Name = ZINC18007956
REMARK                            x       y       z     vdW  Elec       q    Type
REMARK                         _______ _______ _______ _____ _____    ______ ____
ROOT
ATOM      1  C   LIG    1       -0.017   1.382   0.010  0.00  0.00    +0.017 A 
ATOM      2  C   LIG    1        1.157   2.104   0.002  0.00  0.00    +0.029 A 
ATOM      3  C   LIG    1        2.388   1.438  -0.013  0.00  0.00    +0.077 A 
ATOM      4  C   LIG    1        2.397   0.028  -0.021  0.00  0.00    +0.034 A 
ATOM      5  C   LIG    1        3.826  -0.358  -0.037  0.00  0.00    +0.152 C 
ATOM      6  C   LIG    1        4.549   0.928  -0.037  0.00  0.00    +0.241 C 
ATOM      7  N   LIG    1        4.334  -1.569  -0.049  0.00  0.00    -0.175 NA
ATOM      8  C   LIG    1        1.206  -0.683  -0.013  0.00  0.00    +0.027 A 
ATOM      9  N   LIG    1        3.668   1.894  -0.024  0.00  0.00    -0.211 NA
ATOM     10  C   LIG    1        0.002  -0.004   0.002  0.00  0.00    +0.019 A 
ATOM     11 BR   LIG    1       -1.624  -0.969   0.012  0.00  0.00    -0.050 Br
ENDROOT
BRANCH   6  12
ATOM     12  O   LIG    1        5.895   1.081  -0.051  0.00  0.00    -0.491 OA
ATOM     13  H   LIG    1        6.452   0.328  -0.061  0.00  0.00    +0.294 HD
ENDBRANCH   6  12
BRANCH   7  14
ATOM     14  N   LIG    1        5.614  -1.732  -0.063  0.00  0.00    -0.218 N 
ATOM     15  H   LIG    1        6.201  -0.960  -0.064  0.00  0.00    +0.176 HD
BRANCH  14  16
ATOM     16  C   LIG    1        6.135  -2.975  -0.075  0.00  0.00    +0.147 C 
ATOM     17  S   LIG    1        7.833  -3.190  -0.094  0.00  0.00    -0.017 S 
BRANCH  16  18
ATOM     18  N   LIG    1        5.319  -4.048  -0.074  0.00  0.00    -0.339 N 
ATOM     19  H   LIG    1        5.695  -4.942  -0.083  0.00  0.00    +0.144 HD
ATOM     20  H   LIG    1        4.357  -3.925  -0.064  0.00  0.00    +0.144 HD
ENDBRANCH  16  18
ENDBRANCH  14  16
ENDBRANCH   7  14
TORSDOF 4
