REMARK  Name = ZINC72116552
REMARK                            x       y       z     vdW  Elec       q    Type
REMARK                         _______ _______ _______ _____ _____    ______ ____
ROOT
ATOM      1  C   LIG    1        0.004  -0.776  -1.141  0.00  0.00    +0.129 C 
ATOM      2  C   LIG    1        0.043  -0.176  -2.423  0.00  0.00    +0.040 C 
ATOM      3  C   LIG    1        0.082   1.214  -2.589  0.00  0.00    +0.042 C 
ATOM      4  C   LIG    1        0.120   1.744  -3.847  0.00  0.00    +0.147 C 
ATOM      5  C   LIG    1        0.119   0.911  -4.976  0.00  0.00    +0.148 C 
ATOM      6  C   LIG    1        0.081  -0.459  -4.839  0.00  0.00    +0.053 C 
ATOM      7  C   LIG    1        0.043  -1.024  -3.558  0.00  0.00    +0.063 C 
ATOM      8  N   LIG    1        0.005  -2.352  -3.370  0.00  0.00    -0.301 NA
ATOM      9  H   LIG    1        0.004  -2.947  -4.137  0.00  0.00    +0.123 HD
ATOM     10  C   LIG    1       -0.030  -2.852  -2.158  0.00  0.00    +0.166 C 
ATOM     11  N   LIG    1       -0.027  -2.100  -1.069  0.00  0.00    -0.288 NA
ATOM     12  H   LIG    1       -0.871  -2.341  -0.550  0.00  0.00    +0.125 HD
ENDROOT
BRANCH   1  14
ATOM     13  C   LIG    1       -1.267   0.443   0.583  0.00  0.00    +0.106 C 
ATOM     14  N   LIG    1        0.002  -0.004   0.002  0.00  0.00    -0.293 NA
ATOM     15  C   LIG    1        1.269   0.369   0.636  0.00  0.00    +0.106 C 
ENDBRANCH   1  14
BRANCH   5  16
ATOM     16  O   LIG    1        0.157   1.461  -6.217  0.00  0.00    -0.377 OA
ATOM     17  C   LIG    1        0.154   0.561  -7.326  0.00  0.00    +0.194 C 
ENDBRANCH   5  16
BRANCH   4  18
ATOM     18  O   LIG    1        0.158   3.093  -4.008  0.00  0.00    -0.374 OA
BRANCH  18  19
ATOM     19  C   LIG    1        0.156   3.888  -2.820  0.00  0.00    +0.166 C 
BRANCH  19  20
ATOM     20  C   LIG    1        0.202   5.370  -3.198  0.00  0.00    +0.083 C 
BRANCH  20  21
ATOM     21  C   LIG    1        0.200   6.208  -1.946  0.00  0.00    +0.044 A 
ATOM     22  C   LIG    1        1.215   7.143  -1.754  0.00  0.00    +0.024 A 
ATOM     23  C   LIG    1        1.229   7.912  -0.625  0.00  0.00    +0.012 A 
ATOM     24  C   LIG    1        0.200   7.726   0.317  0.00  0.00    +0.000 A 
ATOM     25  C   LIG    1        0.148   8.480   1.501  0.00  0.00    +0.010 A 
ATOM     26  C   LIG    1       -0.864   8.271   2.388  0.00  0.00    +0.001 A 
ATOM     27  C   LIG    1       -1.849   7.319   2.137  0.00  0.00    +0.002 A 
ATOM     28  C   LIG    1       -1.830   6.571   1.000  0.00  0.00    +0.028 A 
ATOM     29  C   LIG    1       -0.801   6.758   0.060  0.00  0.00    +0.071 A 
ATOM     30  N   LIG    1       -0.760   6.042  -1.069  0.00  0.00    -0.252 NA
ENDBRANCH  20  21
ENDBRANCH  19  20
ENDBRANCH  18  19
ENDBRANCH   4  18
TORSDOF 6
