REMARK  Name = ZINC53006885
REMARK                            x       y       z     vdW  Elec       q    Type
REMARK                         _______ _______ _______ _____ _____    ______ ____
ROOT
ATOM      1  N   LIG    1       -0.537 -13.666   4.749  0.00  0.00    -0.245 N 
ATOM      2  C   LIG    1       -1.231 -13.667   5.922  0.00  0.00    +0.165 A 
ATOM      3  C   LIG    1       -1.693 -14.979   6.112  0.00  0.00    +0.083 A 
ATOM      4  C   LIG    1       -2.479 -15.264   7.313  0.00  0.00    +0.172 A 
ATOM      5  N   LIG    1       -3.056 -16.341   7.803  0.00  0.00    -0.203 NA
ATOM      6  C   LIG    1       -3.659 -16.042   8.960  0.00  0.00    +0.218 A 
ATOM      7  N   LIG    1       -3.476 -14.762   9.227  0.00  0.00    -0.139 NA
ATOM      8  N   LIG    1       -2.715 -14.229   8.180  0.00  0.00    -0.181 N 
ATOM      9  C   LIG    1       -2.222 -12.986   7.908  0.00  0.00    +0.218 A 
ATOM     10  C   LIG    1       -1.249 -15.741   5.016  0.00  0.00    +0.148 A 
ATOM     11  N   LIG    1       -1.518 -12.727   6.833  0.00  0.00    -0.195 NA
ATOM     12  N   LIG    1       -0.575 -14.961   4.216  0.00  0.00    -0.177 NA
ENDROOT
BRANCH   6  13
ATOM     13  C   LIG    1       -4.412 -16.993   9.804  0.00  0.00    +0.173 A 
ATOM     14  C   LIG    1       -5.033 -16.700  10.977  0.00  0.00    +0.053 A 
ATOM     15  C   LIG    1       -5.621 -17.896  11.434  0.00  0.00    +0.042 A 
ATOM     16  C   LIG    1       -5.333 -18.850  10.527  0.00  0.00    +0.196 A 
ATOM     17  O   LIG    1       -4.606 -18.300   9.541  0.00  0.00    -0.460 OA
ENDBRANCH   6  13
BRANCH   9  18
ATOM     18  N   LIG    1       -2.474 -11.965   8.795  0.00  0.00    -0.327 N 
ATOM     19  H   LIG    1       -2.133 -11.075   8.619  0.00  0.00    +0.145 HD
ATOM     20  H   LIG    1       -2.993 -12.137   9.597  0.00  0.00    +0.145 HD
ENDBRANCH   9  18
BRANCH   1  21
ATOM     21  C   LIG    1        0.128 -12.508   4.146  0.00  0.00    +0.161 C 
BRANCH  21  22
ATOM     22  C   LIG    1       -0.853 -11.779   3.226  0.00  0.00    +0.108 C 
BRANCH  22  26
ATOM     23  N   LIG    1        0.286  -7.987   1.834  0.00  0.00    -0.327 N 
ATOM     24  C   LIG    1       -0.211  -8.944   0.834  0.00  0.00    +0.120 C 
ATOM     25  C   LIG    1       -1.012 -10.031   1.558  0.00  0.00    +0.103 C 
ATOM     26  N   LIG    1       -0.187 -10.618   2.622  0.00  0.00    -0.298 NA
ATOM     27  C   LIG    1        0.157  -9.618   3.642  0.00  0.00    +0.103 C 
ATOM     28  C   LIG    1        1.012  -8.513   3.001  0.00  0.00    +0.120 C 
BRANCH  23  32
ATOM     29  C   LIG    1       -0.328  -3.891   1.366  0.00  0.00    +0.121 A 
ATOM     30  C   LIG    1        0.252  -4.376   2.529  0.00  0.00    +0.047 A 
ATOM     31  C   LIG    1        0.456  -5.733   2.685  0.00  0.00    +0.027 A 
ATOM     32  C   LIG    1        0.080  -6.612   1.677  0.00  0.00    +0.030 A 
ATOM     33  C   LIG    1       -0.501  -6.125   0.514  0.00  0.00    +0.027 A 
ATOM     34  C   LIG    1       -0.710  -4.768   0.362  0.00  0.00    +0.047 A 
BRANCH  29  35
ATOM     35  O   LIG    1       -0.529  -2.554   1.213  0.00  0.00    -0.490 OA
BRANCH  35  36
ATOM     36  C   LIG    1       -0.112  -1.709   2.287  0.00  0.00    +0.257 C 
BRANCH  36  37
ATOM     37  C   LIG    1       -0.416  -0.251   1.936  0.00  0.00    +0.200 C 
BRANCH  37  39
ATOM     38  C   LIG    1       -2.224   1.265   1.514  0.00  0.00    +0.194 C 
ATOM     39  O   LIG    1       -1.830  -0.070   1.839  0.00  0.00    -0.380 OA
ENDBRANCH  37  39
ENDBRANCH  36  37
ENDBRANCH  35  36
ENDBRANCH  29  35
ENDBRANCH  23  32
ENDBRANCH  22  26
ENDBRANCH  21  22
ENDBRANCH   1  21
TORSDOF 10
