REMARK  Name = ZINC17986935
REMARK                            x       y       z     vdW  Elec       q    Type
REMARK                         _______ _______ _______ _____ _____    ______ ____
ROOT
ATOM      1  C   LIG    1        4.392  -1.967   7.402  0.00  0.00    +0.340 C 
ATOM      2  O   LIG    1        4.417  -0.756   7.489  0.00  0.00    -0.245 OA
ENDROOT
BRANCH   1   3
ATOM      3  C   LIG    1        5.024  -2.795   8.446  0.00  0.00    +0.059 A 
ATOM      4  C   LIG    1        5.001  -4.189   8.344  0.00  0.00    +0.017 A 
ATOM      5  C   LIG    1        5.592  -4.959   9.321  0.00  0.00    +0.025 A 
ATOM      6  C   LIG    1        6.211  -4.351  10.408  0.00  0.00    +0.044 A 
ATOM      7  C   LIG    1        6.236  -2.964  10.513  0.00  0.00    +0.025 A 
ATOM      8  C   LIG    1        5.652  -2.188   9.537  0.00  0.00    +0.017 A 
BRANCH   6   9
ATOM      9  N   LIG    1        6.809  -5.135  11.398  0.00  0.00    -0.210 N 
ATOM     10  C   LIG    1        6.830  -6.493  11.362  0.00  0.00    +0.230 C 
ATOM     11  C   LIG    1        7.810  -6.926  12.409  0.00  0.00    +0.092 C 
ATOM     12  C   LIG    1        7.531  -8.207  13.167  0.00  0.00    +0.040 C 
ATOM     13  C   LIG    1        8.454  -8.218  14.368  0.00  0.00    -0.030 C 
ATOM     14  C   LIG    1        9.051  -7.167  14.843  0.00  0.00    -0.030 C 
ATOM     15  C   LIG    1        8.894  -5.768  14.283  0.00  0.00    +0.040 C 
ATOM     16  C   LIG    1        7.651  -5.758  13.431  0.00  0.00    +0.092 C 
ATOM     17  O   LIG    1        6.185  -7.211  10.628  0.00  0.00    -0.274 OA
ATOM     18  C   LIG    1        7.431  -4.614  12.487  0.00  0.00    +0.230 C 
ATOM     19  O   LIG    1        7.744  -3.455  12.661  0.00  0.00    -0.274 OA
ENDBRANCH   6   9
ENDBRANCH   1   3
BRANCH   1  20
ATOM     20  O   LIG    1        3.787  -2.554   6.351  0.00  0.00    -0.453 OA
BRANCH  20  21
ATOM     21  C   LIG    1        3.196  -1.692   5.377  0.00  0.00    +0.311 C 
BRANCH  21  22
ATOM     22  C   LIG    1        2.572  -2.520   4.284  0.00  0.00    +0.200 C 
ATOM     23  O   LIG    1        2.627  -3.731   4.334  0.00  0.00    -0.288 OA
BRANCH  22  27
ATOM     24  C   LIG    1        0.625  -0.617   1.040  0.00  0.00    +0.150 A 
ATOM     25  C   LIG    1        1.202   0.145   2.050  0.00  0.00    +0.048 A 
ATOM     26  C   LIG    1        1.830  -0.465   3.098  0.00  0.00    +0.015 A 
ATOM     27  C   LIG    1        1.896  -1.862   3.158  0.00  0.00    +0.023 A 
ATOM     28  C   LIG    1        1.315  -2.630   2.141  0.00  0.00    +0.047 A 
ATOM     29  C   LIG    1        0.679  -2.006   1.092  0.00  0.00    +0.164 A 
BRANCH  24  31
ATOM     30  C   LIG    1       -0.017   1.425   0.010  0.00  0.00    +0.277 C 
ATOM     31  O   LIG    1        0.002  -0.004   0.002  0.00  0.00    -0.493 OA
ENDBRANCH  24  31
BRANCH  29  32
ATOM     32  N   LIG    1        0.058  -2.812   0.018  0.00  0.00    +0.010 N 
ATOM     33  O   LIG    1        0.105  -4.020   0.064  0.00  0.00    -0.130 OA
BRANCH  32  34
ATOM     34  O   LIG    1       -0.497  -2.264  -0.906  0.00  0.00    -0.396 OA
ATOM     35  H   LIG    1       -0.533  -1.328  -0.942  0.00  0.00    +0.329 HD
ENDBRANCH  32  34
ENDBRANCH  29  32
ENDBRANCH  22  27
ENDBRANCH  21  22
ENDBRANCH  20  21
ENDBRANCH   1  20
TORSDOF 9
