REMARK  Name = ZINC00004689
REMARK                            x       y       z     vdW  Elec       q    Type
REMARK                         _______ _______ _______ _____ _____    ______ ____
ROOT
ATOM      1  C   LIG    1       -1.114   1.197  -0.151  0.00  0.00    -0.002 A 
ATOM      2  C   LIG    1       -0.046   0.309   0.013  0.00  0.00    +0.011 A 
ATOM      3  C   LIG    1        1.248   0.776  -0.032  0.00  0.00    +0.025 A 
ATOM      4  C   LIG    1        1.495   2.130  -0.235  0.00  0.00    +0.048 A 
ATOM      5  C   LIG    1        0.434   3.018  -0.393  0.00  0.00    +0.025 A 
ATOM      6  C   LIG    1       -0.863   2.558  -0.349  0.00  0.00    +0.011 A 
ENDROOT
BRANCH   1  15
ATOM      7  C   LIG    1       -2.818   1.803  -2.307  0.00  0.00    +0.014 C 
ATOM      8  C   LIG    1       -3.522   1.279  -1.053  0.00  0.00    +0.046 C 
ATOM      9  C   LIG    1       -4.529   0.197  -1.450  0.00  0.00    +0.107 C 
ATOM     10  C   LIG    1       -4.985  -0.533  -0.211  0.00  0.00    +0.233 C 
ATOM     11  N   LIG    1       -4.114  -0.748   0.793  0.00  0.00    -0.207 N 
ATOM     12  H   LIG    1       -4.387  -1.270   1.564  0.00  0.00    +0.177 HD
ATOM     13  N   LIG    1       -2.818  -0.229   0.731  0.00  0.00    -0.184 NA
ATOM     14  O   LIG    1       -6.130  -0.923  -0.119  0.00  0.00    -0.274 OA
ATOM     15  C   LIG    1       -2.501   0.700  -0.110  0.00  0.00    +0.070 C 
ENDBRANCH   1  15
BRANCH   4  16
ATOM     16  N   LIG    1        2.806   2.599  -0.281  0.00  0.00    -0.236 N 
ATOM     17  H   LIG    1        3.546   1.981  -0.170  0.00  0.00    +0.174 HD
BRANCH  16  18
ATOM     18  N   LIG    1        3.036   3.854  -0.469  0.00  0.00    -0.160 NA
ATOM     19  C   LIG    1        4.275   4.297  -0.512  0.00  0.00    +0.234 C 
BRANCH  19  20
ATOM     20  C   LIG    1        4.530   5.690  -0.722  0.00  0.00    +0.132 C 
ATOM     21  N   LIG    1        4.733   6.796  -0.888  0.00  0.00    -0.188 NA
ENDBRANCH  19  20
BRANCH  19  22
ATOM     22  C   LIG    1        5.367   3.385  -0.349  0.00  0.00    +0.132 C 
ATOM     23  N   LIG    1        6.233   2.662  -0.220  0.00  0.00    -0.188 NA
ENDBRANCH  19  22
ENDBRANCH  16  18
ENDBRANCH   4  16
TORSDOF 5
