REMARK  Name = ZINC28964600
REMARK                            x       y       z     vdW  Elec       q    Type
REMARK                         _______ _______ _______ _____ _____    ______ ____
ROOT
ATOM      1  N   LIG    1        1.155  -0.493  -2.122  0.00  0.00    -0.292 N 
ATOM      2  H   LIG    1        0.299  -0.017  -2.623  0.00  0.00    +0.151 HD
ATOM      3  C   LIG    1        2.032  -1.225  -2.836  0.00  0.00    +0.304 C 
ATOM      4  N   LIG    1        1.862  -1.373  -4.165  0.00  0.00    -0.269 N 
ATOM      5  H   LIG    1        0.968  -0.959  -4.655  0.00  0.00    +0.156 HD
ATOM      6  O   LIG    1        2.977  -1.752  -2.282  0.00  0.00    -0.252 OA
ENDROOT
BRANCH   4   7
ATOM      7  C   LIG    1        2.821  -2.053  -4.920  0.00  0.00    +0.045 A 
ATOM      8  C   LIG    1        3.500  -3.126  -4.378  0.00  0.00    +0.024 A 
ATOM      9  C   LIG    1        4.454  -3.805  -5.124  0.00  0.00    +0.004 A 
ATOM     10  C   LIG    1        4.739  -3.421  -6.415  0.00  0.00    +0.028 A 
ATOM     11  C   LIG    1        4.069  -2.342  -6.986  0.00  0.00    +0.068 A 
ATOM     12  N   LIG    1        4.126  -1.733  -8.213  0.00  0.00    -0.277 N 
ATOM     13  H   LIG    1        4.821  -2.105  -8.980  0.00  0.00    +0.189 HD
ATOM     14  N   LIG    1        3.205  -0.679  -8.219  0.00  0.00    -0.181 NA
ATOM     15  C   LIG    1        2.598  -0.618  -7.069  0.00  0.00    +0.144 A 
ATOM     16  C   LIG    1        3.096  -1.651  -6.239  0.00  0.00    +0.041 A 
ENDBRANCH   4   7
BRANCH   1  24
ATOM     17  C   LIG    1        3.361   3.308   0.251  0.00  0.00    -0.042 A 
ATOM     18  C   LIG    1        4.155   2.250  -0.151  0.00  0.00    +0.004 A 
ATOM     19  C   LIG    1        3.578   1.037  -0.469  0.00  0.00    +0.006 A 
ATOM     20  C   LIG    1        2.204   0.876  -0.388  0.00  0.00    -0.024 A 
ATOM     21  C   LIG    1        1.410   1.933   0.013  0.00  0.00    -0.042 A 
ATOM     22  C   LIG    1       -0.043   1.508   0.021  0.00  0.00    +0.037 C 
ATOM     23  C   LIG    1       -0.012  -0.035   0.005  0.00  0.00    +0.032 C 
ATOM     24  C   LIG    1        1.339  -0.332  -0.677  0.00  0.00    +0.105 C 
ATOM     25  C   LIG    1        1.991   3.149   0.333  0.00  0.00    +0.008 A 
BRANCH  17  27
ATOM     26  C   LIG    1        5.506   4.540   0.425  0.00  0.00    +0.015 C 
ATOM     27  C   LIG    1        3.989   4.633   0.599  0.00  0.00    -0.013 C 
ATOM     28  C   LIG    1        3.663   4.987   2.051  0.00  0.00    +0.015 C 
ATOM     29  C   LIG    1        3.435   5.718  -0.327  0.00  0.00    +0.015 C 
ENDBRANCH  17  27
ENDBRANCH   1  24
TORSDOF 3
