REMARK  Name = ZINC16051895
REMARK                            x       y       z     vdW  Elec       q    Type
REMARK                         _______ _______ _______ _____ _____    ______ ____
ROOT
ATOM      1  C   LIG    1        3.857  -0.509   0.001  0.00  0.00    +0.192 C 
ENDROOT
BRANCH   1   5
ATOM      2  C   LIG    1        0.011   1.307   0.400  0.00  0.00    +0.000 A 
ATOM      3  C   LIG    1        1.138   2.097   0.275  0.00  0.00    +0.000 A 
ATOM      4  C   LIG    1        2.383   1.509   0.146  0.00  0.00    +0.006 A 
ATOM      5  C   LIG    1        2.500   0.132   0.142  0.00  0.00    -0.020 A 
ATOM      6  C   LIG    1        1.373  -0.658   0.268  0.00  0.00    +0.006 A 
ATOM      7  C   LIG    1        0.128  -0.070   0.396  0.00  0.00    +0.000 A 
ENDBRANCH   1   5
BRANCH   1   8
ATOM      8  C   LIG    1        4.354  -0.936   1.357  0.00  0.00    +0.240 C 
ATOM      9  N   LIG    1        4.527  -0.021   2.331  0.00  0.00    -0.284 N 
ATOM     10  H   LIG    1        4.261   0.900   2.184  0.00  0.00    +0.155 HD
ATOM     11  O   LIG    1        4.600  -2.104   1.572  0.00  0.00    -0.273 OA
BRANCH   9  12
ATOM     12  C   LIG    1        5.087  -0.399   3.552  0.00  0.00    +0.036 A 
ATOM     13  C   LIG    1        6.075  -1.381   3.612  0.00  0.00    +0.043 A 
ATOM     14  C   LIG    1        6.604  -1.725   4.839  0.00  0.00    +0.112 A 
ATOM     15  N   LIG    1        6.186  -1.138   5.945  0.00  0.00    -0.263 NA
ATOM     16  C   LIG    1        5.254  -0.204   5.929  0.00  0.00    +0.112 A 
ATOM     17  C   LIG    1        4.679   0.201   4.742  0.00  0.00    +0.043 A 
ENDBRANCH   9  12
ENDBRANCH   1   8
BRANCH   1  18
ATOM     18  N   LIG    1        3.755  -1.679  -0.874  0.00  0.00    -0.174 NA
ATOM     19  H   LIG    1        3.492  -2.538  -0.506  0.00  0.00    +0.149 HD
BRANCH  18  20
ATOM     20  S   LIG    1        4.089  -1.538  -2.490  0.00  0.00    +0.061 S 
ATOM     21  O   LIG    1        3.899  -2.826  -3.058  0.00  0.00    -0.153 OA
ATOM     22  O   LIG    1        5.320  -0.835  -2.589  0.00  0.00    -0.153 OA
BRANCH  20  23
ATOM     23  C   LIG    1        2.855  -0.492  -3.187  0.00  0.00    +0.133 A 
ATOM     24  C   LIG    1        3.197   0.722  -3.678  0.00  0.00    +0.031 A 
ATOM     25  C   LIG    1        2.246   1.576  -4.238  0.00  0.00    +0.004 A 
ATOM     26  C   LIG    1        0.940   1.228  -4.314  0.00  0.00    +0.031 A 
ATOM     27  C   LIG    1        0.508  -0.033  -3.820  0.00  0.00    +0.102 A 
ATOM     28  N   LIG    1       -0.724  -0.542  -3.810  0.00  0.00    -0.191 NA
ATOM     29  S   LIG    1       -0.587  -1.998  -3.140  0.00  0.00    +0.117 S 
ATOM     30  N   LIG    1        0.986  -2.081  -2.814  0.00  0.00    -0.189 NA
ATOM     31  C   LIG    1        1.503  -0.928  -3.239  0.00  0.00    +0.126 A 
ENDBRANCH  20  23
ENDBRANCH  18  20
ENDBRANCH   1  18
TORSDOF 6
