REMARK  Name = ZINC26500782
REMARK                            x       y       z     vdW  Elec       q    Type
REMARK                         _______ _______ _______ _____ _____    ______ ____
ROOT
ATOM      1  C   LIG    1       -0.529   1.855   1.294  0.00  0.00    +0.088 C 
ATOM      2  C   LIG    1        0.755   1.114   0.914  0.00  0.00    -0.067 C 
ATOM      3  N   LIG    1        1.117   1.438  -0.471  0.00  0.00    +0.380 N 
ATOM      4  H   LIG    1        2.056   0.930  -0.733  0.00  0.00    -0.086 HD
ATOM      5  H   LIG    1        1.248   2.525  -0.572  0.00  0.00    -0.086 HD
ATOM      6  C   LIG    1        0.072   1.004  -1.408  0.00  0.00    -0.082 C 
ATOM      7  C   LIG    1       -1.232   1.741  -1.097  0.00  0.00    -0.010 C 
ATOM      8  C   LIG    1       -1.654   1.438   0.343  0.00  0.00    +0.029 C 
ENDROOT
BRANCH   8   9
ATOM      9  C   LIG    1       -2.907   2.207   0.673  0.00  0.00    -0.044 A 
ATOM     10  C   LIG    1       -3.692   1.823   1.744  0.00  0.00    +0.004 A 
ATOM     11  C   LIG    1       -4.838   2.531   2.050  0.00  0.00    +0.000 A 
ATOM     12  C   LIG    1       -5.205   3.619   1.280  0.00  0.00    +0.000 A 
ATOM     13  C   LIG    1       -4.423   4.000   0.206  0.00  0.00    +0.000 A 
ATOM     14  C   LIG    1       -3.273   3.295  -0.097  0.00  0.00    +0.004 A 
ENDBRANCH   8   9
BRANCH   1  15
ATOM     15  C   LIG    1       -0.304   3.341   1.186  0.00  0.00    +0.309 C 
ATOM     16  O   LIG    1        0.126   3.813   0.160  0.00  0.00    -0.251 OA
BRANCH  15  17
ATOM     17  O   LIG    1       -0.580   4.140   2.228  0.00  0.00    -0.465 OA
BRANCH  17  19
ATOM     18  C   LIG    1       -0.709   6.304   3.337  0.00  0.00    +0.048 C 
ATOM     19  C   LIG    1       -0.338   5.561   2.053  0.00  0.00    +0.229 C 
ENDBRANCH  17  19
ENDBRANCH  15  17
ENDBRANCH   1  15
TORSDOF 4
