REMARK  Name = ZINC15659379
REMARK                            x       y       z     vdW  Elec       q    Type
REMARK                         _______ _______ _______ _____ _____    ______ ____
ROOT
ATOM      1  N   LIG    1       -1.882   1.947  -0.425  0.00  0.00    -0.216 N 
ATOM      2  C   LIG    1       -1.171   2.823   0.315  0.00  0.00    +0.262 C 
ATOM      3  C   LIG    1        0.295   2.682   0.342  0.00  0.00    +0.098 C 
ATOM      4  C   LIG    1        0.879   1.584  -0.449  0.00  0.00    +0.216 C 
ATOM      5  N   LIG    1        0.043   0.783  -1.142  0.00  0.00    -0.157 NA
ATOM      6  C   LIG    1        1.093   3.547   1.081  0.00  0.00    +0.043 C 
ATOM      7  O   LIG    1       -1.725   3.705   0.943  0.00  0.00    -0.269 OA
ATOM      8  C   LIG    1       -1.283   0.973  -1.125  0.00  0.00    +0.171 C 
ATOM      9  S   LIG    1       -2.266  -0.088  -2.041  0.00  0.00    -0.016 S 
ENDROOT
BRANCH   1  12
ATOM     10  C   LIG    1       -5.442   1.367   0.299  0.00  0.00    +0.003 A 
ATOM     11  C   LIG    1       -4.066   1.253   0.342  0.00  0.00    +0.024 A 
ATOM     12  C   LIG    1       -3.277   2.061  -0.466  0.00  0.00    +0.045 A 
ATOM     13  C   LIG    1       -3.875   2.987  -1.312  0.00  0.00    +0.044 A 
ATOM     14  C   LIG    1       -5.252   3.093  -1.354  0.00  0.00    +0.043 A 
ATOM     15 CL   LIG    1       -6.000   4.245  -2.416  0.00  0.00    -0.083 Cl
ATOM     16  C   LIG    1       -6.035   2.286  -0.547  0.00  0.00    +0.020 A 
ENDBRANCH   1  12
BRANCH   6  17
ATOM     17  C   LIG    1        0.694   4.880   1.274  0.00  0.00    +0.040 A 
ATOM     18  C   LIG    1        1.300   5.809   2.111  0.00  0.00    +0.027 A 
ATOM     19  C   LIG    1        0.579   6.996   1.990  0.00  0.00    +0.019 A 
ATOM     20  C   LIG    1       -0.435   6.782   1.111  0.00  0.00    +0.083 A 
ATOM     21  N   LIG    1       -0.378   5.508   0.672  0.00  0.00    -0.361 N 
ATOM     22  H   LIG    1       -1.012   4.955  -0.037  0.00  0.00    +0.165 HD
ENDBRANCH   6  17
BRANCH   4  23
ATOM     23  O   LIG    1        2.082   1.404  -0.475  0.00  0.00    -0.494 OA
ATOM     24  H   LIG    1        2.651   1.968   0.011  0.00  0.00    +0.294 HD
ENDBRANCH   4  23
TORSDOF 3
