REMARK  Name = ZINC18096411
REMARK                            x       y       z     vdW  Elec       q    Type
REMARK                         _______ _______ _______ _____ _____    ______ ____
ROOT
ATOM      1  C   LIG    1       -2.058  -0.621  -1.174  0.00  0.00    +0.439 C 
ATOM      2  N   LIG    1       -1.748  -0.231  -2.411  0.00  0.00    +0.014 NA
ENDROOT
BRANCH   1   3
ATOM      3  N   LIG    1       -3.243  -1.176  -0.928  0.00  0.00    -0.069 NA
ATOM      4  C   LIG    1       -3.529  -2.394  -1.414  0.00  0.00    +0.145 A 
ATOM      5  C   LIG    1       -2.542  -3.152  -2.087  0.00  0.00    +0.063 A 
ATOM      6  C   LIG    1       -2.861  -4.376  -2.566  0.00  0.00    +0.086 A 
ATOM      7  N   LIG    1       -4.110  -4.877  -2.405  0.00  0.00    -0.367 N 
ATOM      8  H   LIG    1       -4.317  -5.757  -2.757  0.00  0.00    +0.165 HD
ATOM      9  C   LIG    1       -5.078  -4.176  -1.765  0.00  0.00    +0.086 A 
ATOM     10  C   LIG    1       -4.820  -2.949  -1.259  0.00  0.00    +0.063 A 
ENDBRANCH   1   3
BRANCH   1  11
ATOM     11  N   LIG    1       -1.151  -0.451  -0.152  0.00  0.00    -0.269 N 
ATOM     12  H   LIG    1       -1.376  -0.735   0.748  0.00  0.00    +0.258 HD
BRANCH  11  14
ATOM     13  C   LIG    1        0.025   1.682  -0.367  0.00  0.00    +0.048 C 
ATOM     14  C   LIG    1        0.153   0.159  -0.423  0.00  0.00    +0.147 C 
BRANCH  14  15
ATOM     15  C   LIG    1        1.162  -0.308   0.628  0.00  0.00    -0.005 C 
ATOM     16  C   LIG    1        2.524   0.329   0.345  0.00  0.00    +0.014 C 
ATOM     17  C   LIG    1        1.290  -1.831   0.572  0.00  0.00    +0.014 C 
ATOM     18  C   LIG    1        0.682   0.113   2.018  0.00  0.00    +0.014 C 
ENDBRANCH  14  15
ENDBRANCH  11  14
ENDBRANCH   1  11
BRANCH   2  19
ATOM     19  C   LIG    1       -2.628  -0.428  -3.423  0.00  0.00    +0.296 C 
ATOM     20  N   LIG    1       -3.365  -0.592  -4.272  0.00  0.00    -0.151 NA
ENDBRANCH   2  19
TORSDOF 5
