REMARK  Name = ZINC22445353
REMARK                            x       y       z     vdW  Elec       q    Type
REMARK                         _______ _______ _______ _____ _____    ______ ____
ROOT
ATOM      1  N   LIG    1       -0.018   1.465   0.010  0.00  0.00    -0.296 NA
ATOM      2  C   LIG    1       -0.799   1.987  -1.120  0.00  0.00    +0.100 C 
ATOM      3  C   LIG    1       -0.862   3.514  -1.031  0.00  0.00    +0.100 C 
ATOM      4  N   LIG    1        0.503   4.059  -1.041  0.00  0.00    -0.293 NA
ATOM      5  C   LIG    1        1.284   3.537   0.089  0.00  0.00    +0.100 C 
ATOM      6  C   LIG    1        1.347   2.010   0.000  0.00  0.00    +0.100 C 
ENDROOT
BRANCH   1   7
ATOM      7  C   LIG    1        0.002  -0.004   0.002  0.00  0.00    +0.119 C 
BRANCH   7  11
ATOM      8  C   LIG    1       -3.941  -1.488   0.732  0.00  0.00    -0.018 A 
ATOM      9  C   LIG    1       -3.517  -1.241  -0.573  0.00  0.00    +0.009 A 
ATOM     10  C   LIG    1       -2.243  -0.762  -0.802  0.00  0.00    +0.005 A 
ATOM     11  C   LIG    1       -1.388  -0.527   0.259  0.00  0.00    -0.033 A 
ATOM     12  C   LIG    1       -1.802  -0.775   1.556  0.00  0.00    +0.005 A 
ATOM     13  C   LIG    1       -3.075  -1.249   1.797  0.00  0.00    +0.009 A 
BRANCH   8  17
ATOM     14  C   LIG    1       -7.862  -2.964   1.457  0.00  0.00    +0.000 A 
ATOM     15  C   LIG    1       -7.007  -2.729   2.519  0.00  0.00    +0.001 A 
ATOM     16  C   LIG    1       -5.733  -2.250   2.289  0.00  0.00    +0.008 A 
ATOM     17  C   LIG    1       -5.309  -2.003   0.985  0.00  0.00    -0.018 A 
ATOM     18  C   LIG    1       -6.176  -2.237  -0.080  0.00  0.00    +0.008 A 
ATOM     19  C   LIG    1       -7.446  -2.721   0.161  0.00  0.00    +0.001 A 
ENDBRANCH   8  17
ENDBRANCH   7  11
ENDBRANCH   1   7
BRANCH   4  20
ATOM     20  C   LIG    1        0.483   5.528  -1.033  0.00  0.00    +0.162 C 
BRANCH  20  21
ATOM     21  C   LIG    1       -0.517   6.022  -2.046  0.00  0.00    +0.166 A 
ATOM     22  N   LIG    1       -0.120   6.254  -3.280  0.00  0.00    -0.222 NA
ATOM     23  C   LIG    1       -1.008   6.684  -4.170  0.00  0.00    +0.151 A 
ATOM     24  C   LIG    1       -0.666   6.964  -5.565  0.00  0.00    +0.149 A 
ATOM     25  N   LIG    1       -1.636   7.394  -6.360  0.00  0.00    -0.198 NA
ATOM     26  C   LIG    1       -2.874   7.567  -5.908  0.00  0.00    +0.216 A 
ATOM     27  N   LIG    1       -3.235   7.330  -4.662  0.00  0.00    -0.191 NA
ATOM     28  C   LIG    1       -2.350   6.892  -3.760  0.00  0.00    +0.207 A 
ATOM     29  N   LIG    1       -2.677   6.640  -2.490  0.00  0.00    -0.126 NA
ATOM     30  N   LIG    1       -1.773   6.219  -1.672  0.00  0.00    -0.131 NA
BRANCH  24  31
ATOM     31  N   LIG    1        0.617   6.786  -6.035  0.00  0.00    -0.341 N 
ATOM     32  H   LIG    1        1.406   6.428  -5.358  0.00  0.00    +0.144 HD
ATOM     33  H   LIG    1        0.851   7.002  -7.088  0.00  0.00    +0.144 HD
ENDBRANCH  24  31
BRANCH  26  34
ATOM     34  N   LIG    1       -3.836   8.019  -6.791  0.00  0.00    -0.327 N 
ATOM     35  H   LIG    1       -3.567   8.226  -7.838  0.00  0.00    +0.145 HD
ATOM     36  H   LIG    1       -4.870   8.171  -6.449  0.00  0.00    +0.145 HD
ENDBRANCH  26  34
ENDBRANCH  20  21
ENDBRANCH   4  20
TORSDOF 7
