REMARK  Name = ZINC14855753
REMARK                            x       y       z     vdW  Elec       q    Type
REMARK                         _______ _______ _______ _____ _____    ______ ____
ROOT
ATOM      1  C   LIG    1       -0.017   1.387   0.010  0.00  0.00    +0.046 A 
ATOM      2  C   LIG    1        1.163   2.096   0.002  0.00  0.00    +0.014 A 
ATOM      3  C   LIG    1        2.381   1.417  -0.013  0.00  0.00    +0.008 A 
ATOM      4  C   LIG    1        2.404   0.012  -0.021  0.00  0.00    +0.051 A 
ATOM      5  N   LIG    1        3.724  -0.402  -0.036  0.00  0.00    -0.352 N 
ATOM      6  C   LIG    1        4.569   0.692  -0.038  0.00  0.00    +0.073 A 
ATOM      7  C   LIG    1        5.965   0.789  -0.051  0.00  0.00    +0.073 A 
ATOM      8  N   LIG    1        6.954  -0.177  -0.065  0.00  0.00    -0.352 N 
ATOM      9  C   LIG    1        8.203   0.415  -0.074  0.00  0.00    +0.051 A 
ATOM     10  C   LIG    1        8.032   1.809  -0.065  0.00  0.00    +0.008 A 
ATOM     11  C   LIG    1        9.143   2.651  -0.071  0.00  0.00    +0.014 A 
ATOM     12  C   LIG    1       10.410   2.112  -0.085  0.00  0.00    +0.046 A 
ATOM     13  C   LIG    1       10.584   0.732  -0.094  0.00  0.00    +0.119 A 
ATOM     14  C   LIG    1        9.488  -0.114  -0.089  0.00  0.00    +0.071 A 
ATOM     15  H   LIG    1        6.794  -1.134  -0.069  0.00  0.00    +0.166 HD
ATOM     16  C   LIG    1        6.580   2.052  -0.050  0.00  0.00    +0.022 A 
ATOM     17  C   LIG    1        5.801   3.216  -0.036  0.00  0.00    +0.062 A 
ATOM     18  C   LIG    1        6.106   4.657  -0.030  0.00  0.00    +0.260 A 
ATOM     19  N   LIG    1        4.948   5.340  -0.015  0.00  0.00    -0.289 N 
ATOM     20  H   LIG    1        4.881   6.308  -0.009  0.00  0.00    +0.172 HD
ATOM     21  C   LIG    1        3.895   4.503  -0.009  0.00  0.00    +0.260 A 
ATOM     22  O   LIG    1        2.726   4.834   0.004  0.00  0.00    -0.267 OA
ATOM     23  O   LIG    1        7.218   5.146  -0.038  0.00  0.00    -0.267 OA
ATOM     24  C   LIG    1        4.396   3.118  -0.022  0.00  0.00    +0.062 A 
ATOM     25  H   LIG    1        4.014  -1.327  -0.043  0.00  0.00    +0.166 HD
ATOM     26  C   LIG    1        1.204  -0.690  -0.013  0.00  0.00    +0.071 A 
ATOM     27  C   LIG    1        3.785   1.858  -0.024  0.00  0.00    +0.022 A 
ATOM     28  C   LIG    1        0.002  -0.004   0.002  0.00  0.00    +0.119 A 
ENDROOT
BRANCH  13  29
ATOM     29  O   LIG    1       11.838   0.210  -0.108  0.00  0.00    -0.507 OA
ATOM     30  H   LIG    1       12.194   0.063  -0.996  0.00  0.00    +0.292 HD
ENDBRANCH  13  29
BRANCH  28  31
ATOM     31  O   LIG    1       -1.168  -0.695   0.010  0.00  0.00    -0.507 OA
ATOM     32  H   LIG    1       -1.516  -0.890  -0.871  0.00  0.00    +0.292 HD
ENDBRANCH  28  31
TORSDOF 2
