REMARK  Name = ZINC18118599
REMARK                            x       y       z     vdW  Elec       q    Type
REMARK                         _______ _______ _______ _____ _____    ______ ____
ROOT
ATOM      1  C   LIG    1       -0.298   1.228  -0.004  0.00  0.00    +0.001 A 
ATOM      2  C   LIG    1        0.809   2.027  -0.230  0.00  0.00    +0.001 A 
ATOM      3  C   LIG    1        2.065   1.466  -0.375  0.00  0.00    +0.012 A 
ATOM      4  C   LIG    1        2.221   0.083  -0.292  0.00  0.00    +0.030 A 
ATOM      5  C   LIG    1        1.093  -0.728  -0.051  0.00  0.00    +0.034 A 
ATOM      6  C   LIG    1        1.257  -2.196   0.066  0.00  0.00    +0.209 C 
ATOM      7  C   LIG    1        2.583  -2.761  -0.334  0.00  0.00    +0.108 C 
ATOM      8  C   LIG    1        3.801  -1.931   0.032  0.00  0.00    +0.203 C 
ATOM      9 CL   LIG    1        4.024  -1.925   1.821  0.00  0.00    -0.106 Cl
ATOM     10  N   LIG    1        2.686  -3.888  -0.952  0.00  0.00    -0.282 NA
ATOM     11  O   LIG    1        0.357  -2.907   0.466  0.00  0.00    -0.285 OA
ATOM     12  C   LIG    1        3.555  -0.521  -0.460  0.00  0.00    +0.187 C 
ATOM     13  O   LIG    1        4.448   0.106  -0.987  0.00  0.00    -0.290 OA
ATOM     14  C   LIG    1       -0.164  -0.146   0.086  0.00  0.00    +0.012 A 
ENDROOT
BRANCH  10  15
ATOM     15  C   LIG    1        1.482  -4.584  -1.412  0.00  0.00    +0.146 C 
BRANCH  15  16
ATOM     16  C   LIG    1        1.328  -5.899  -0.646  0.00  0.00    +0.058 C 
BRANCH  16  17
ATOM     17  C   LIG    1        0.089  -6.615  -1.119  0.00  0.00    -0.045 A 
ATOM     18  C   LIG    1       -1.125  -6.376  -0.503  0.00  0.00    +0.006 A 
ATOM     19  C   LIG    1       -2.262  -7.031  -0.937  0.00  0.00    +0.038 A 
ATOM     20  C   LIG    1       -2.184  -7.928  -1.989  0.00  0.00    +0.123 A 
ATOM     21  F   LIG    1       -3.295  -8.569  -2.413  0.00  0.00    -0.205 F 
ATOM     22  C   LIG    1       -0.968  -8.166  -2.606  0.00  0.00    +0.038 A 
ATOM     23  C   LIG    1        0.167  -7.506  -2.174  0.00  0.00    +0.006 A 
ENDBRANCH  16  17
ENDBRANCH  15  16
ENDBRANCH  10  15
TORSDOF 3
