REMARK  Name = ZINC13803780
REMARK                            x       y       z     vdW  Elec       q    Type
REMARK                         _______ _______ _______ _____ _____    ______ ____
ROOT
ATOM      1  C   LIG    1        0.029  -2.817  -2.477  0.00  0.00    +0.171 C 
ATOM      2  O   LIG    1        0.015  -2.210  -3.526  0.00  0.00    -0.292 OA
ENDROOT
BRANCH   1   6
ATOM      3  C   LIG    1       -0.018   1.503   0.010  0.00  0.00    +0.045 C 
ATOM      4  C   LIG    1        0.002  -0.004   0.002  0.00  0.00    -0.031 A 
ATOM      5  C   LIG    1        0.006  -0.685  -1.196  0.00  0.00    +0.016 A 
ATOM      6  C   LIG    1        0.025  -2.084  -1.202  0.00  0.00    +0.018 A 
ATOM      7  C   LIG    1        0.041  -2.781   0.011  0.00  0.00    +0.013 A 
ATOM      8  C   LIG    1        0.037  -2.087   1.201  0.00  0.00    +0.021 A 
ATOM      9  C   LIG    1        0.023  -0.702   1.199  0.00  0.00    +0.044 A 
ATOM     10 CL   LIG    1        0.025   0.165   2.703  0.00  0.00    -0.083 Cl
ENDBRANCH   1   6
BRANCH   1  11
ATOM     11  C   LIG    1        0.050  -4.324  -2.479  0.00  0.00    +0.166 C 
BRANCH  11  12
ATOM     12  C   LIG    1        0.049  -4.825  -3.900  0.00  0.00    +0.246 C 
ATOM     13  O   LIG    1        0.034  -4.039  -4.817  0.00  0.00    -0.285 OA
BRANCH  12  14
ATOM     14  C   LIG    1        0.068  -6.293  -4.175  0.00  0.00    +0.373 C 
ATOM     15  O   LIG    1        0.068  -6.698  -5.326  0.00  0.00    -0.242 OA
BRANCH  14  16
ATOM     16  O   LIG    1        0.084  -7.087  -3.249  0.00  0.00    -0.475 OA
ATOM     17  H   LIG    1        0.084  -6.776  -2.365  0.00  0.00    +0.295 HD
ENDBRANCH  14  16
ENDBRANCH  12  14
ENDBRANCH  11  12
ENDBRANCH   1  11
TORSDOF 5
