REMARK  Name = ZINC19717389
REMARK                            x       y       z     vdW  Elec       q    Type
REMARK                         _______ _______ _______ _____ _____    ______ ____
ROOT
ATOM      1  S   LIG    1        2.511   1.136  -4.438  0.00  0.00    +0.061 S 
ATOM      2  O   LIG    1        1.772   2.337  -4.263  0.00  0.00    -0.153 OA
ATOM      3  O   LIG    1        2.590   0.465  -5.688  0.00  0.00    -0.153 OA
ENDROOT
BRANCH   1   6
ATOM      4  C   LIG    1        0.707  -0.490  -1.238  0.00  0.00    +0.001 A 
ATOM      5  C   LIG    1        1.217   0.419  -2.145  0.00  0.00    +0.036 A 
ATOM      6  C   LIG    1        1.863  -0.026  -3.283  0.00  0.00    +0.106 A 
ATOM      7  C   LIG    1        2.003  -1.382  -3.516  0.00  0.00    +0.032 A 
ATOM      8  C   LIG    1        1.496  -2.295  -2.612  0.00  0.00    +0.048 A 
ATOM      9  C   LIG    1        0.851  -1.851  -1.467  0.00  0.00    +0.124 A 
BRANCH   4  11
ATOM     10  C   LIG    1       -0.019   1.526   0.010  0.00  0.00    +0.015 C 
ATOM     11  C   LIG    1        0.002  -0.004   0.002  0.00  0.00    -0.009 C 
ATOM     12  C   LIG    1       -1.433  -0.534   0.013  0.00  0.00    +0.015 C 
ATOM     13  C   LIG    1        0.742  -0.511   1.242  0.00  0.00    +0.015 C 
ENDBRANCH   4  11
BRANCH   9  14
ATOM     14  O   LIG    1        0.356  -2.747  -0.573  0.00  0.00    -0.495 OA
ATOM     15  C   LIG    1        0.540  -4.132  -0.874  0.00  0.00    +0.277 C 
ENDBRANCH   9  14
ENDBRANCH   1   6
BRANCH   1  16
ATOM     16  N   LIG    1        4.067   1.467  -3.980  0.00  0.00    -0.176 NA
ATOM     17  C   LIG    1        4.356   2.563  -3.044  0.00  0.00    +0.109 C 
ATOM     18  C   LIG    1        5.400   3.488  -3.676  0.00  0.00    +0.017 C 
ATOM     19  C   LIG    1        6.627   2.667  -4.079  0.00  0.00    +0.008 C 
ATOM     20  C   LIG    1        6.222   1.617  -5.115  0.00  0.00    +0.025 C 
ATOM     21  C   LIG    1        5.186   0.666  -4.496  0.00  0.00    +0.114 C 
BRANCH  20  22
ATOM     22  C   LIG    1        7.455   0.818  -5.542  0.00  0.00    +0.127 C 
BRANCH  22  23
ATOM     23  N   LIG    1        8.395   1.703  -6.234  0.00  0.00    -0.338 N 
ATOM     24  C   LIG    1        8.427   1.963  -7.578  0.00  0.00    +0.104 A 
ATOM     25  C   LIG    1        9.441   2.825  -7.784  0.00  0.00    +0.101 A 
ATOM     26  N   LIG    1       10.012   3.085  -6.598  0.00  0.00    -0.352 N 
ATOM     27  H   LIG    1       10.768   3.676  -6.457  0.00  0.00    +0.166 HD
ATOM     28  C   LIG    1        9.388   2.421  -5.665  0.00  0.00    +0.173 A 
ENDBRANCH  22  23
ENDBRANCH  20  22
ENDBRANCH   1  16
TORSDOF 6
