REMARK  Name = ZINC43202870
REMARK                            x       y       z     vdW  Elec       q    Type
REMARK                         _______ _______ _______ _____ _____    ______ ____
ROOT
ATOM      1  S   LIG    1        2.678  -3.973  -1.771  0.00  0.00    +0.060 S 
ATOM      2  O   LIG    1        2.300  -4.539  -0.524  0.00  0.00    -0.153 OA
ATOM      3  O   LIG    1        3.953  -4.199  -2.355  0.00  0.00    -0.153 OA
ENDROOT
BRANCH   1   4
ATOM      4  C   LIG    1        1.482  -4.507  -2.950  0.00  0.00    +0.120 A 
ATOM      5  C   LIG    1        0.462  -5.355  -2.563  0.00  0.00    +0.045 A 
ATOM      6  C   LIG    1       -0.477  -5.775  -3.488  0.00  0.00    +0.020 A 
ATOM      7 BR   LIG    1       -1.873  -6.936  -2.959  0.00  0.00    -0.050 Br
ATOM      8  C   LIG    1       -0.395  -5.346  -4.800  0.00  0.00    +0.016 A 
ATOM      9  C   LIG    1        0.625  -4.497  -5.187  0.00  0.00    +0.018 A 
ATOM     10  C   LIG    1        1.561  -4.073  -4.261  0.00  0.00    +0.044 A 
ATOM     11 BR   LIG    1        2.953  -2.906  -4.788  0.00  0.00    -0.048 Br
ENDBRANCH   1   4
BRANCH   1  12
ATOM     12  N   LIG    1        2.513  -2.332  -1.616  0.00  0.00    -0.185 NA
ATOM     13  H   LIG    1        3.235  -1.744  -1.888  0.00  0.00    +0.148 HD
BRANCH  12  17
ATOM     14  C   LIG    1        0.147   1.803  -0.855  0.00  0.00    +0.029 C 
ATOM     15  C   LIG    1        0.097   0.286  -0.664  0.00  0.00    +0.082 C 
ATOM     16  C   LIG    1        0.934  -0.423  -1.758  0.00  0.00    +0.045 C 
ATOM     17  C   LIG    1        1.277  -1.769  -1.067  0.00  0.00    +0.096 C 
ATOM     18  C   LIG    1        1.466  -1.363   0.409  0.00  0.00    +0.137 C 
ATOM     19  N   LIG    1        0.739  -0.094   0.612  0.00  0.00    -0.265 N 
BRANCH  19  20
ATOM     20  C   LIG    1       -0.230  -0.217   1.656  0.00  0.00    +0.169 C 
ATOM     21  N   LIG    1       -0.999  -0.314   2.486  0.00  0.00    -0.174 NA
ENDBRANCH  19  20
ENDBRANCH  12  17
ENDBRANCH   1  12
TORSDOF 4
