REMARK  Name = ZINC35183161
REMARK                            x       y       z     vdW  Elec       q    Type
REMARK                         _______ _______ _______ _____ _____    ______ ____
ROOT
ATOM      1  C   LIG    1        0.631  -2.100   1.110  0.00  0.00    +0.169 C 
ATOM      2  C   LIG    1        1.778  -2.555   0.197  0.00  0.00    +0.067 C 
ATOM      3  C   LIG    1        2.039  -4.015   0.468  0.00  0.00    -0.015 A 
ATOM      4  C   LIG    1        2.780  -4.975  -0.319  0.00  0.00    +0.003 A 
ATOM      5  C   LIG    1        3.469  -4.881  -1.532  0.00  0.00    +0.010 A 
ATOM      6  C   LIG    1        4.072  -6.025  -1.994  0.00  0.00    +0.001 A 
ATOM      7  C   LIG    1        4.007  -7.223  -1.302  0.00  0.00    +0.002 A 
ATOM      8  C   LIG    1        3.332  -7.345  -0.100  0.00  0.00    +0.026 A 
ATOM      9  C   LIG    1        2.710  -6.200   0.395  0.00  0.00    +0.047 A 
ATOM     10  N   LIG    1        1.977  -5.973   1.524  0.00  0.00    -0.356 N 
ATOM     11  H   LIG    1        1.770  -6.639   2.199  0.00  0.00    +0.166 HD
ATOM     12  C   LIG    1        1.579  -4.664   1.562  0.00  0.00    +0.042 A 
ATOM     13  C   LIG    1        0.755  -3.990   2.633  0.00  0.00    +0.133 C 
ATOM     14  N   LIG    1        0.903  -2.533   2.488  0.00  0.00    -0.292 NA
ATOM     15  H   LIG    1        1.818  -2.231   2.788  0.00  0.00    +0.124 HD
ENDROOT
BRANCH  13  16
ATOM     16  C   LIG    1        1.242  -4.420   3.993  0.00  0.00    -0.006 A 
ATOM     17  C   LIG    1        2.192  -3.667   4.656  0.00  0.00    +0.008 A 
ATOM     18  C   LIG    1        2.640  -4.060   5.903  0.00  0.00    +0.020 A 
ATOM     19  C   LIG    1        2.137  -5.209   6.488  0.00  0.00    +0.042 A 
ATOM     20 CL   LIG    1        2.699  -5.703   8.054  0.00  0.00    -0.083 Cl
ATOM     21  C   LIG    1        1.186  -5.963   5.825  0.00  0.00    +0.040 A 
ATOM     22  C   LIG    1        0.734  -5.565   4.579  0.00  0.00    +0.047 A 
ATOM     23 CL   LIG    1       -0.464  -6.508   3.748  0.00  0.00    -0.083 Cl
ENDBRANCH  13  16
BRANCH   1  24
ATOM     24  C   LIG    1        0.521  -0.598   1.068  0.00  0.00    +0.324 C 
ATOM     25  O   LIG    1        0.995   0.068   1.957  0.00  0.00    -0.249 OA
BRANCH  24  27
ATOM     26  C   LIG    1       -0.172   1.427   0.066  0.00  0.00    +0.280 C 
ATOM     27  O   LIG    1       -0.104   0.000   0.042  0.00  0.00    -0.467 OA
ENDBRANCH  24  27
ENDBRANCH   1  24
TORSDOF 3
