REMARK  Name = ZINC43015507
REMARK                            x       y       z     vdW  Elec       q    Type
REMARK                         _______ _______ _______ _____ _____    ______ ____
ROOT
ATOM      1  C   LIG    1        3.945  -0.694   0.064  0.00  0.00    +0.001 A 
ATOM      2  C   LIG    1        3.918  -2.087   0.026  0.00  0.00    +0.022 A 
ATOM      3  C   LIG    1        5.135  -2.764   0.015  0.00  0.00    +0.027 A 
ATOM      4  C   LIG    1        5.518  -4.185  -0.022  0.00  0.00    +0.009 A 
ATOM      5  C   LIG    1        6.875  -4.219  -0.014  0.00  0.00    +0.093 A 
ATOM      6  N   LIG    1        7.367  -2.948   0.024  0.00  0.00    -0.345 N 
ATOM      7  H   LIG    1        8.310  -2.720   0.036  0.00  0.00    +0.167 HD
ATOM      8  C   LIG    1        6.338  -2.035   0.042  0.00  0.00    +0.139 A 
ATOM      9  N   LIG    1        6.310  -0.709   0.078  0.00  0.00    -0.237 NA
ATOM     10  C   LIG    1        5.179  -0.039   0.085  0.00  0.00    +0.121 A 
ENDROOT
BRANCH   1  14
ATOM     11  C   LIG    1        0.322   1.533   0.100  0.00  0.00    +0.000 A 
ATOM     12  C   LIG    1        1.537   2.193   0.121  0.00  0.00    +0.001 A 
ATOM     13  C   LIG    1        2.716   1.476   0.110  0.00  0.00    +0.008 A 
ATOM     14  C   LIG    1        2.681   0.083   0.077  0.00  0.00    -0.016 A 
ATOM     15  C   LIG    1        1.454  -0.577   0.056  0.00  0.00    +0.008 A 
ATOM     16  C   LIG    1        0.281   0.150   0.068  0.00  0.00    +0.001 A 
ENDBRANCH   1  14
BRANCH   4  17
ATOM     17  C   LIG    1        4.604  -5.347  -0.059  0.00  0.00    -0.016 A 
ATOM     18  C   LIG    1        3.551  -5.437   0.856  0.00  0.00    +0.009 A 
ATOM     19  C   LIG    1        2.707  -6.509   0.823  0.00  0.00    +0.016 A 
ATOM     20  C   LIG    1        2.895  -7.518  -0.129  0.00  0.00    +0.062 A 
ATOM     21  C   LIG    1        3.949  -7.427  -1.045  0.00  0.00    -0.030 A 
ATOM     22  C   LIG    1        4.789  -6.351  -1.013  0.00  0.00    +0.013 A 
BRANCH  21  23
ATOM     23  C   LIG    1        4.153  -8.512  -2.071  0.00  0.00    +0.020 C 
ATOM     24  C   LIG    1        5.556  -9.134  -1.910  0.00  0.00    +0.008 C 
ATOM     25  C   LIG    1        6.014  -9.419  -3.362  0.00  0.00    +0.001 C 
ATOM     26  C   LIG    1        5.467  -8.196  -4.139  0.00  0.00    +0.001 C 
ATOM     27  C   LIG    1        4.097  -7.915  -3.488  0.00  0.00    +0.008 C 
ENDBRANCH  21  23
BRANCH  20  28
ATOM     28  C   LIG    1        1.985  -8.675  -0.166  0.00  0.00    +0.337 C 
ATOM     29  O   LIG    1        0.943  -8.613  -0.804  0.00  0.00    -0.245 OA
BRANCH  28  30
ATOM     30  O   LIG    1        2.271  -9.697   0.441  0.00  0.00    -0.477 OA
ATOM     31  H   LIG    1        3.069  -9.745   0.930  0.00  0.00    +0.295 HD
ENDBRANCH  28  30
ENDBRANCH  20  28
ENDBRANCH   4  17
TORSDOF 5
