REMARK  Name = ZINC32012483
REMARK                            x       y       z     vdW  Elec       q    Type
REMARK                         _______ _______ _______ _____ _____    ______ ____
ROOT
ATOM      1  C   LIG    1        2.975   3.145  -1.962  0.00  0.00    +0.001 A 
ATOM      2  C   LIG    1        3.760   2.005  -2.010  0.00  0.00    +0.002 A 
ATOM      3  C   LIG    1        3.296   0.808  -1.502  0.00  0.00    +0.024 A 
ATOM      4  C   LIG    1        2.029   0.735  -0.934  0.00  0.00    +0.042 A 
ATOM      5  C   LIG    1        1.237   1.892  -0.887  0.00  0.00    +0.008 A 
ATOM      6  C   LIG    1       -0.033   1.504  -0.237  0.00  0.00    +0.050 C 
ATOM      7  C   LIG    1        0.120   0.057   0.068  0.00  0.00    +0.249 C 
ATOM      8  O   LIG    1       -0.705  -0.652   0.609  0.00  0.00    -0.270 OA
ATOM      9  C   LIG    1       -1.107   2.297   0.020  0.00  0.00    +0.065 C 
ATOM     10  N   LIG    1        1.335  -0.325  -0.360  0.00  0.00    -0.281 N 
ATOM     11  H   LIG    1        1.799  -1.321  -0.306  0.00  0.00    +0.155 HD
ATOM     12  C   LIG    1        1.715   3.094  -1.403  0.00  0.00    +0.010 A 
ENDROOT
BRANCH   9  13
ATOM     13  C   LIG    1       -0.936   3.751   0.138  0.00  0.00    +0.188 C 
ATOM     14  O   LIG    1        0.180   4.235   0.134  0.00  0.00    -0.287 OA
BRANCH  13  15
ATOM     15  C   LIG    1       -2.121   4.627   0.260  0.00  0.00    +0.040 A 
ATOM     16  C   LIG    1       -1.971   6.015   0.378  0.00  0.00    +0.015 A 
ATOM     17  C   LIG    1       -3.112   6.790   0.484  0.00  0.00    +0.020 A 
ATOM     18  C   LIG    1       -4.352   6.175   0.481  0.00  0.00    +0.111 A 
ATOM     19  N   LIG    1       -4.462   4.865   0.374  0.00  0.00    -0.263 NA
ATOM     20  C   LIG    1       -3.408   4.084   0.265  0.00  0.00    +0.122 A 
ENDBRANCH  13  15
ENDBRANCH   9  13
TORSDOF 2
