REMARK  Name = ZINC72107303
REMARK                            x       y       z     vdW  Elec       q    Type
REMARK                         _______ _______ _______ _____ _____    ______ ____
ROOT
ATOM      1  N   LIG    1        3.759  -5.568   1.312  0.00  0.00    -0.314 N 
ENDROOT
BRANCH   1   2
ATOM      2  C   LIG    1        4.468  -4.765   2.198  0.00  0.00    +0.031 A 
ATOM      3  C   LIG    1        4.896  -3.501   1.801  0.00  0.00    +0.024 A 
ATOM      4  C   LIG    1        5.597  -2.704   2.676  0.00  0.00    +0.015 A 
ATOM      5  C   LIG    1        5.880  -3.164   3.965  0.00  0.00    +0.037 A 
ATOM      6  C   LIG    1        5.449  -4.434   4.361  0.00  0.00    +0.015 A 
ATOM      7  C   LIG    1        4.743  -5.224   3.483  0.00  0.00    +0.024 A 
BRANCH   5   8
ATOM      8  C   LIG    1        6.632  -2.312   4.905  0.00  0.00    +0.244 C 
ATOM      9  N   LIG    1        6.904  -2.757   6.148  0.00  0.00    -0.307 N 
ATOM     10  H   LIG    1        6.606  -3.638   6.424  0.00  0.00    +0.149 HD
ATOM     11  O   LIG    1        7.007  -1.208   4.559  0.00  0.00    -0.270 OA
BRANCH   9  12
ATOM     12  C   LIG    1        7.652  -1.911   7.082  0.00  0.00    +0.141 C 
BRANCH  12  13
ATOM     13  C   LIG    1        7.821  -2.636   8.392  0.00  0.00    -0.012 A 
ATOM     14  C   LIG    1        6.871  -2.507   9.394  0.00  0.00    +0.008 A 
ATOM     15  C   LIG    1        7.068  -3.193  10.582  0.00  0.00    +0.020 A 
ATOM     16  C   LIG    1        8.197  -3.977  10.729  0.00  0.00    +0.111 A 
ATOM     17  N   LIG    1        9.080  -4.076   9.754  0.00  0.00    -0.263 NA
ATOM     18  C   LIG    1        8.922  -3.443   8.608  0.00  0.00    +0.115 A 
ENDBRANCH  12  13
ENDBRANCH   9  12
ENDBRANCH   5   8
ENDBRANCH   1   2
BRANCH   1  19
ATOM     19  C   LIG    1        3.468  -5.087  -0.041  0.00  0.00    +0.142 C 
BRANCH  19  28
ATOM     20  C   LIG    1       -2.443  -2.279   3.469  0.00  0.00    +0.154 C 
ATOM     21  N   LIG    1       -1.594  -2.459   2.289  0.00  0.00    -0.297 N 
ATOM     22  C   LIG    1       -1.926  -1.848   1.121  0.00  0.00    +0.138 A 
ATOM     23  N   LIG    1       -1.225  -1.958   0.034  0.00  0.00    -0.231 NA
ATOM     24  C   LIG    1       -0.093  -2.704  -0.010  0.00  0.00    +0.080 A 
ATOM     25  C   LIG    1        0.662  -2.823  -1.178  0.00  0.00    +0.049 A 
ATOM     26  C   LIG    1        1.806  -3.593  -1.172  0.00  0.00    +0.048 A 
ATOM     27 CL   LIG    1        2.746  -3.742  -2.624  0.00  0.00    -0.083 Cl
ATOM     28  C   LIG    1        2.214  -4.251  -0.018  0.00  0.00    -0.011 A 
ATOM     29  C   LIG    1        1.491  -4.149   1.137  0.00  0.00    +0.022 A 
ATOM     30  C   LIG    1        0.331  -3.376   1.158  0.00  0.00    +0.065 A 
ATOM     31  C   LIG    1       -0.482  -3.227   2.373  0.00  0.00    +0.262 A 
ATOM     32  O   LIG    1       -0.171  -3.776   3.414  0.00  0.00    -0.267 OA
BRANCH  22  33
ATOM     33  C   LIG    1       -3.171  -1.001   1.087  0.00  0.00    +0.230 C 
BRANCH  33  34
ATOM     34  O   LIG    1       -3.339  -0.453  -0.222  0.00  0.00    -0.387 OA
ATOM     35  H   LIG    1       -4.123   0.105  -0.318  0.00  0.00    +0.210 HD
ENDBRANCH  33  34
ENDBRANCH  22  33
ENDBRANCH  19  28
ENDBRANCH   1  19
BRANCH   1  36
ATOM     36  C   LIG    1        3.303  -6.896   1.730  0.00  0.00    +0.194 C 
BRANCH  36  37
ATOM     37  C   LIG    1        4.389  -7.870   1.540  0.00  0.00    -0.086 C 
ATOM     38  C   LIG    1        5.256  -8.648   1.389  0.00  0.00    +0.005 C 
ENDBRANCH  36  37
ENDBRANCH   1  36
TORSDOF 10
