REMARK  Name = ZINC29747055
REMARK                            x       y       z     vdW  Elec       q    Type
REMARK                         _______ _______ _______ _____ _____    ______ ____
ROOT
ATOM      1  N   LIG    1        3.162   4.808   1.179  0.00  0.00    -0.315 N 
ATOM      2  H   LIG    1        2.852   5.424   0.497  0.00  0.00    +0.149 HD
ATOM      3  C   LIG    1        4.019   5.231   2.130  0.00  0.00    +0.211 C 
ATOM      4  O   LIG    1        4.408   4.461   2.982  0.00  0.00    -0.276 OA
ENDROOT
BRANCH   1   5
ATOM      5  C   LIG    1        2.700   3.418   1.176  0.00  0.00    +0.110 C 
BRANCH   5   6
ATOM      6  C   LIG    1        1.743   3.202   0.003  0.00  0.00    +0.075 C 
BRANCH   6   8
ATOM      7  C   LIG    1       -0.017   1.365   0.009  0.00  0.00    +0.107 A 
ATOM      8  C   LIG    1        1.267   1.772  -0.001  0.00  0.00    +0.060 A 
ATOM      9  N   LIG    1        2.048   0.681  -0.014  0.00  0.00    -0.241 NA
ATOM     10  C   LIG    1        1.297  -0.386  -0.012  0.00  0.00    +0.196 A 
ATOM     11  N   LIG    1        0.002  -0.004   0.002  0.00  0.00    -0.351 N 
ATOM     12  H   LIG    1       -0.771  -0.590   0.006  0.00  0.00    +0.166 HD
ENDBRANCH   6   8
ENDBRANCH   5   6
ENDBRANCH   1   5
BRANCH   3  13
ATOM     13  C   LIG    1        4.495   6.662   2.133  0.00  0.00    +0.076 C 
BRANCH  13  14
ATOM     14  C   LIG    1        5.452   6.878   3.307  0.00  0.00    -0.077 C 
BRANCH  14  15
ATOM     15  N   LIG    1        5.916   8.272   3.310  0.00  0.00    +0.378 N 
ATOM     16  H   LIG    1        5.123   8.890   3.403  0.00  0.00    -0.090 HD
ATOM     17  H   LIG    1        6.395   8.469   2.444  0.00  0.00    -0.090 HD
ATOM     18  H   LIG    1        6.547   8.415   4.084  0.00  0.00    -0.090 HD
ENDBRANCH  14  15
ENDBRANCH  13  14
ENDBRANCH   3  13
TORSDOF 6
