REMARK  Name = ZINC22449469
REMARK                            x       y       z     vdW  Elec       q    Type
REMARK                         _______ _______ _______ _____ _____    ______ ____
ROOT
ATOM      1  C   LIG    1       -1.190  -0.865   0.128  0.00  0.00    +0.051 C 
ATOM      2  C   LIG    1       -0.029  -0.484  -0.537  0.00  0.00    +0.068 C 
ATOM      3  C   LIG    1        1.362  -0.743  -0.119  0.00  0.00    +0.010 A 
ATOM      4  C   LIG    1        1.929  -1.393   0.976  0.00  0.00    +0.011 A 
ATOM      5  C   LIG    1        3.287  -1.475   1.093  0.00  0.00    +0.016 A 
ATOM      6  C   LIG    1        4.113  -0.907   0.116  0.00  0.00    +0.061 A 
ATOM      7  C   LIG    1        3.555  -0.253  -0.985  0.00  0.00    +0.039 A 
ATOM      8  C   LIG    1        2.179  -0.168  -1.108  0.00  0.00    +0.042 A 
ATOM      9  N   LIG    1        1.357   0.407  -2.070  0.00  0.00    -0.281 N 
ATOM     10  H   LIG    1        1.801   0.915  -2.939  0.00  0.00    +0.155 HD
ATOM     11  C   LIG    1        0.062   0.235  -1.759  0.00  0.00    +0.251 C 
ATOM     12  O   LIG    1       -0.883   0.628  -2.420  0.00  0.00    -0.270 OA
ENDROOT
BRANCH   1  13
ATOM     13  C   LIG    1       -2.503  -0.394  -0.351  0.00  0.00    -0.003 A 
ATOM     14  C   LIG    1       -2.728   0.971  -0.552  0.00  0.00    +0.010 A 
ATOM     15  C   LIG    1       -3.957   1.403  -1.004  0.00  0.00    +0.001 A 
ATOM     16  C   LIG    1       -4.969   0.491  -1.249  0.00  0.00    +0.000 A 
ATOM     17  C   LIG    1       -4.754  -0.861  -1.048  0.00  0.00    +0.001 A 
ATOM     18  C   LIG    1       -3.529  -1.309  -0.600  0.00  0.00    +0.010 A 
ENDBRANCH   1  13
BRANCH   1  19
ATOM     19  N   LIG    1       -1.114  -1.678   1.228  0.00  0.00    -0.313 N 
ATOM     20  H   LIG    1       -0.646  -2.670   1.147  0.00  0.00    +0.152 HD
BRANCH  19  24
ATOM     21  C   LIG    1       -2.655  -0.392   4.880  0.00  0.00    +0.036 A 
ATOM     22  C   LIG    1       -2.198  -1.696   4.740  0.00  0.00    +0.025 A 
ATOM     23  C   LIG    1       -1.688  -2.122   3.530  0.00  0.00    +0.025 A 
ATOM     24  C   LIG    1       -1.631  -1.247   2.453  0.00  0.00    +0.031 A 
ATOM     25  C   LIG    1       -2.083   0.059   2.595  0.00  0.00    +0.025 A 
ATOM     26  C   LIG    1       -2.598   0.483   3.804  0.00  0.00    +0.025 A 
BRANCH  21  28
ATOM     27  C   LIG    1       -2.582   1.055   6.769  0.00  0.00    +0.203 C 
ATOM     28  N   LIG    1       -3.173   0.040   6.108  0.00  0.00    -0.276 N 
ATOM     29  C   LIG    1       -4.357  -0.612   6.673  0.00  0.00    +0.138 C 
ATOM     30  O   LIG    1       -1.664   1.659   6.256  0.00  0.00    -0.277 OA
BRANCH  27  31
ATOM     31  C   LIG    1       -3.062   1.438   8.145  0.00  0.00    +0.019 C 
BRANCH  31  36
ATOM     32  C   LIG    1        0.165   5.059  11.040  0.00  0.00    +0.104 C 
ATOM     33  N   LIG    1       -0.635   3.933  10.539  0.00  0.00    -0.309 NA
ATOM     34  C   LIG    1       -2.031   4.336  10.319  0.00  0.00    +0.065 C 
ATOM     35  C   LIG    1       -2.846   3.120   9.875  0.00  0.00    -0.063 C 
ATOM     36  N   LIG    1       -2.262   2.564   8.646  0.00  0.00    +0.387 N 
ATOM     37  H   LIG    1       -2.271   3.352   7.879  0.00  0.00    -0.081 HD
ATOM     38  C   LIG    1       -0.866   2.161   8.866  0.00  0.00    -0.063 C 
ATOM     39  C   LIG    1       -0.050   3.378   9.310  0.00  0.00    +0.065 C 
ENDBRANCH  31  36
ENDBRANCH  27  31
ENDBRANCH  21  28
ENDBRANCH  19  24
ENDBRANCH   1  19
BRANCH   6  40
ATOM     40  C   LIG    1        5.579  -0.999   0.250  0.00  0.00    +0.339 C 
ATOM     41  O   LIG    1        6.298  -0.506  -0.597  0.00  0.00    -0.245 OA
BRANCH  40  42
ATOM     42  O   LIG    1        6.120  -1.629   1.311  0.00  0.00    -0.464 OA
ATOM     43  C   LIG    1        7.570  -1.681   1.377  0.00  0.00    +0.280 C 
ENDBRANCH  40  42
ENDBRANCH   6  40
TORSDOF 8
