REMARK  Name = ZINC20457322
REMARK                            x       y       z     vdW  Elec       q    Type
REMARK                         _______ _______ _______ _____ _____    ______ ____
ROOT
ATOM      1  C   LIG    1       -1.161  -0.697   0.009  0.00  0.00    +0.008 C 
ATOM      2  C   LIG    1        0.002  -0.004   0.002  0.00  0.00    +0.002 C 
ENDROOT
BRANCH   2   3
ATOM      3  C   LIG    1       -0.017   1.405   0.010  0.00  0.00    +0.020 C 
ATOM      4  C   LIG    1        1.155   2.103   0.002  0.00  0.00    +0.073 C 
ATOM      5  C   LIG    1        1.381   3.560   0.008  0.00  0.00    +0.217 C 
ATOM      6  N   LIG    1        2.640   3.966  -0.002  0.00  0.00    -0.165 NA
ATOM      7  C   LIG    1        3.663   3.087  -0.016  0.00  0.00    +0.139 C 
ATOM      8  S   LIG    1        5.344   3.411  -0.031  0.00  0.00    -0.026 S 
ATOM      9  S   LIG    1        2.839   1.503  -0.009  0.00  0.00    -0.060 S 
BRANCH   5  10
ATOM     10  O   LIG    1        0.456   4.351   0.021  0.00  0.00    -0.493 OA
ATOM     11  H   LIG    1       -0.428   4.038   0.028  0.00  0.00    +0.294 HD
ENDBRANCH   5  10
ENDBRANCH   2   3
BRANCH   1  17
ATOM     12  C   LIG    1        0.078  -2.854  -0.020  0.00  0.00    +0.010 A 
ATOM     13  C   LIG    1        0.088  -4.232  -0.023  0.00  0.00    +0.033 A 
ATOM     14  C   LIG    1       -1.104  -4.937  -0.015  0.00  0.00    +0.122 A 
ATOM     15  C   LIG    1       -2.314  -4.265   0.001  0.00  0.00    +0.033 A 
ATOM     16  C   LIG    1       -2.341  -2.887   0.009  0.00  0.00    +0.010 A 
ATOM     17  C   LIG    1       -1.141  -2.167   0.001  0.00  0.00    -0.025 A 
BRANCH  14  18
ATOM     18  N   LIG    1       -1.084  -6.419  -0.025  0.00  0.00    +0.006 N 
ATOM     19  O   LIG    1       -2.130  -7.042  -0.018  0.00  0.00    -0.130 OA
BRANCH  18  20
ATOM     20  O   LIG    1       -0.021  -7.013  -0.039  0.00  0.00    -0.396 OA
ATOM     21  H   LIG    1        0.784  -6.534  -0.044  0.00  0.00    +0.329 HD
ENDBRANCH  18  20
ENDBRANCH  14  18
ENDBRANCH   1  17
TORSDOF 5
