REMARK  Name = ZINC34801418
REMARK                            x       y       z     vdW  Elec       q    Type
REMARK                         _______ _______ _______ _____ _____    ______ ____
ROOT
ATOM      1  C   LIG    1       -1.641  -0.559  -0.211  0.00  0.00    +0.024 C 
ATOM      2  C   LIG    1       -2.482  -0.466  -1.512  0.00  0.00    +0.007 C 
ATOM      3  C   LIG    1       -2.988  -1.910  -1.808  0.00  0.00    +0.005 C 
ATOM      4  C   LIG    1       -2.815  -2.591  -0.440  0.00  0.00    -0.001 C 
ATOM      5  C   LIG    1       -2.942  -4.079  -0.379  0.00  0.00    -0.004 C 
ATOM      6  C   LIG    1       -3.146  -4.736  -1.741  0.00  0.00    +0.006 C 
ATOM      7  C   LIG    1       -3.466  -6.225  -1.525  0.00  0.00    +0.023 C 
ATOM      8  C   LIG    1       -3.417  -6.559  -0.042  0.00  0.00    +0.082 C 
ATOM      9  C   LIG    1       -2.064  -6.205   0.571  0.00  0.00    -0.010 C 
ATOM     10  C   LIG    1       -0.959  -7.044  -0.083  0.00  0.00    +0.013 C 
ATOM     11  C   LIG    1       -2.108  -6.507   2.067  0.00  0.00    +0.018 C 
ATOM     12  C   LIG    1       -2.291  -8.009   2.287  0.00  0.00    +0.096 C 
ATOM     13  C   LIG    1       -3.243  -8.606   1.296  0.00  0.00    +0.216 C 
ATOM     14  O   LIG    1       -3.589  -9.758   1.459  0.00  0.00    -0.276 OA
ATOM     15  N   LIG    1       -3.738  -7.952   0.238  0.00  0.00    -0.301 N 
ATOM     16  C   LIG    1       -4.644  -8.678  -0.652  0.00  0.00    +0.132 C 
ATOM     17  C   LIG    1       -1.746  -4.729   0.315  0.00  0.00    +0.000 C 
ATOM     18  C   LIG    1       -1.369  -4.000   1.592  0.00  0.00    +0.005 C 
ATOM     19  C   LIG    1       -1.078  -2.513   1.367  0.00  0.00    +0.007 C 
ATOM     20  C   LIG    1       -1.417  -2.078  -0.031  0.00  0.00    -0.024 C 
ATOM     21  C   LIG    1       -0.321  -2.471  -1.020  0.00  0.00    +0.012 C 
ENDROOT
BRANCH   1  23
ATOM     22  C   LIG    1       -0.529   1.641  -0.601  0.00  0.00    +0.038 C 
ATOM     23  C   LIG    1       -0.298   0.144  -0.389  0.00  0.00    +0.115 C 
BRANCH  23  24
ATOM     24  O   LIG    1        0.501  -0.054   0.779  0.00  0.00    -0.392 OA
ATOM     25  H   LIG    1        1.371   0.366   0.736  0.00  0.00    +0.210 HD
ENDBRANCH  23  24
ENDBRANCH   1  23
TORSDOF 2
