REMARK  Name = ZINC36087977
REMARK                            x       y       z     vdW  Elec       q    Type
REMARK                         _______ _______ _______ _____ _____    ______ ____
ROOT
ATOM      1  C   LIG    1       -0.019   1.526   0.010  0.00  0.00    +0.015 C 
ATOM      2  C   LIG    1        0.002  -0.004   0.002  0.00  0.00    +0.010 C 
ATOM      3  C   LIG    1       -1.389  -0.705   0.062  0.00  0.00    +0.011 C 
ATOM      4  C   LIG    1       -1.084  -2.139   0.552  0.00  0.00    +0.005 C 
ATOM      5  C   LIG    1        0.463  -2.169   0.743  0.00  0.00    -0.001 C 
ATOM      6  C   LIG    1        1.035  -2.139  -0.708  0.00  0.00    +0.049 C 
ATOM      7  C   LIG    1        0.744  -0.669  -1.197  0.00  0.00    +0.183 C 
ATOM      8  C   LIG    1        0.727  -0.695   1.211  0.00  0.00    -0.023 C 
ATOM      9  C   LIG    1        0.042  -0.385   2.543  0.00  0.00    +0.012 C 
ATOM     10  C   LIG    1        2.220  -0.363   1.250  0.00  0.00    +0.012 C 
ENDROOT
BRANCH   7  11
ATOM     11  O   LIG    1       -0.102  -0.707  -2.348  0.00  0.00    -0.461 OA
BRANCH  11  12
ATOM     12  C   LIG    1        0.497  -0.649  -3.547  0.00  0.00    +0.312 C 
ATOM     13  O   LIG    1        1.700  -0.569  -3.618  0.00  0.00    -0.250 OA
BRANCH  12  14
ATOM     14  C   LIG    1       -0.331  -0.685  -4.806  0.00  0.00    +0.155 C 
BRANCH  14  15
ATOM     15  C   LIG    1        0.576  -0.606  -6.007  0.00  0.00    -0.034 A 
ATOM     16  C   LIG    1        0.929   0.619  -6.551  0.00  0.00    +0.024 A 
ATOM     17  C   LIG    1        1.763   0.652  -7.652  0.00  0.00    +0.111 A 
ATOM     18  N   LIG    1        2.221  -0.464  -8.185  0.00  0.00    -0.263 NA
ATOM     19  C   LIG    1        1.906  -1.647  -7.694  0.00  0.00    +0.111 A 
ATOM     20  C   LIG    1        1.081  -1.758  -6.590  0.00  0.00    +0.024 A 
ENDBRANCH  14  15
ENDBRANCH  12  14
ENDBRANCH  11  12
ENDBRANCH   7  11
TORSDOF 4
