REMARK  Name = ZINC00020251
REMARK                            x       y       z     vdW  Elec       q    Type
REMARK                         _______ _______ _______ _____ _____    ______ ____
ROOT
ATOM      1  N   LIG    1        0.057  -4.168  -0.021  0.00  0.00    -0.288 N 
ENDROOT
BRANCH   1   6
ATOM      2  C   LIG    1        0.368   1.495  -0.020  0.00  0.00    +0.044 C 
ATOM      3  C   LIG    1        0.285  -0.010  -0.020  0.00  0.00    -0.050 A 
ATOM      4  C   LIG    1        1.444  -0.764  -0.011  0.00  0.00    +0.005 A 
ATOM      5  C   LIG    1        1.372  -2.143  -0.011  0.00  0.00    +0.024 A 
ATOM      6  C   LIG    1        0.134  -2.773  -0.020  0.00  0.00    +0.034 A 
ATOM      7  C   LIG    1       -1.028  -2.012  -0.029  0.00  0.00    +0.024 A 
ATOM      8  C   LIG    1       -0.949  -0.633  -0.023  0.00  0.00    +0.005 A 
ENDBRANCH   1   6
BRANCH   1   9
ATOM      9  C   LIG    1       -0.045  -4.861  -1.230  0.00  0.00    +0.038 A 
ATOM     10  C   LIG    1       -0.055  -4.165  -2.432  0.00  0.00    +0.024 A 
ATOM     11  C   LIG    1       -0.157  -4.851  -3.627  0.00  0.00    +0.005 A 
ATOM     12  C   LIG    1       -0.249  -6.230  -3.630  0.00  0.00    +0.045 A 
ATOM     13  C   LIG    1       -0.240  -6.930  -2.432  0.00  0.00    +0.119 A 
ATOM     14  C   LIG    1       -0.132  -6.247  -1.231  0.00  0.00    +0.068 A 
BRANCH  13  15
ATOM     15  O   LIG    1       -0.332  -8.286  -2.436  0.00  0.00    -0.507 OA
ATOM     16  H   LIG    1        0.522  -8.738  -2.479  0.00  0.00    +0.292 HD
ENDBRANCH  13  15
ENDBRANCH   1   9
BRANCH   1  17
ATOM     17  C   LIG    1        0.085  -4.904   1.246  0.00  0.00    +0.234 C 
BRANCH  17  18
ATOM     18  C   LIG    1       -1.323  -5.078   1.756  0.00  0.00    +0.256 C 
ATOM     19  N   LIG    1       -1.901  -4.202   2.543  0.00  0.00    -0.274 N 
ATOM     20  H   LIG    1       -1.493  -3.382   2.865  0.00  0.00    +0.304 HD
ATOM     21  C   LIG    1       -3.263  -4.658   2.861  0.00  0.00    +0.276 C 
ATOM     22  C   LIG    1       -3.375  -5.993   2.096  0.00  0.00    +0.268 C 
ATOM     23  N   LIG    1       -2.063  -6.115   1.441  0.00  0.00    -0.236 N 
ATOM     24  H   LIG    1       -1.787  -6.848   0.868  0.00  0.00    +0.291 HD
ENDBRANCH  17  18
ENDBRANCH   1  17
TORSDOF 5
