REMARK  Name = ZINC28236646
REMARK                            x       y       z     vdW  Elec       q    Type
REMARK                         _______ _______ _______ _____ _____    ______ ____
ROOT
ATOM      1  C   LIG    1       -0.797   1.578   1.303  0.00  0.00    -0.010 C 
ATOM      2  C   LIG    1       -0.034   1.165   0.042  0.00  0.00    -0.015 C 
ATOM      3  C   LIG    1       -0.784   1.670  -1.192  0.00  0.00    -0.078 C 
ATOM      4  N   LIG    1       -2.138   1.101  -1.210  0.00  0.00    +0.383 N 
ATOM      5  H   LIG    1       -2.042   0.006  -1.173  0.00  0.00    -0.081 HD
ATOM      6  C   LIG    1       -2.907   1.523  -0.033  0.00  0.00    -0.078 C 
ATOM      7  C   LIG    1       -2.220   1.014   1.236  0.00  0.00    -0.015 C 
ENDROOT
BRANCH   4   8
ATOM      8  C   LIG    1       -2.840   1.453  -2.452  0.00  0.00    -0.040 C 
ATOM      9  C   LIG    1       -4.232   0.819  -2.447  0.00  0.00    -0.013 C 
ATOM     10  C   LIG    1       -4.964   1.186  -3.740  0.00  0.00    -0.001 C 
ATOM     11  C   LIG    1       -4.170   0.666  -4.940  0.00  0.00    +0.002 C 
ATOM     12  C   LIG    1       -2.778   1.300  -4.945  0.00  0.00    +0.030 C 
ATOM     13  C   LIG    1       -2.046   0.933  -3.652  0.00  0.00    +0.101 C 
BRANCH  13  14
ATOM     14  O   LIG    1       -1.923  -0.488  -3.561  0.00  0.00    -0.393 OA
ATOM     15  H   LIG    1       -1.380  -1.043  -4.340  0.00  0.00    +0.210 HD
ENDBRANCH  13  14
ENDBRANCH   4   8
BRANCH   1  16
ATOM     16  C   LIG    1       -0.083   1.024   2.538  0.00  0.00    +0.038 C 
BRANCH  16  20
ATOM     17  C   LIG    1       -2.013   2.466   6.066  0.00  0.00    +0.000 A 
ATOM     18  C   LIG    1       -2.426   1.280   5.487  0.00  0.00    +0.000 A 
ATOM     19  C   LIG    1       -1.802   0.814   4.346  0.00  0.00    +0.003 A 
ATOM     20  C   LIG    1       -0.764   1.533   3.783  0.00  0.00    -0.047 A 
ATOM     21  C   LIG    1       -0.347   2.715   4.364  0.00  0.00    +0.003 A 
ATOM     22  C   LIG    1       -0.975   3.184   5.503  0.00  0.00    +0.000 A 
ENDBRANCH  16  20
ENDBRANCH   1  16
TORSDOF 4
