REMARK  Name = ZINC36448414
REMARK                            x       y       z     vdW  Elec       q    Type
REMARK                         _______ _______ _______ _____ _____    ______ ____
ROOT
ATOM      1  C   LIG    1       -3.079  -4.053   0.010  0.00  0.00    +0.228 C 
ATOM      2  O   LIG    1       -2.153  -4.827  -0.119  0.00  0.00    -0.284 OA
ENDROOT
BRANCH   1   3
ATOM      3  C   LIG    1       -4.456  -4.564   0.131  0.00  0.00    +0.025 A 
ATOM      4  C   LIG    1       -5.538  -3.677   0.141  0.00  0.00    +0.012 A 
ATOM      5  C   LIG    1       -6.822  -4.163   0.255  0.00  0.00    +0.001 A 
ATOM      6  C   LIG    1       -7.044  -5.526   0.361  0.00  0.00    +0.000 A 
ATOM      7  C   LIG    1       -5.979  -6.411   0.352  0.00  0.00    +0.001 A 
ATOM      8  C   LIG    1       -4.689  -5.940   0.232  0.00  0.00    +0.012 A 
ENDBRANCH   1   3
BRANCH   1   9
ATOM      9  C   LIG    1       -2.823  -2.586   0.045  0.00  0.00    +0.203 C 
ATOM     10  O   LIG    1       -3.750  -1.812   0.078  0.00  0.00    -0.289 OA
BRANCH   9  11
ATOM     11  C   LIG    1       -1.409  -2.067   0.039  0.00  0.00    +0.083 C 
BRANCH  11  12
ATOM     12  C   LIG    1       -1.426  -0.538   0.079  0.00  0.00    +0.008 C 
BRANCH  12  14
ATOM     13  C   LIG    1       -0.008   1.519   0.113  0.00  0.00    +0.004 C 
ATOM     14  C   LIG    1        0.010  -0.011   0.073  0.00  0.00    -0.003 C 
ENDBRANCH  12  14
ENDBRANCH  11  12
ENDBRANCH   9  11
ENDBRANCH   1   9
TORSDOF 5
