REMARK  Name = ZINC00014556
REMARK                            x       y       z     vdW  Elec       q    Type
REMARK                         _______ _______ _______ _____ _____    ______ ____
ROOT
ATOM      1  N   LIG    1        2.157   4.136   0.003  0.00  0.00    -0.289 N 
ATOM      2  C   LIG    1        1.157   3.166   0.008  0.00  0.00    +0.071 A 
ATOM      3  C   LIG    1        1.176   1.780   0.000  0.00  0.00    +0.028 A 
ATOM      4  C   LIG    1       -0.013   1.076   0.008  0.00  0.00    +0.002 A 
ATOM      5  C   LIG    1       -1.222   1.749   0.017  0.00  0.00    +0.002 A 
ATOM      6  C   LIG    1       -1.251   3.130   0.030  0.00  0.00    +0.028 A 
ATOM      7  C   LIG    1       -0.063   3.844   0.022  0.00  0.00    +0.079 A 
ATOM      8  N   LIG    1        0.234   5.208   0.026  0.00  0.00    -0.214 N 
ATOM      9  C   LIG    1       -0.665   6.212   0.040  0.00  0.00    +0.323 C 
ATOM     10  N   LIG    1       -0.245   7.493   0.043  0.00  0.00    -0.294 N 
ATOM     11  H   LIG    1        0.704   7.692   0.035  0.00  0.00    +0.151 HD
ATOM     12  O   LIG    1       -1.854   5.963   0.050  0.00  0.00    -0.249 OA
ATOM     13  C   LIG    1        1.573   5.349   0.015  0.00  0.00    +0.338 A 
ATOM     14  O   LIG    1        2.166   6.412   0.014  0.00  0.00    -0.246 OA
ENDROOT
BRANCH  10  15
ATOM     15  C   LIG    1       -1.222   8.584   0.057  0.00  0.00    +0.072 C 
ATOM     16  C   LIG    1       -1.674   8.883  -1.375  0.00  0.00    +0.007 C 
ATOM     17  C   LIG    1       -2.583  10.122  -1.363  0.00  0.00    -0.067 C 
ATOM     18  N   LIG    1       -1.761  11.238  -0.885  0.00  0.00    +0.382 N 
ATOM     19  H   LIG    1       -0.855  11.242  -1.369  0.00  0.00    -0.081 HD
ATOM     20  C   LIG    1       -2.455  12.544  -1.127  0.00  0.00    -0.095 C 
ATOM     21  C   LIG    1       -1.564  11.009   0.542  0.00  0.00    -0.067 C 
ATOM     22  C   LIG    1       -2.949  10.521   1.025  0.00  0.00    -0.017 C 
ATOM     23  C   LIG    1       -3.623   9.935  -0.234  0.00  0.00    -0.017 C 
ATOM     24  C   LIG    1       -0.581   9.834   0.668  0.00  0.00    +0.007 C 
ENDBRANCH  10  15
BRANCH   1  26
ATOM     25  C   LIG    1        4.216   4.506  -1.264  0.00  0.00    +0.031 C 
ATOM     26  C   LIG    1        3.599   3.880  -0.012  0.00  0.00    +0.086 C 
ATOM     27  C   LIG    1        4.239   4.494   1.235  0.00  0.00    +0.031 C 
ENDBRANCH   1  26
TORSDOF 2
