REMARK  Name = ZINC15079662
REMARK                            x       y       z     vdW  Elec       q    Type
REMARK                         _______ _______ _______ _____ _____    ______ ____
ROOT
ATOM      1  C   LIG    1        4.099  -4.215  -0.276  0.00  0.00    +0.252 A 
ATOM      2  N   LIG    1        4.349  -3.110  -0.935  0.00  0.00    -0.106 NA
ATOM      3  N   LIG    1        3.496  -2.208  -0.595  0.00  0.00    -0.092 NA
ATOM      4  C   LIG    1        2.668  -2.703   0.294  0.00  0.00    +0.312 A 
ATOM      5  O   LIG    1        3.034  -3.979   0.521  0.00  0.00    -0.405 OA
ENDROOT
BRANCH   1  10
ATOM      6  C   LIG    1        6.940  -6.665  -0.438  0.00  0.00    +0.001 A 
ATOM      7  C   LIG    1        6.260  -7.864  -0.573  0.00  0.00    +0.002 A 
ATOM      8  C   LIG    1        4.879  -7.884  -0.611  0.00  0.00    +0.024 A 
ATOM      9  C   LIG    1        4.164  -6.699  -0.515  0.00  0.00    +0.040 A 
ATOM     10  C   LIG    1        4.850  -5.483  -0.379  0.00  0.00    +0.059 A 
ATOM     11  C   LIG    1        6.245  -5.477  -0.348  0.00  0.00    +0.015 A 
BRANCH   9  12
ATOM     12  N   LIG    1        2.771  -6.717  -0.553  0.00  0.00    -0.339 N 
ATOM     13  H   LIG    1        2.271  -5.898  -0.411  0.00  0.00    +0.146 HD
BRANCH  12  14
ATOM     14  C   LIG    1        2.061  -7.973  -0.807  0.00  0.00    +0.137 C 
BRANCH  14  15
ATOM     15  C   LIG    1        0.575  -7.722  -0.796  0.00  0.00    -0.028 A 
ATOM     16  C   LIG    1       -0.154  -7.829   0.378  0.00  0.00    +0.025 A 
ATOM     17  C   LIG    1       -1.515  -7.587   0.350  0.00  0.00    +0.111 A 
ATOM     18  N   LIG    1       -2.120  -7.267  -0.777  0.00  0.00    -0.263 NA
ATOM     19  C   LIG    1       -1.458  -7.160  -1.913  0.00  0.00    +0.111 A 
ATOM     20  C   LIG    1       -0.095  -7.383  -1.962  0.00  0.00    +0.025 A 
ENDBRANCH  14  15
ENDBRANCH  12  14
ENDBRANCH   9  12
ENDBRANCH   1  10
BRANCH   4  21
ATOM     21  N   LIG    1        1.617  -2.034   0.894  0.00  0.00    -0.268 N 
ATOM     22  H   LIG    1        1.113  -2.461   1.604  0.00  0.00    +0.157 HD
BRANCH  21  23
ATOM     23  C   LIG    1        1.280  -0.742   0.476  0.00  0.00    +0.039 A 
ATOM     24  C   LIG    1        1.564  -0.335  -0.821  0.00  0.00    +0.027 A 
ATOM     25  C   LIG    1        1.234   0.942  -1.233  0.00  0.00    +0.051 A 
ATOM     26  C   LIG    1        0.618   1.821  -0.354  0.00  0.00    +0.162 A 
ATOM     27  C   LIG    1        0.331   1.415   0.944  0.00  0.00    +0.164 A 
ATOM     28  O   LIG    1       -0.280   2.261   1.819  0.00  0.00    -0.485 OA
ATOM     29  C   LIG    1       -0.261   3.654   1.488  0.00  0.00    +0.270 C 
ATOM     30  C   LIG    1       -0.646   3.803   0.010  0.00  0.00    +0.270 C 
ATOM     31  O   LIG    1        0.308   3.078  -0.776  0.00  0.00    -0.485 OA
ATOM     32  C   LIG    1        0.663   0.135   1.358  0.00  0.00    +0.072 A 
ENDBRANCH  21  23
ENDBRANCH   4  21
TORSDOF 6
