REMARK  Name = ZINC19802513
REMARK                            x       y       z     vdW  Elec       q    Type
REMARK                         _______ _______ _______ _____ _____    ______ ____
ROOT
ATOM      1  C   LIG    1       -0.013   1.076   0.008  0.00  0.00    +0.000 A 
ATOM      2  C   LIG    1        1.174   1.785   0.000  0.00  0.00    +0.000 A 
ATOM      3  C   LIG    1        1.150   3.165   0.009  0.00  0.00    +0.005 A 
ATOM      4  C   LIG    1       -0.059   3.846   0.024  0.00  0.00    -0.030 A 
ATOM      5  C   LIG    1       -1.241   3.138   0.030  0.00  0.00    -0.041 A 
ATOM      6  C   LIG    1       -2.579   3.833   0.040  0.00  0.00    +0.056 C 
ATOM      7  CA  LIG    1       -2.406   5.292   0.461  0.00  0.00    +0.084 C 
ATOM      8  N   LIG    1       -1.338   5.891  -0.357  0.00  0.00    -0.307 NA
ATOM      9  H   LIG    1       -1.516   5.660  -1.418  0.00  0.00    +0.123 HD
ATOM     10  C   LIG    1       -0.033   5.352   0.039  0.00  0.00    +0.117 C 
ATOM     11  C   LIG    1       -1.216   1.752   0.017  0.00  0.00    +0.004 A 
ENDROOT
BRANCH   7  12
ATOM     12  C   LIG    1       -3.714   6.052   0.233  0.00  0.00    +0.174 C 
BRANCH  12  13
ATOM     13  O   LIG    1       -3.578   7.390   0.714  0.00  0.00    -0.393 OA
ATOM     14  H   LIG    1       -4.422   8.092   0.636  0.00  0.00    +0.209 HD
ENDBRANCH  12  13
ENDBRANCH   7  12
TORSDOF 2
