REMARK  Name = ZINC18098320
REMARK                            x       y       z     vdW  Elec       q    Type
REMARK                         _______ _______ _______ _____ _____    ______ ____
ROOT
ATOM      1  C   LIG    1       -2.418  -7.797   4.361  0.00  0.00    +0.003 C 
ENDROOT
BRANCH   1   2
ATOM      2  C   LIG    1       -2.190  -6.330   4.729  0.00  0.00    +0.037 C 
BRANCH   2   3
ATOM      3  C   LIG    1       -1.019  -5.776   3.914  0.00  0.00    +0.196 C 
BRANCH   3   4
ATOM      4  N   LIG    1       -0.800  -4.371   4.266  0.00  0.00    -0.276 N 
ATOM      5  H   LIG    1       -1.365  -3.944   4.929  0.00  0.00    +0.258 HD
BRANCH   4   6
ATOM      6  C   LIG    1        0.210  -3.656   3.655  0.00  0.00    +0.388 C 
ATOM      7  N   LIG    1        0.973  -4.234   2.760  0.00  0.00    -0.129 NA
ATOM      8  H   LIG    1        1.682  -3.731   2.330  0.00  0.00    +0.306 HD
BRANCH   6  10
ATOM      9  C   LIG    1        0.979  -1.546   3.112  0.00  0.00    +0.357 C 
ATOM     10  N   LIG    1        0.412  -2.363   3.979  0.00  0.00    -0.188 N 
ATOM     11  H   LIG    1        0.140  -2.033   4.850  0.00  0.00    +0.271 HD
BRANCH   9  12
ATOM     12  N   LIG    1        1.229  -1.970   1.837  0.00  0.00    -0.291 N 
ATOM     13  H   LIG    1        0.711  -2.696   1.456  0.00  0.00    +0.255 HD
ATOM     14  H   LIG    1        1.925  -1.543   1.311  0.00  0.00    +0.255 HD
ENDBRANCH   9  12
BRANCH   9  15
ATOM     15  N   LIG    1        1.317  -0.275   3.490  0.00  0.00    -0.246 N 
ATOM     16  H   LIG    1        1.237  -0.007   4.419  0.00  0.00    +0.265 HD
BRANCH  15  23
ATOM     17  C   LIG    1        1.277   0.607   1.242  0.00  0.00    +0.043 A 
ATOM     18  C   LIG    1        1.735   1.510   0.302  0.00  0.00    +0.023 A 
ATOM     19  C   LIG    1        2.693   2.446   0.649  0.00  0.00    +0.041 A 
ATOM     20 CL   LIG    1        3.266   3.579  -0.534  0.00  0.00    -0.084 Cl
ATOM     21  C   LIG    1        3.195   2.480   1.938  0.00  0.00    +0.023 A 
ATOM     22  C   LIG    1        2.741   1.579   2.882  0.00  0.00    +0.043 A 
ATOM     23  C   LIG    1        1.779   0.639   2.536  0.00  0.00    +0.100 A 
ENDBRANCH  15  23
ENDBRANCH   9  15
ENDBRANCH   6  10
ENDBRANCH   4   6
ENDBRANCH   3   4
ENDBRANCH   2   3
ENDBRANCH   1   2
BRANCH   1  24
ATOM     24  C   LIG    1       -3.589  -8.351   5.176  0.00  0.00    +0.003 C 
BRANCH  24  25
ATOM     25  C   LIG    1       -3.818  -9.818   4.808  0.00  0.00    +0.037 C 
BRANCH  25  26
ATOM     26  C   LIG    1       -4.988 -10.372   5.623  0.00  0.00    +0.196 C 
BRANCH  26  27
ATOM     27  N   LIG    1       -5.207 -11.777   5.270  0.00  0.00    -0.276 N 
ATOM     28  H   LIG    1       -4.643 -12.205   4.608  0.00  0.00    +0.258 HD
ATOM     29  C   LIG    1       -6.166 -12.456   5.850  0.00  0.00    +0.389 C 
BRANCH  29  30
ATOM     30  N   LIG    1       -6.372 -13.780   5.518  0.00  0.00    -0.289 N 
ATOM     31  H   LIG    1       -7.147 -14.251   5.862  0.00  0.00    +0.255 HD
ATOM     32  H   LIG    1       -5.742 -14.239   4.941  0.00  0.00    +0.255 HD
ENDBRANCH  29  30
BRANCH  29  33
ATOM     33  N   LIG    1       -6.951 -11.861   6.771  0.00  0.00    -0.006 NA
ATOM     34  C   LIG    1       -7.277 -12.506   7.875  0.00  0.00    +0.394 C 
BRANCH  34  35
ATOM     35  N   LIG    1       -8.123 -11.928   8.780  0.00  0.00    -0.288 N 
ATOM     36  H   LIG    1       -8.203 -12.296   9.674  0.00  0.00    +0.255 HD
ATOM     37  H   LIG    1       -8.643 -11.149   8.529  0.00  0.00    +0.255 HD
ENDBRANCH  34  35
BRANCH  34  38
ATOM     38  N   LIG    1       -6.768 -13.754   8.115  0.00  0.00    -0.243 N 
ATOM     39  H   LIG    1       -5.970 -14.050   7.649  0.00  0.00    +0.265 HD
BRANCH  38  40
ATOM     40  C   LIG    1       -7.399 -14.603   9.031  0.00  0.00    +0.100 A 
ATOM     41  C   LIG    1       -8.777 -14.547   9.196  0.00  0.00    +0.043 A 
ATOM     42  C   LIG    1       -9.397 -15.386  10.101  0.00  0.00    +0.023 A 
ATOM     43  C   LIG    1       -8.647 -16.282  10.842  0.00  0.00    +0.041 A 
ATOM     44 CL   LIG    1       -9.430 -17.335  11.979  0.00  0.00    -0.084 Cl
ATOM     45  C   LIG    1       -7.274 -16.339  10.680  0.00  0.00    +0.023 A 
ATOM     46  C   LIG    1       -6.649 -15.506   9.773  0.00  0.00    +0.043 A 
ENDBRANCH  38  40
ENDBRANCH  34  38
ENDBRANCH  29  33
ENDBRANCH  26  27
ENDBRANCH  25  26
ENDBRANCH  24  25
ENDBRANCH   1  24
TORSDOF 17
