REMARK  Name = ZINC33324306
REMARK                            x       y       z     vdW  Elec       q    Type
REMARK                         _______ _______ _______ _____ _____    ______ ____
ROOT
ATOM      1  C   LIG    1        2.607   3.877  -1.961  0.00  0.00    +0.001 A 
ATOM      2  C   LIG    1        3.037   2.561  -2.006  0.00  0.00    +0.002 A 
ATOM      3  C   LIG    1        2.253   1.547  -1.491  0.00  0.00    +0.024 A 
ATOM      4  C   LIG    1        1.020   1.838  -0.920  0.00  0.00    +0.042 A 
ATOM      5  C   LIG    1        0.588   3.172  -0.876  0.00  0.00    +0.008 A 
ATOM      6  C   LIG    1       -0.737   3.163  -0.222  0.00  0.00    +0.050 C 
ATOM      7  C   LIG    1       -1.002   1.732   0.084  0.00  0.00    +0.249 C 
ATOM      8  O   LIG    1       -1.996   1.288   0.624  0.00  0.00    -0.270 OA
ATOM      9  C   LIG    1       -1.539   4.229   0.039  0.00  0.00    +0.065 C 
ATOM     10  N   LIG    1        0.055   1.020  -0.341  0.00  0.00    -0.281 N 
ATOM     11  H   LIG    1        0.220  -0.066  -0.280  0.00  0.00    +0.155 HD
ATOM     12  C   LIG    1        1.386   4.188  -1.398  0.00  0.00    +0.010 A 
ENDROOT
BRANCH   9  13
ATOM     13  C   LIG    1       -0.960   5.575   0.151  0.00  0.00    +0.187 C 
ATOM     14  O   LIG    1        0.247   5.720   0.140  0.00  0.00    -0.287 OA
BRANCH  13  15
ATOM     15  C   LIG    1       -1.845   6.752   0.276  0.00  0.00    +0.022 A 
ATOM     16  C   LIG    1       -3.233   6.588   0.283  0.00  0.00    +0.013 A 
ATOM     17  C   LIG    1       -4.052   7.690   0.406  0.00  0.00    +0.016 A 
ATOM     18  C   LIG    1       -3.503   8.958   0.511  0.00  0.00    +0.018 A 
ATOM     19 BR   LIG    1       -4.635  10.464   0.672  0.00  0.00    -0.050 Br
ATOM     20  C   LIG    1       -2.128   9.127   0.499  0.00  0.00    +0.016 A 
ATOM     21  C   LIG    1       -1.297   8.033   0.383  0.00  0.00    +0.013 A 
ENDBRANCH  13  15
ENDBRANCH   9  13
TORSDOF 2
