REMARK  Name = ZINC25972599
REMARK                            x       y       z     vdW  Elec       q    Type
REMARK                         _______ _______ _______ _____ _____    ______ ____
ROOT
ATOM      1  N   MET A  1       -0.876  -2.426  -1.433  0.00  0.00    -0.302 N 
ATOM      2  H   MET A  1       -1.478  -2.600  -2.173  0.00  0.00    +0.150 HD
ATOM      3  C   MET A  1        0.456  -2.525  -1.610  0.00  0.00    +0.234 C 
ATOM      4  O   MET A  1        1.209  -2.308  -0.684  0.00  0.00    -0.274 OA
ENDROOT
BRANCH   3   5
ATOM      5  CA  MET A  1        1.011  -2.904  -2.959  0.00  0.00    +0.161 C 
BRANCH   5   6
ATOM      6  N   MET A  1        2.474  -2.942  -2.892  0.00  0.00    -0.288 N 
ATOM      7  H   MET A  1        2.916  -3.102  -2.044  0.00  0.00    +0.151 HD
ATOM      8  C   UNK A  0        3.204  -2.756  -4.009  0.00  0.00    +0.300 C 
ATOM      9  N   UNK A  0        4.550  -2.791  -3.948  0.00  0.00    -0.295 N 
ATOM     10  H   UNK A  0        4.993  -2.951  -3.099  0.00  0.00    +0.151 HD
ATOM     11  O   UNK A  0        2.649  -2.556  -5.072  0.00  0.00    -0.253 OA
BRANCH   9  12
ATOM     12  C   UNK A  0        5.345  -2.589  -5.162  0.00  0.00    +0.141 C 
BRANCH  12  13
ATOM     13  C   UNK A  0        6.810  -2.676  -4.824  0.00  0.00    -0.030 A 
ATOM     14  C   UNK A  0        7.503  -1.538  -4.452  0.00  0.00    +0.005 A 
ATOM     15  C   UNK A  0        8.848  -1.618  -4.142  0.00  0.00    +0.000 A 
ATOM     16  C   UNK A  0        9.500  -2.835  -4.202  0.00  0.00    +0.000 A 
ATOM     17  C   UNK A  0        8.807  -3.973  -4.573  0.00  0.00    +0.000 A 
ATOM     18  C   UNK A  0        7.461  -3.894  -4.879  0.00  0.00    +0.005 A 
ENDBRANCH  12  13
ENDBRANCH   9  12
ENDBRANCH   5   6
BRANCH   5  19
ATOM     19  CB  MET A  1        0.482  -4.283  -3.358  0.00  0.00    +0.042 C 
BRANCH  19  20
ATOM     20  CG  MET A  1        0.943  -4.614  -4.779  0.00  0.00    +0.071 C 
BRANCH  20  21
ATOM     21  SD  MET A  1        0.317  -6.249  -5.253  0.00  0.00    -0.164 S 
ATOM     22  CE  MET A  1        0.943  -6.488  -6.938  0.00  0.00    +0.084 C 
ENDBRANCH  20  21
ENDBRANCH  19  20
ENDBRANCH   5  19
ENDBRANCH   3   5
BRANCH   1  23
ATOM     23  CA  MET A  1       -1.416  -2.058  -0.121  0.00  0.00    +0.159 C 
BRANCH  23  24
ATOM     24  C   MET A  1       -2.819  -2.590   0.013  0.00  0.00    +0.234 C 
ATOM     25  N   PHE A  2       -3.518  -2.371   1.144  0.00  0.00    -0.301 N 
ATOM     26  H   PHE A  2       -3.118  -1.870   1.872  0.00  0.00    +0.150 HD
ATOM     27  O   MET A  1       -3.320  -3.216  -0.898  0.00  0.00    -0.274 OA
BRANCH  25  28
ATOM     28  CA  PHE A  2       -4.882  -2.888   1.274  0.00  0.00    +0.186 C 
BRANCH  28  29
ATOM     29  C   PHE A  2       -5.851  -1.912   0.658  0.00  0.00    +0.326 C 
ATOM     30  O   PHE A  2       -5.440  -0.879   0.157  0.00  0.00    -0.249 OA
BRANCH  29  31
ATOM     31  OXT PHE A  2       -7.046  -2.154   0.661  0.00  0.00    -0.479 OA
ATOM     32  HXT PHE A  2       -7.362  -2.948   1.046  0.00  0.00    +0.295 HD
ENDBRANCH  29  31
ENDBRANCH  28  29
BRANCH  28  33
ATOM     33  CB  PHE A  2       -5.218  -3.074   2.755  0.00  0.00    +0.069 C 
BRANCH  33  34
ATOM     34  CG  PHE A  2       -4.330  -4.141   3.342  0.00  0.00    -0.045 A 
ATOM     35  CD2 PHE A  2       -4.730  -5.464   3.317  0.00  0.00    +0.004 A 
ATOM     36  CE2 PHE A  2       -3.915  -6.442   3.855  0.00  0.00    +0.000 A 
ATOM     37  CZ  PHE A  2       -2.700  -6.097   4.417  0.00  0.00    +0.000 A 
ATOM     38  CE1 PHE A  2       -2.300  -4.774   4.441  0.00  0.00    +0.000 A 
ATOM     39  CD1 PHE A  2       -3.113  -3.796   3.899  0.00  0.00    +0.004 A 
ENDBRANCH  33  34
ENDBRANCH  28  33
ENDBRANCH  25  28
ENDBRANCH  23  24
BRANCH  23  40
ATOM     40  CB  MET A  1       -1.433  -0.534   0.013  0.00  0.00    +0.034 C 
BRANCH  40  42
ATOM     41  CD1 MET A  1       -0.019   1.526   0.010  0.00  0.00    +0.007 C 
ATOM     42  CG  MET A  1        0.002  -0.004   0.002  0.00  0.00    -0.015 C 
ATOM     43  CD2 MET A  1        0.742  -0.511   1.242  0.00  0.00    +0.007 C 
ENDBRANCH  40  42
ENDBRANCH  23  40
ENDBRANCH   1  23
TORSDOF 16
