REMARK  Name = ZINC19418965
REMARK                            x       y       z     vdW  Elec       q    Type
REMARK                         _______ _______ _______ _____ _____    ______ ____
ROOT
ATOM      1  C   LIG    1       -0.016   1.362   0.009  0.00  0.00    +0.001 A 
ATOM      2  C   LIG    1        1.169   2.083   0.002  0.00  0.00    +0.002 A 
ATOM      3  C   LIG    1        2.385   1.435  -0.014  0.00  0.00    +0.026 A 
ATOM      4  C   LIG    1        2.428   0.045  -0.022  0.00  0.00    +0.047 A 
ATOM      5  C   LIG    1        1.222  -0.683  -0.014  0.00  0.00    +0.003 A 
ATOM      6  C   LIG    1        1.609  -2.088  -0.026  0.00  0.00    -0.017 A 
ATOM      7  C   LIG    1        2.957  -2.137  -0.040  0.00  0.00    +0.034 A 
ATOM      8  C   LIG    1        3.732  -3.434  -0.052  0.00  0.00    +0.134 C 
ATOM      9  N   LIG    1        2.825  -4.521   0.354  0.00  0.00    -0.310 NA
ATOM     10  H   LIG    1        3.286  -5.417   0.295  0.00  0.00    +0.122 HD
ATOM     11  C   LIG    1        1.587  -4.513  -0.438  0.00  0.00    +0.086 C 
ATOM     12  C   LIG    1        0.726  -3.310  -0.027  0.00  0.00    +0.052 C 
ATOM     13  N   LIG    1        3.460  -0.869  -0.038  0.00  0.00    -0.357 N 
ATOM     14  H   LIG    1        4.403  -0.644  -0.046  0.00  0.00    +0.166 HD
ATOM     15  C   LIG    1        0.002  -0.004   0.002  0.00  0.00    +0.010 A 
ENDROOT
TORSDOF 0
