REMARK  Name = ZINC13858385
REMARK                            x       y       z     vdW  Elec       q    Type
REMARK                         _______ _______ _______ _____ _____    ______ ____
ROOT
ATOM      1  C   LIG    1        1.381  -4.790  -0.148  0.00  0.00    +0.103 A 
ATOM      2  C   LIG    1        1.407  -6.178  -0.267  0.00  0.00    +0.020 A 
ATOM      3  C   LIG    1        2.638  -6.823  -0.386  0.00  0.00    +0.019 A 
ATOM      4  C   LIG    1        3.788  -6.102  -0.384  0.00  0.00    +0.089 A 
ATOM      5  N   LIG    1        3.771  -4.753  -0.269  0.00  0.00    -0.310 N 
ATOM      6  C   LIG    1        2.610  -4.080  -0.157  0.00  0.00    +0.264 A 
ATOM      7  O   LIG    1        2.614  -2.865  -0.060  0.00  0.00    -0.267 OA
ENDROOT
BRANCH   1  10
ATOM      8  N   LIG    1        0.084  -2.725  -0.024  0.00  0.00    -0.231 N 
ATOM      9  H   LIG    1        0.916  -2.228  -0.035  0.00  0.00    +0.173 HD
ATOM     10  C   LIG    1        0.103  -4.073  -0.021  0.00  0.00    +0.265 C 
ATOM     11  O   LIG    1       -0.936  -4.696   0.087  0.00  0.00    -0.268 OA
BRANCH   8  12
ATOM     12  N   LIG    1       -1.140  -2.043  -0.011  0.00  0.00    -0.246 N 
ATOM     13  H   LIG    1       -1.973  -2.540  -0.000  0.00  0.00    +0.172 HD
BRANCH  12  14
ATOM     14  C   LIG    1       -1.160  -0.695  -0.015  0.00  0.00    +0.147 C 
ATOM     15  S   LIG    1       -2.655   0.139   0.001  0.00  0.00    -0.017 S 
BRANCH  14  17
ATOM     16  C   LIG    1       -0.024   1.461  -0.034  0.00  0.00    +0.127 C 
ATOM     17  N   LIG    1       -0.003  -0.004  -0.030  0.00  0.00    -0.329 N 
ATOM     18  H   LIG    1        0.844  -0.477  -0.039  0.00  0.00    +0.147 HD
ENDBRANCH  14  17
ENDBRANCH  12  14
ENDBRANCH   8  12
ENDBRANCH   1  10
BRANCH   5  19
ATOM     19  C   LIG    1        5.035  -4.013  -0.271  0.00  0.00    +0.160 C 
BRANCH  19  20
ATOM     20  C   LIG    1        5.396  -3.640  -1.686  0.00  0.00    -0.026 A 
ATOM     21  C   LIG    1        6.158  -4.499  -2.455  0.00  0.00    +0.005 A 
ATOM     22  C   LIG    1        6.489  -4.157  -3.753  0.00  0.00    +0.002 A 
ATOM     23  C   LIG    1        6.058  -2.955  -4.282  0.00  0.00    +0.020 A 
ATOM     24  C   LIG    1        5.296  -2.095  -3.513  0.00  0.00    +0.041 A 
ATOM     25 CL   LIG    1        4.755  -0.585  -4.178  0.00  0.00    -0.084 Cl
ATOM     26  C   LIG    1        4.960  -2.440  -2.216  0.00  0.00    +0.025 A 
ENDBRANCH  19  20
ENDBRANCH   5  19
TORSDOF 6
