REMARK  Name = ZINC28455803
REMARK                            x       y       z     vdW  Elec       q    Type
REMARK                         _______ _______ _______ _____ _____    ______ ____
ROOT
ATOM      1  C   LIG    1       -0.025  -4.288   2.552  0.00  0.00    +0.195 A 
ATOM      2  N   LIG    1       -0.334  -5.399   3.292  0.00  0.00    -0.334 N 
ATOM      3  C   LIG    1        0.747  -5.657   4.104  0.00  0.00    +0.068 A 
ATOM      4  C   LIG    1        1.030  -6.628   5.057  0.00  0.00    +0.047 A 
ATOM      5  C   LIG    1        2.241  -6.608   5.714  0.00  0.00    +0.043 A 
ATOM      6 CL   LIG    1        2.595  -7.821   6.905  0.00  0.00    -0.083 Cl
ATOM      7  C   LIG    1        3.182  -5.624   5.429  0.00  0.00    +0.022 A 
ATOM      8  C   LIG    1        2.925  -4.662   4.498  0.00  0.00    +0.031 A 
ATOM      9  C   LIG    1        1.700  -4.660   3.816  0.00  0.00    +0.090 A 
ATOM     10  H   LIG    1       -1.158  -5.909   3.252  0.00  0.00    +0.168 HD
ATOM     11  N   LIG    1        1.174  -3.867   2.866  0.00  0.00    -0.224 NA
ENDROOT
BRANCH   1  17
ATOM     12  C   LIG    1       -0.745   1.698   0.716  0.00  0.00    +0.105 C 
ATOM     13  N   LIG    1       -0.474   0.264   0.547  0.00  0.00    -0.302 NA
ATOM     14  C   LIG    1       -1.704  -0.470   0.221  0.00  0.00    +0.103 C 
ATOM     15  C   LIG    1       -1.353  -1.921  -0.123  0.00  0.00    +0.123 C 
ATOM     16  N   LIG    1       -0.567  -2.487   0.983  0.00  0.00    -0.293 N 
ATOM     17  C   LIG    1       -0.911  -3.662   1.546  0.00  0.00    +0.282 C 
ATOM     18  O   LIG    1       -1.950  -4.208   1.228  0.00  0.00    -0.267 OA
ATOM     19  C   LIG    1        0.606  -1.737   1.458  0.00  0.00    +0.123 C 
ATOM     20  C   LIG    1        0.178  -0.293   1.741  0.00  0.00    +0.103 C 
ENDBRANCH   1  17
TORSDOF 1
