REMARK  Name = ZINC66124461
REMARK                            x       y       z     vdW  Elec       q    Type
REMARK                         _______ _______ _______ _____ _____    ______ ____
ROOT
ATOM      1  C   LIG    1       -0.017   1.375   0.010  0.00  0.00    +0.002 A 
ATOM      2  C   LIG    1        1.170   2.094   0.002  0.00  0.00    +0.002 A 
ATOM      3  C   LIG    1        2.382   1.443  -0.013  0.00  0.00    +0.030 A 
ATOM      4  C   LIG    1        2.419   0.045  -0.021  0.00  0.00    +0.091 A 
ATOM      5  C   LIG    1        1.215  -0.678  -0.013  0.00  0.00    +0.068 A 
ATOM      6  N   LIG    1        1.570  -2.015  -0.024  0.00  0.00    -0.322 N 
ATOM      7  C   LIG    1        2.933  -2.071  -0.037  0.00  0.00    +0.230 A 
ATOM      8  H   LIG    1        0.963  -2.771  -0.022  0.00  0.00    +0.169 HD
ATOM      9  N   LIG    1        3.429  -0.862  -0.036  0.00  0.00    -0.211 NA
ATOM     10  C   LIG    1        0.002  -0.004   0.002  0.00  0.00    +0.028 A 
ENDROOT
BRANCH   7  11
ATOM     11  N   LIG    1        3.683  -3.242  -0.051  0.00  0.00    -0.206 N 
ATOM     12  C   LIG    1        5.028  -3.314  -0.059  0.00  0.00    +0.132 A 
ATOM     13  C   LIG    1        5.368  -4.654  -0.071  0.00  0.00    +0.097 A 
ATOM     14  C   LIG    1        4.159  -5.391  -0.070  0.00  0.00    +0.149 A 
ATOM     15  N   LIG    1        3.169  -4.543  -0.052  0.00  0.00    -0.171 NA
BRANCH  13  16
ATOM     16  C   LIG    1        6.729  -5.209  -0.084  0.00  0.00    +0.340 C 
ATOM     17  O   LIG    1        7.696  -4.459  -0.085  0.00  0.00    -0.245 OA
BRANCH  16  18
ATOM     18  O   LIG    1        6.895  -6.422  -0.094  0.00  0.00    -0.477 OA
ATOM     19  H   LIG    1        6.155  -6.996  -0.094  0.00  0.00    +0.295 HD
ENDBRANCH  16  18
ENDBRANCH  13  16
ENDBRANCH   7  11
TORSDOF 3
