REMARK  Name = ZINC13911229
REMARK                            x       y       z     vdW  Elec       q    Type
REMARK                         _______ _______ _______ _____ _____    ______ ____
ROOT
ATOM      1  C   LIG    1       -0.018   1.478   0.010  0.00  0.00    +0.181 C 
ATOM      2  C   LIG    1        1.440   1.884  -0.002  0.00  0.00    +0.253 C 
ATOM      3  N   LIG    1        2.176   0.821  -0.383  0.00  0.00    -0.168 N 
ATOM      4  C   LIG    1        1.292  -0.320  -0.652  0.00  0.00    +0.223 C 
ATOM      5  O   LIG    1        1.873   2.980   0.284  0.00  0.00    -0.272 OA
ATOM      6  N   LIG    1        0.002  -0.004   0.002  0.00  0.00    -0.291 NA
ATOM      7  H   LIG    1       -0.027  -0.371   0.941  0.00  0.00    +0.124 HD
ENDROOT
BRANCH   3   8
ATOM      8  O   LIG    1        3.587   0.807  -0.506  0.00  0.00    -0.291 OA
ATOM      9  H   LIG    1        4.009   1.649  -0.289  0.00  0.00    +0.242 HD
ENDBRANCH   3   8
TORSDOF 1
