REMARK  Name = ZINC13902723
REMARK                            x       y       z     vdW  Elec       q    Type
REMARK                         _______ _______ _______ _____ _____    ______ ____
ROOT
ATOM      1  C   LIG    1        0.007   1.379   0.068  0.00  0.00    +0.001 A 
ATOM      2  C   LIG    1        1.171   2.084  -0.193  0.00  0.00    +0.002 A 
ATOM      3  C   LIG    1        2.356   1.419  -0.436  0.00  0.00    +0.024 A 
ATOM      4  C   LIG    1        2.393   0.029  -0.422  0.00  0.00    +0.043 A 
ATOM      5  C   LIG    1        1.213  -0.680  -0.157  0.00  0.00    +0.027 A 
ATOM      6  C   LIG    1        1.567  -2.115  -0.209  0.00  0.00    +0.135 C 
ATOM      7  C   LIG    1        3.018  -2.141  -0.519  0.00  0.00    +0.267 C 
ATOM      8  O   LIG    1        3.706  -3.135  -0.651  0.00  0.00    -0.268 OA
ATOM      9  N   LIG    1        0.771  -3.141  -0.022  0.00  0.00    -0.240 NA
ATOM     10  N   LIG    1        3.436  -0.868  -0.630  0.00  0.00    -0.280 N 
ATOM     11  H   LIG    1        4.348  -0.608  -0.830  0.00  0.00    +0.155 HD
ATOM     12  C   LIG    1        0.023  -0.001   0.087  0.00  0.00    +0.012 A 
ENDROOT
BRANCH   9  13
ATOM     13  C   LIG    1       -0.569  -2.950   0.094  0.00  0.00    +0.084 A 
ATOM     14  C   LIG    1       -1.275  -2.280  -0.914  0.00  0.00    +0.029 A 
ATOM     15  C   LIG    1       -2.634  -2.090  -0.790  0.00  0.00    +0.004 A 
ATOM     16  C   LIG    1       -3.304  -2.558   0.328  0.00  0.00    +0.021 A 
ATOM     17  C   LIG    1       -2.616  -3.222   1.331  0.00  0.00    +0.061 A 
ATOM     18 CL   LIG    1       -3.469  -3.804   2.727  0.00  0.00    -0.082 Cl
ATOM     19  C   LIG    1       -1.255  -3.426   1.220  0.00  0.00    +0.085 A 
ATOM     20 CL   LIG    1       -0.395  -4.265   2.474  0.00  0.00    -0.080 Cl
ENDBRANCH   9  13
TORSDOF 1
