REMARK  Name = ZINC00068750
REMARK                            x       y       z     vdW  Elec       q    Type
REMARK                         _______ _______ _______ _____ _____    ______ ____
ROOT
ATOM      1  C   LIG    1        0.037   0.023  -0.529  0.00  0.00    +0.232 C 
ATOM      2  N   LIG    1        0.009   1.292  -0.225  0.00  0.00    -0.205 NA
ATOM      3  C   LIG    1        1.279   1.786  -0.257  0.00  0.00    +0.152 C 
ATOM      4  C   LIG    1        2.136   0.643  -0.630  0.00  0.00    +0.364 C 
ATOM      5  O   LIG    1        3.344   0.640  -0.773  0.00  0.00    -0.243 OA
ATOM      6  C   LIG    1        1.678   3.079   0.002  0.00  0.00    +0.043 C 
ATOM      7  O   LIG    1        1.291  -0.400  -0.778  0.00  0.00    -0.402 OA
ENDROOT
BRANCH   1  11
ATOM      8  C   LIG    1       -3.401  -2.462  -0.713  0.00  0.00    +0.000 A 
ATOM      9  C   LIG    1       -2.153  -2.992  -0.987  0.00  0.00    +0.001 A 
ATOM     10  C   LIG    1       -1.032  -2.191  -0.929  0.00  0.00    +0.013 A 
ATOM     11  C   LIG    1       -1.159  -0.841  -0.593  0.00  0.00    +0.037 A 
ATOM     12  C   LIG    1       -2.421  -0.314  -0.313  0.00  0.00    +0.013 A 
ATOM     13  C   LIG    1       -3.534  -1.125  -0.380  0.00  0.00    +0.001 A 
ENDBRANCH   1  11
BRANCH   6  14
ATOM     14  C   LIG    1        3.105   3.400   0.100  0.00  0.00    -0.023 A 
ATOM     15  C   LIG    1        3.988   2.494   0.704  0.00  0.00    +0.009 A 
ATOM     16  C   LIG    1        5.318   2.792   0.790  0.00  0.00    +0.019 A 
ATOM     17  C   LIG    1        5.797   4.005   0.286  0.00  0.00    +0.052 A 
ATOM     18  C   LIG    1        4.917   4.913  -0.311  0.00  0.00    +0.019 A 
ATOM     19  C   LIG    1        3.588   4.616  -0.404  0.00  0.00    +0.009 A 
BRANCH  17  20
ATOM     20  C   LIG    1        7.191   4.319   0.382  0.00  0.00    +0.099 C 
ATOM     21  N   LIG    1        8.297   4.567   0.459  0.00  0.00    -0.191 NA
ENDBRANCH  17  20
ENDBRANCH   6  14
TORSDOF 3
