REMARK  Name = ZINC19132424
REMARK                            x       y       z     vdW  Elec       q    Type
REMARK                         _______ _______ _______ _____ _____    ______ ____
ROOT
ATOM      1  C   LIG    1        0.230   1.023   0.138  0.00  0.00    +0.035 C 
ATOM      2  C   LIG    1       -0.019  -0.460   0.037  0.00  0.00    -0.023 C 
ATOM      3  C   LIG    1       -1.269  -0.925  -0.011  0.00  0.00    -0.003 C 
ATOM      4  C   LIG    1       -1.684  -2.342  -0.103  0.00  0.00    +0.160 C 
ATOM      5  C   LIG    1       -3.209  -2.373  -0.216  0.00  0.00    +0.084 C 
ATOM      6  C   LIG    1       -3.529  -0.987  -0.789  0.00  0.00    +0.010 C 
ATOM      7  C   LIG    1       -4.923  -0.458  -0.507  0.00  0.00    -0.002 C 
ATOM      8  C   LIG    1       -5.959  -1.319  -1.237  0.00  0.00    +0.008 C 
ATOM      9  C   LIG    1       -7.363  -0.816  -0.892  0.00  0.00    +0.032 C 
ATOM     10  C   LIG    1       -7.450   0.662  -1.227  0.00  0.00    -0.060 C 
ATOM     11  C   LIG    1       -8.500   1.076  -1.935  0.00  0.00    +0.046 C 
ATOM     12  C   LIG    1       -8.643   2.497  -2.274  0.00  0.00    +0.156 C 
ATOM     13  C   LIG    1       -7.883   3.478  -1.404  0.00  0.00    +0.080 C 
ATOM     14  C   LIG    1       -6.441   2.982  -1.308  0.00  0.00    +0.019 C 
ATOM     15  O   LIG    1       -9.334   2.866  -3.200  0.00  0.00    -0.293 OA
ATOM     16  C   LIG    1       -6.359   1.590  -0.694  0.00  0.00    -0.007 C 
ATOM     17  C   LIG    1       -6.468   1.700   0.828  0.00  0.00    +0.016 C 
ATOM     18  C   LIG    1       -4.989   0.986  -1.028  0.00  0.00    +0.002 C 
ATOM     19  C   LIG    1       -3.895   1.871  -0.438  0.00  0.00    +0.005 C 
ATOM     20  C   LIG    1       -2.500   1.254  -0.624  0.00  0.00    +0.012 C 
ATOM     21  O   LIG    1       -0.947  -3.306  -0.091  0.00  0.00    -0.292 OA
ATOM     22  C   LIG    1       -2.529  -0.114   0.026  0.00  0.00    -0.001 C 
ATOM     23  C   LIG    1       -3.014   0.019   1.470  0.00  0.00    +0.016 C 
ENDROOT
TORSDOF 0
