REMARK  Name = ZINC21985310
REMARK                            x       y       z     vdW  Elec       q    Type
REMARK                         _______ _______ _______ _____ _____    ______ ____
ROOT
ATOM      1  N   LIG    1       -2.425   1.042   0.020  0.00  0.00    -0.283 N 
ATOM      2  H   LIG    1       -3.381   1.576   0.125  0.00  0.00    +0.155 HD
ENDROOT
BRANCH   1   9
ATOM      3  C   LIG    1       -2.355   3.582   1.295  0.00  0.00    +0.045 C 
ATOM      4  C   LIG    1       -1.145   3.002   0.609  0.00  0.00    -0.029 A 
ATOM      5  C   LIG    1        0.041   3.711   0.585  0.00  0.00    +0.007 A 
ATOM      6  C   LIG    1        1.152   3.183  -0.043  0.00  0.00    +0.023 A 
ATOM      7  C   LIG    1        1.081   1.935  -0.652  0.00  0.00    +0.026 A 
ATOM      8  C   LIG    1       -0.108   1.220  -0.628  0.00  0.00    +0.046 A 
ATOM      9  C   LIG    1       -1.224   1.756  -0.002  0.00  0.00    +0.038 A 
BRANCH   7  10
ATOM     10  N   LIG    1        2.205   1.402  -1.286  0.00  0.00    -0.358 N 
ATOM     11  H   LIG    1        3.147   1.969  -1.305  0.00  0.00    +0.142 HD
ATOM     12  H   LIG    1        2.148   0.414  -1.768  0.00  0.00    +0.142 HD
ENDBRANCH   7  10
ENDBRANCH   1   9
BRANCH   1  13
ATOM     13  C   LIG    1       -2.412  -0.339  -0.092  0.00  0.00    +0.220 A 
ATOM     14  N   LIG    1       -1.249  -0.975  -0.100  0.00  0.00    -0.223 NA
ATOM     15  C   LIG    1       -1.194  -2.293  -0.204  0.00  0.00    +0.116 A 
ATOM     16  C   LIG    1       -2.372  -3.014  -0.308  0.00  0.00    +0.048 A 
ATOM     17  C   LIG    1       -3.582  -2.316  -0.297  0.00  0.00    +0.077 A 
ATOM     18  N   LIG    1       -3.561  -0.990  -0.183  0.00  0.00    -0.214 NA
BRANCH  17  19
ATOM     19  C   LIG    1       -4.871  -3.042  -0.405  0.00  0.00    +0.019 A 
ATOM     20  C   LIG    1       -6.082  -2.345  -0.394  0.00  0.00    +0.013 A 
ATOM     21  C   LIG    1       -7.257  -3.068  -0.497  0.00  0.00    +0.020 A 
ATOM     22  C   LIG    1       -7.196  -4.446  -0.606  0.00  0.00    +0.111 A 
ATOM     23  N   LIG    1       -6.037  -5.077  -0.613  0.00  0.00    -0.263 NA
ATOM     24  C   LIG    1       -4.893  -4.430  -0.523  0.00  0.00    +0.120 A 
ENDBRANCH  17  19
ENDBRANCH   1  13
TORSDOF 4
