REMARK  Name = ZINC14276204
REMARK                            x       y       z     vdW  Elec       q    Type
REMARK                         _______ _______ _______ _____ _____    ______ ____
ROOT
ATOM      1  C   LIG    1       -0.038   2.014  -2.937  0.00  0.00    +0.000 C 
ENDROOT
BRANCH   1   2
ATOM      2  C   LIG    1       -0.836   2.345  -4.199  0.00  0.00    +0.000 C 
BRANCH   2   3
ATOM      3  C   LIG    1       -0.052   1.892  -5.432  0.00  0.00    +0.004 C 
BRANCH   3   4
ATOM      4  C   LIG    1       -0.851   2.223  -6.694  0.00  0.00    +0.027 C 
BRANCH   4   6
ATOM      5  C   LIG    1       -0.651   1.010  -8.804  0.00  0.00    -0.031 C 
ATOM      6  C   LIG    1       -0.078   1.777  -7.909  0.00  0.00    -0.031 C 
BRANCH   5   7
ATOM      7  C   LIG    1       -2.125   0.713  -8.710  0.00  0.00    +0.027 C 
BRANCH   7   8
ATOM      8  C   LIG    1       -2.803   1.068 -10.034  0.00  0.00    +0.004 C 
BRANCH   8   9
ATOM      9  C   LIG    1       -4.300   0.766  -9.938  0.00  0.00    +0.000 C 
BRANCH   9  10
ATOM     10  C   LIG    1       -4.978   1.121 -11.263  0.00  0.00    +0.000 C 
BRANCH  10  11
ATOM     11  C   LIG    1       -6.474   0.819 -11.167  0.00  0.00    -0.000 C 
BRANCH  11  12
ATOM     12  C   LIG    1       -7.153   1.174 -12.492  0.00  0.00    -0.000 C 
BRANCH  12  14
ATOM     13  C   LIG    1       -9.327   1.227 -13.720  0.00  0.00    +0.004 C 
ATOM     14  C   LIG    1       -8.649   0.872 -12.396  0.00  0.00    -0.003 C 
ENDBRANCH  12  14
ENDBRANCH  11  12
ENDBRANCH  10  11
ENDBRANCH   9  10
ENDBRANCH   8   9
ENDBRANCH   7   8
ENDBRANCH   5   7
ENDBRANCH   4   6
ENDBRANCH   3   4
ENDBRANCH   2   3
ENDBRANCH   1   2
BRANCH   1  15
ATOM     15  C   LIG    1       -0.822   2.467  -1.704  0.00  0.00    +0.005 C 
BRANCH  15  16
ATOM     16  C   LIG    1       -0.023   2.136  -0.441  0.00  0.00    +0.043 C 
BRANCH  16  17
ATOM     17  C   LIG    1       -0.796   2.582   0.773  0.00  0.00    +0.046 C 
ATOM     18  C   LIG    1       -1.580   1.710   1.428  0.00  0.00    +0.043 C 
ATOM     19  C   LIG    1       -1.582   0.255   1.034  0.00  0.00    +0.051 C 
BRANCH  18  20
ATOM     20  C   LIG    1       -2.439   2.176   2.534  0.00  0.00    +0.333 C 
ATOM     21  O   LIG    1       -2.519   3.362   2.782  0.00  0.00    -0.245 OA
BRANCH  20  22
ATOM     22  O   LIG    1       -3.135   1.286   3.268  0.00  0.00    -0.477 OA
ATOM     23  H   LIG    1       -3.073   0.371   3.076  0.00  0.00    +0.295 HD
ENDBRANCH  20  22
ENDBRANCH  18  20
BRANCH  17  24
ATOM     24  C   LIG    1       -0.690   3.977   1.243  0.00  0.00    +0.333 C 
ATOM     25  O   LIG    1       -1.277   4.862   0.654  0.00  0.00    -0.245 OA
BRANCH  24  26
ATOM     26  O   LIG    1        0.056   4.268   2.326  0.00  0.00    -0.477 OA
ATOM     27  H   LIG    1        0.509   3.585   2.781  0.00  0.00    +0.295 HD
ENDBRANCH  24  26
ENDBRANCH  17  24
ENDBRANCH  16  17
ENDBRANCH  15  16
ENDBRANCH   1  15
TORSDOF 18
