REMARK  Name = ZINC13829435
REMARK                            x       y       z     vdW  Elec       q    Type
REMARK                         _______ _______ _______ _____ _____    ______ ____
ROOT
ATOM      1  C   LIG    1        0.044   1.058   0.048  0.00  0.00    +0.012 A 
ATOM      2  C   LIG    1        1.188   1.827   0.006  0.00  0.00    +0.046 A 
ATOM      3  C   LIG    1        2.436   1.218   0.026  0.00  0.00    +0.120 A 
ATOM      4  C   LIG    1        2.536  -0.165   0.090  0.00  0.00    +0.046 A 
ATOM      5  C   LIG    1        1.395  -0.939   0.132  0.00  0.00    +0.012 A 
ATOM      6  C   LIG    1        0.141  -0.331   0.111  0.00  0.00    -0.015 A 
ENDROOT
BRANCH   6   7
ATOM      7  C   LIG    1       -1.088  -1.161   0.157  0.00  0.00    +0.018 A 
ATOM      8  C   LIG    1       -1.965  -1.081   1.260  0.00  0.00    +0.123 A 
ATOM      9  N   LIG    1       -3.049  -1.818   1.293  0.00  0.00    -0.235 NA
ATOM     10  C   LIG    1       -3.345  -2.653   0.292  0.00  0.00    +0.163 A 
ATOM     11  C   LIG    1       -4.416  -3.533   0.082  0.00  0.00    +0.046 A 
ATOM     12  C   LIG    1       -4.201  -4.159  -1.152  0.00  0.00    +0.145 A 
ATOM     13  N   LIG    1       -3.086  -3.704  -1.669  0.00  0.00    -0.173 NA
ATOM     14  N   LIG    1       -2.523  -2.764  -0.798  0.00  0.00    -0.221 N 
ATOM     15  C   LIG    1       -1.389  -2.010  -0.872  0.00  0.00    +0.124 A 
BRANCH  11  16
ATOM     16  C   LIG    1       -5.559  -3.760   0.994  0.00  0.00    -0.010 A 
ATOM     17  C   LIG    1       -5.353  -4.019   2.354  0.00  0.00    +0.028 A 
ATOM     18  C   LIG    1       -6.446  -4.224   3.168  0.00  0.00    +0.111 A 
ATOM     19  N   LIG    1       -7.672  -4.179   2.680  0.00  0.00    -0.263 NA
ATOM     20  C   LIG    1       -7.910  -3.937   1.405  0.00  0.00    +0.111 A 
ATOM     21  C   LIG    1       -6.876  -3.714   0.521  0.00  0.00    +0.028 A 
ENDBRANCH  11  16
ENDBRANCH   6   7
BRANCH   3  22
ATOM     22  O   LIG    1        3.561   1.979  -0.016  0.00  0.00    -0.494 OA
BRANCH  22  23
ATOM     23  C   LIG    1        4.812   1.288   0.009  0.00  0.00    +0.210 C 
BRANCH  23  24
ATOM     24  C   LIG    1        5.956   2.302  -0.045  0.00  0.00    -0.037 C 
BRANCH  24  25
ATOM     25  N   LIG    1        5.922   3.143   1.159  0.00  0.00    +0.382 N 
ATOM     26  H   LIG    1        5.005   3.551   1.257  0.00  0.00    -0.082 HD
ATOM     27  C   LIG    1        6.919   4.213   1.035  0.00  0.00    -0.079 C 
ATOM     28  C   LIG    1        6.833   5.139   2.249  0.00  0.00    -0.019 C 
ATOM     29  C   LIG    1        7.105   4.331   3.521  0.00  0.00    -0.004 C 
ATOM     30  C   LIG    1        6.106   3.173   3.602  0.00  0.00    -0.019 C 
ATOM     31  C   LIG    1        6.220   2.320   2.337  0.00  0.00    -0.079 C 
ENDBRANCH  24  25
ENDBRANCH  23  24
ENDBRANCH  22  23
ENDBRANCH   3  22
TORSDOF 6
