REMARK  Name = ZINC36382102
REMARK                            x       y       z     vdW  Elec       q    Type
REMARK                         _______ _______ _______ _____ _____    ______ ____
ROOT
ATOM      1  C   LIG    1        2.767  -2.864   0.502  0.00  0.00    +0.198 C 
ATOM      2  N   LIG    1        3.485  -3.495  -0.407  0.00  0.00    -0.286 NA
ATOM      3  H   LIG    1        3.077  -3.754  -1.248  0.00  0.00    +0.125 HD
ATOM      4  C   LIG    1        4.776  -3.781  -0.176  0.00  0.00    +0.065 C 
ATOM      5  C   LIG    1        5.564  -4.450  -1.121  0.00  0.00    +0.053 C 
ATOM      6  C   LIG    1        6.884  -4.719  -0.835  0.00  0.00    +0.148 C 
ATOM      7  C   LIG    1        7.444  -4.332   0.390  0.00  0.00    +0.147 C 
ATOM      8  C   LIG    1        6.694  -3.679   1.326  0.00  0.00    +0.042 C 
ATOM      9  C   LIG    1        5.349  -3.392   1.060  0.00  0.00    +0.040 C 
ATOM     10  C   LIG    1        4.530  -2.717   1.997  0.00  0.00    +0.129 C 
ATOM     11  N   LIG    1        3.268  -2.476   1.671  0.00  0.00    -0.273 NA
ATOM     12  H   LIG    1        2.696  -2.919   2.391  0.00  0.00    +0.126 HD
ENDROOT
BRANCH   1  19
ATOM     13  C   LIG    1       -1.409  -5.742  -0.499  0.00  0.00    -0.096 C 
ATOM     14  N   LIG    1       -0.837  -4.397  -0.351  0.00  0.00    +0.379 N 
ATOM     15  H   LIG    1       -1.492  -3.731  -0.732  0.00  0.00    -0.082 HD
ATOM     16  C   LIG    1       -0.676  -4.119   1.074  0.00  0.00    -0.078 C 
ATOM     17  C   LIG    1       -0.799  -2.629   1.308  0.00  0.00    -0.003 C 
ATOM     18  C   LIG    1        0.601  -1.989   1.283  0.00  0.00    +0.085 C 
ATOM     19  N   LIG    1        1.440  -2.588   0.225  0.00  0.00    -0.277 NA
ATOM     20  C   LIG    1        0.922  -2.897  -1.092  0.00  0.00    +0.068 C 
ATOM     21  C   LIG    1        0.354  -4.334  -1.109  0.00  0.00    -0.064 C 
ENDBRANCH   1  19
BRANCH   6  22
ATOM     22  O   LIG    1        7.651  -5.368  -1.749  0.00  0.00    -0.377 OA
ATOM     23  C   LIG    1        7.021  -5.737  -2.978  0.00  0.00    +0.194 C 
ENDBRANCH   6  22
BRANCH   7  24
ATOM     24  O   LIG    1        8.750  -4.610   0.650  0.00  0.00    -0.377 OA
ATOM     25  C   LIG    1        9.264  -4.190   1.916  0.00  0.00    +0.194 C 
ENDBRANCH   7  24
BRANCH  10  26
ATOM     26  N   LIG    1        5.035  -2.314   3.216  0.00  0.00    -0.298 NA
ATOM     27  H   LIG    1        5.961  -2.493   3.440  0.00  0.00    +0.124 HD
BRANCH  26  28
ATOM     28  C   LIG    1        4.171  -1.617   4.172  0.00  0.00    +0.052 C 
ATOM     29  C   LIG    1        3.398  -2.642   5.006  0.00  0.00    -0.000 C 
ATOM     30  C   LIG    1        2.559  -1.909   6.055  0.00  0.00    -0.077 C 
ATOM     31  N   LIG    1        3.439  -1.127   6.931  0.00  0.00    +0.382 N 
ATOM     32  H   LIG    1        4.121  -1.738   7.355  0.00  0.00    -0.081 HD
ATOM     33  C   LIG    1        4.130  -0.094   6.149  0.00  0.00    -0.077 C 
ATOM     34  C   LIG    1        5.029  -0.757   5.104  0.00  0.00    -0.000 C 
BRANCH  31  35
ATOM     35  C   LIG    1        2.638  -0.487   7.984  0.00  0.00    -0.043 C 
BRANCH  35  36
ATOM     36  C   LIG    1        3.551   0.215   8.954  0.00  0.00    -0.064 A 
ATOM     37  C   LIG    1        4.043  -0.462  10.054  0.00  0.00    +0.002 A 
ATOM     38  C   LIG    1        4.881   0.183  10.945  0.00  0.00    +0.000 A 
ATOM     39  C   LIG    1        5.228   1.504  10.735  0.00  0.00    +0.000 A 
ATOM     40  C   LIG    1        4.737   2.181   9.634  0.00  0.00    +0.000 A 
ATOM     41  C   LIG    1        3.902   1.535   8.741  0.00  0.00    +0.002 A 
ENDBRANCH  35  36
ENDBRANCH  31  35
ENDBRANCH  26  28
ENDBRANCH  10  26
TORSDOF 7
