REMARK  Name = ZINC29038900
REMARK                            x       y       z     vdW  Elec       q    Type
REMARK                         _______ _______ _______ _____ _____    ______ ____
ROOT
ATOM      1  N   LIG    1       -2.510   2.803   5.192  0.00  0.00    -0.269 N 
ATOM      2  H   LIG    1       -3.366   2.204   5.538  0.00  0.00    +0.156 HD
ATOM      3  C   LIG    1       -2.176   3.937   5.838  0.00  0.00    +0.308 C 
ATOM      4  N   LIG    1       -2.823   4.285   6.968  0.00  0.00    -0.269 N 
ATOM      5  H   LIG    1       -3.564   3.603   7.410  0.00  0.00    +0.156 HD
ATOM      6  O   LIG    1       -1.291   4.647   5.401  0.00  0.00    -0.252 OA
ENDROOT
BRANCH   4   7
ATOM      7  C   LIG    1       -2.552   5.516   7.579  0.00  0.00    +0.035 A 
ATOM      8  C   LIG    1       -2.622   5.636   8.961  0.00  0.00    +0.026 A 
ATOM      9  C   LIG    1       -2.348   6.849   9.562  0.00  0.00    +0.040 A 
ATOM     10  C   LIG    1       -2.017   7.948   8.787  0.00  0.00    +0.124 A 
ATOM     11  F   LIG    1       -1.756   9.135   9.377  0.00  0.00    -0.205 F 
ATOM     12  C   LIG    1       -1.953   7.832   7.409  0.00  0.00    +0.040 A 
ATOM     13  C   LIG    1       -2.220   6.619   6.804  0.00  0.00    +0.026 A 
ENDBRANCH   4   7
BRANCH   1  17
ATOM     14  C   LIG    1       -0.301   1.561   1.885  0.00  0.00    +0.088 A 
ATOM     15  C   LIG    1       -1.660   1.308   1.942  0.00  0.00    +0.029 A 
ATOM     16  C   LIG    1       -2.394   1.713   3.040  0.00  0.00    +0.025 A 
ATOM     17  C   LIG    1       -1.768   2.385   4.082  0.00  0.00    +0.035 A 
ATOM     18  C   LIG    1       -0.405   2.642   4.019  0.00  0.00    +0.025 A 
ATOM     19  C   LIG    1        0.324   2.229   2.921  0.00  0.00    +0.029 A 
BRANCH  14  21
ATOM     20  C   LIG    1        1.205  -0.633   0.907  0.00  0.00    +0.200 C 
ATOM     21  S   LIG    1        0.632   1.036   0.486  0.00  0.00    -0.006 S 
ATOM     22  O   LIG    1       -0.309   0.977  -0.577  0.00  0.00    -0.170 OA
ATOM     23  O   LIG    1        1.734   1.932   0.429  0.00  0.00    -0.170 OA
ENDBRANCH  14  21
ENDBRANCH   1  17
TORSDOF 3
