REMARK  Name = ZINC27079783
REMARK                            x       y       z     vdW  Elec       q    Type
REMARK                         _______ _______ _______ _____ _____    ______ ____
ROOT
ATOM      1  C   LIG    1       -0.179  -5.294   4.117  0.00  0.00    -0.030 A 
ATOM      2  C   LIG    1       -0.906  -4.235   4.630  0.00  0.00    +0.006 A 
ATOM      3  C   LIG    1       -2.230  -4.409   4.978  0.00  0.00    +0.009 A 
ATOM      4  C   LIG    1       -2.835  -5.654   4.811  0.00  0.00    -0.017 A 
ATOM      5  C   LIG    1       -2.096  -6.717   4.293  0.00  0.00    +0.009 A 
ATOM      6  C   LIG    1       -0.774  -6.530   3.944  0.00  0.00    +0.006 A 
ENDROOT
BRANCH   4   7
ATOM      7  C   LIG    1       -4.256  -5.847   5.183  0.00  0.00    -0.007 A 
ATOM      8  C   LIG    1       -4.697  -5.516   6.462  0.00  0.00    +0.009 A 
ATOM      9  C   LIG    1       -6.021  -5.697   6.804  0.00  0.00    +0.001 A 
ATOM     10  C   LIG    1       -6.920  -6.207   5.882  0.00  0.00    +0.001 A 
ATOM     11  C   LIG    1       -6.502  -6.541   4.610  0.00  0.00    +0.012 A 
ATOM     12  C   LIG    1       -5.169  -6.359   4.245  0.00  0.00    +0.028 A 
BRANCH  12  13
ATOM     13  C   LIG    1       -4.716  -6.710   2.882  0.00  0.00    +0.180 A 
ATOM     14  N   LIG    1       -3.492  -6.540   2.378  0.00  0.00    -0.239 N 
ATOM     15  H   LIG    1       -2.718  -6.154   2.848  0.00  0.00    +0.192 HD
ATOM     16  N   LIG    1       -3.509  -6.974   1.165  0.00  0.00    -0.046 NA
ATOM     17  N   LIG    1       -4.690  -7.400   0.882  0.00  0.00    -0.023 NA
ATOM     18  N   LIG    1       -5.453  -7.253   1.911  0.00  0.00    -0.108 NA
ENDBRANCH  12  13
ENDBRANCH   4   7
BRANCH   1  19
ATOM     19  C   LIG    1        1.267  -5.098   3.739  0.00  0.00    +0.143 C 
BRANCH  19  21
ATOM     20  C   LIG    1        1.567  -2.684   3.893  0.00  0.00    +0.217 C 
ATOM     21  N   LIG    1        1.436  -3.781   3.120  0.00  0.00    -0.283 N 
ATOM     22  O   LIG    1        1.612  -2.795   5.100  0.00  0.00    -0.276 OA
BRANCH  20  23
ATOM     23  C   LIG    1        1.659  -1.321   3.258  0.00  0.00    +0.096 C 
BRANCH  23  24
ATOM     24  C   LIG    1        1.669  -0.249   4.349  0.00  0.00    +0.009 C 
BRANCH  24  26
ATOM     25  C   LIG    1        1.772   2.207   4.796  0.00  0.00    +0.004 C 
ATOM     26  C   LIG    1        1.761   1.135   3.704  0.00  0.00    -0.003 C 
ENDBRANCH  24  26
ENDBRANCH  23  24
ENDBRANCH  20  23
BRANCH  21  27
ATOM     27  C   LIG    1        1.462  -3.655   1.661  0.00  0.00    +0.187 C 
BRANCH  27  28
ATOM     28  C   LIG    1        2.754  -4.270   1.119  0.00  0.00    +0.014 C 
ATOM     29  C   LIG    1        2.805  -5.755   1.486  0.00  0.00    +0.009 C 
ATOM     30  C   LIG    1        3.957  -3.551   1.732  0.00  0.00    +0.009 C 
ENDBRANCH  27  28
BRANCH  27  31
ATOM     31  C   LIG    1        0.277  -4.378   1.073  0.00  0.00    +0.328 C 
ATOM     32  O   LIG    1       -0.418  -5.072   1.778  0.00  0.00    -0.249 OA
BRANCH  31  33
ATOM     33  O   LIG    1       -0.007  -4.250  -0.232  0.00  0.00    -0.467 OA
ATOM     34  C   LIG    1       -1.219  -4.851  -0.694  0.00  0.00    +0.280 C 
ENDBRANCH  31  33
ENDBRANCH  27  31
ENDBRANCH  21  27
ENDBRANCH  19  21
ENDBRANCH   1  19
TORSDOF 11
