REMARK  Name = ZINC72105034
REMARK                            x       y       z     vdW  Elec       q    Type
REMARK                         _______ _______ _______ _____ _____    ______ ____
ROOT
ATOM      1  C   LIG    1       -4.743  -7.081   4.611  0.00  0.00    +0.128 A 
ATOM      2  C   LIG    1       -4.564  -7.511   3.299  0.00  0.00    +0.088 A 
ATOM      3  C   LIG    1       -4.656  -8.873   3.034  0.00  0.00    +0.133 A 
ATOM      4  N   LIG    1       -4.910  -9.710   4.037  0.00  0.00    -0.220 NA
ATOM      5  C   LIG    1       -5.074  -9.265   5.266  0.00  0.00    +0.225 A 
ATOM      6  N   LIG    1       -4.989  -7.983   5.559  0.00  0.00    -0.221 NA
ENDROOT
BRANCH   3   7
ATOM      7  N   LIG    1       -4.486  -9.353   1.740  0.00  0.00    -0.243 N 
ATOM      8  C   LIG    1       -4.676 -10.661   1.476  0.00  0.00    +0.312 C 
ATOM      9  N   LIG    1       -4.511 -11.126   0.222  0.00  0.00    -0.266 N 
ATOM     10  H   LIG    1       -4.336 -10.508  -0.505  0.00  0.00    +0.156 HD
ATOM     11  O   LIG    1       -4.997 -11.421   2.369  0.00  0.00    -0.252 OA
ATOM     12  C   LIG    1       -4.099  -8.437   0.664  0.00  0.00    +0.141 C 
BRANCH   9  13
ATOM     13  C   LIG    1       -4.593 -12.501  -0.032  0.00  0.00    +0.079 A 
ATOM     14  C   LIG    1       -3.563 -13.146  -0.704  0.00  0.00    +0.105 A 
ATOM     15 CL   LIG    1       -2.174 -12.249  -1.230  0.00  0.00    -0.078 Cl
ATOM     16  C   LIG    1       -3.646 -14.508  -0.954  0.00  0.00    +0.144 A 
ATOM     17  C   LIG    1       -4.756 -15.225  -0.534  0.00  0.00    +0.094 A 
ATOM     18  C   LIG    1       -5.785 -14.581   0.137  0.00  0.00    +0.144 A 
ATOM     19  C   LIG    1       -5.702 -13.220   0.394  0.00  0.00    +0.105 A 
ATOM     20 CL   LIG    1       -6.987 -12.417   1.240  0.00  0.00    -0.078 Cl
BRANCH  16  21
ATOM     21  O   LIG    1       -2.638 -15.140  -1.612  0.00  0.00    -0.493 OA
ATOM     22  C   LIG    1       -2.789 -16.543  -1.835  0.00  0.00    +0.277 C 
ENDBRANCH  16  21
BRANCH  18  23
ATOM     23  O   LIG    1       -6.873 -15.285   0.548  0.00  0.00    -0.493 OA
ATOM     24  C   LIG    1       -6.889 -16.683   0.255  0.00  0.00    +0.277 C 
ENDBRANCH  18  23
ENDBRANCH   9  13
ENDBRANCH   3   7
BRANCH   1  25
ATOM     25  N   LIG    1       -4.661  -5.733   4.927  0.00  0.00    -0.299 N 
ATOM     26  H   LIG    1       -4.563  -5.074   4.222  0.00  0.00    +0.154 HD
BRANCH  25  30
ATOM     27  C   LIG    1       -4.834  -4.511   8.911  0.00  0.00    +0.030 A 
ATOM     28  C   LIG    1       -4.226  -5.715   8.579  0.00  0.00    +0.025 A 
ATOM     29  C   LIG    1       -4.169  -6.120   7.261  0.00  0.00    +0.025 A 
ATOM     30  C   LIG    1       -4.719  -5.323   6.265  0.00  0.00    +0.032 A 
ATOM     31  C   LIG    1       -5.327  -4.119   6.596  0.00  0.00    +0.025 A 
ATOM     32  C   LIG    1       -5.388  -3.716   7.916  0.00  0.00    +0.025 A 
BRANCH  27  37
ATOM     33  N   LIG    1       -4.126  -2.960  12.681  0.00  0.00    +0.382 N 
ATOM     34  H   LIG    1       -4.990  -3.200  13.145  0.00  0.00    -0.082 HD
ATOM     35  C   LIG    1       -3.465  -4.187  12.221  0.00  0.00    -0.060 C 
ATOM     36  C   LIG    1       -4.425  -4.981  11.330  0.00  0.00    +0.086 C 
ATOM     37  N   LIG    1       -4.892  -4.101  10.247  0.00  0.00    -0.333 N 
ATOM     38  C   LIG    1       -5.422  -2.777  10.610  0.00  0.00    +0.086 C 
ATOM     39  C   LIG    1       -4.414  -2.087  11.536  0.00  0.00    -0.060 C 
BRANCH  33  41
ATOM     40  C   LIG    1       -3.046  -3.113  14.874  0.00  0.00    -0.017 C 
ATOM     41  C   LIG    1       -3.247  -2.255  13.623  0.00  0.00    -0.082 C 
ENDBRANCH  33  41
ENDBRANCH  27  37
ENDBRANCH  25  30
ENDBRANCH   1  25
TORSDOF 8
