REMARK  Name = ZINC29221575
REMARK                            x       y       z     vdW  Elec       q    Type
REMARK                         _______ _______ _______ _____ _____    ______ ____
ROOT
ATOM      1  C   LIG    1       -5.370  -1.859  -1.148  0.00  0.00    +0.159 C 
ENDROOT
BRANCH   1   2
ATOM      2  C   LIG    1       -5.745  -3.042  -0.292  0.00  0.00    +0.234 C 
ATOM      3  N   LIG    1       -7.039  -3.390  -0.154  0.00  0.00    -0.302 N 
ATOM      4  H   LIG    1       -7.733  -2.851  -0.565  0.00  0.00    +0.150 HD
ATOM      5  O   LIG    1       -4.881  -3.680   0.273  0.00  0.00    -0.274 OA
BRANCH   3   6
ATOM      6  C   LIG    1       -7.399  -4.583   0.617  0.00  0.00    +0.159 C 
BRANCH   6   7
ATOM      7  C   LIG    1       -8.731  -5.104   0.143  0.00  0.00    +0.234 C 
ATOM      8  N   LIG    1       -9.266  -6.203   0.713  0.00  0.00    -0.302 N 
ATOM      9  H   LIG    1       -8.793  -6.658   1.427  0.00  0.00    +0.150 HD
ATOM     10  O   LIG    1       -9.322  -4.535  -0.750  0.00  0.00    -0.274 OA
BRANCH   8  11
ATOM     11  C   LIG    1      -10.561  -6.709   0.253  0.00  0.00    +0.167 C 
BRANCH  11  12
ATOM     12  C   LIG    1      -11.669  -5.977   0.966  0.00  0.00    +0.231 C 
ATOM     13  N   LIG    1      -12.956  -6.278   0.701  0.00  0.00    -0.328 N 
ATOM     14  H   LIG    1      -13.668  -5.807   1.160  0.00  0.00    +0.145 HD
ATOM     15  H   LIG    1      -13.169  -6.966   0.051  0.00  0.00    +0.145 HD
ATOM     16  O   LIG    1      -11.402  -5.117   1.778  0.00  0.00    -0.274 OA
ENDBRANCH  11  12
BRANCH  11  17
ATOM     17  C   LIG    1      -10.661  -8.206   0.557  0.00  0.00    +0.127 C 
BRANCH  17  18
ATOM     18  C   LIG    1       -9.631  -8.952  -0.252  0.00  0.00    +0.213 C 
ATOM     19  N   LIG    1       -9.533 -10.292  -0.146  0.00  0.00    -0.329 N 
ATOM     20  H   LIG    1       -8.870 -10.772  -0.667  0.00  0.00    +0.145 HD
ATOM     21  H   LIG    1      -10.126 -10.776   0.450  0.00  0.00    +0.145 HD
ATOM     22  O   LIG    1       -8.891  -8.347  -0.998  0.00  0.00    -0.276 OA
ENDBRANCH  17  18
ENDBRANCH  11  17
ENDBRANCH   8  11
ENDBRANCH   6   7
BRANCH   6  23
ATOM     23  C   LIG    1       -7.489  -4.223   2.101  0.00  0.00    +0.035 C 
BRANCH  23  24
ATOM     24  C   LIG    1       -6.107  -3.813   2.612  0.00  0.00    +0.039 C 
BRANCH  24  25
ATOM     25  C   LIG    1       -6.198  -3.453   4.096  0.00  0.00    +0.196 C 
BRANCH  25  26
ATOM     26  N   LIG    1       -4.874  -3.060   4.585  0.00  0.00    -0.279 N 
ATOM     27  H   LIG    1       -4.114  -3.059   3.982  0.00  0.00    +0.258 HD
ATOM     28  C   LIG    1       -4.717  -2.710   5.831  0.00  0.00    +0.341 C 
BRANCH  28  29
ATOM     29  N   LIG    1       -5.793  -2.711   6.686  0.00  0.00    -0.292 N 
ATOM     30  H   LIG    1       -5.676  -2.450   7.613  0.00  0.00    +0.255 HD
ATOM     31  H   LIG    1       -6.670  -2.971   6.362  0.00  0.00    +0.255 HD
ENDBRANCH  28  29
BRANCH  28  32
ATOM     32  N   LIG    1       -3.475  -2.341   6.290  0.00  0.00    -0.292 N 
ATOM     33  H   LIG    1       -3.358  -2.081   7.217  0.00  0.00    +0.255 HD
ATOM     34  H   LIG    1       -2.715  -2.341   5.687  0.00  0.00    +0.255 HD
ENDBRANCH  28  32
ENDBRANCH  25  26
ENDBRANCH  24  25
ENDBRANCH  23  24
ENDBRANCH   6  23
ENDBRANCH   3   6
ENDBRANCH   1   2
BRANCH   1  36
ATOM     35  C   LIG    1       -3.551  -0.240  -1.074  0.00  0.00    +0.234 C 
ATOM     36  N   LIG    1       -3.966  -1.511  -0.912  0.00  0.00    -0.302 N 
ATOM     37  H   LIG    1       -3.336  -2.196  -0.638  0.00  0.00    +0.150 HD
ATOM     38  O   LIG    1       -4.353   0.632  -1.335  0.00  0.00    -0.274 OA
BRANCH  35  39
ATOM     39  C   LIG    1       -2.089   0.100  -0.933  0.00  0.00    +0.159 C 
BRANCH  39  40
ATOM     40  N   LIG    1       -1.811   1.359  -1.627  0.00  0.00    -0.302 N 
ATOM     41  H   LIG    1       -2.509   2.026  -1.720  0.00  0.00    +0.150 HD
ATOM     42  C   LIG    1       -0.585   1.592  -2.136  0.00  0.00    +0.234 C 
ATOM     43  O   LIG    1        0.261   0.723  -2.100  0.00  0.00    -0.274 OA
BRANCH  42  44
ATOM     44  C   LIG    1       -0.265   2.930  -2.749  0.00  0.00    +0.163 C 
BRANCH  44  45
ATOM     45  N   LIG    1        1.188   3.115  -2.788  0.00  0.00    -0.302 N 
ATOM     46  H   LIG    1        1.595   3.861  -2.320  0.00  0.00    +0.150 HD
ATOM     47  C   LIG    1        1.960   2.249  -3.475  0.00  0.00    +0.233 C 
ATOM     48  O   LIG    1        1.451   1.317  -4.061  0.00  0.00    -0.274 OA
BRANCH  47  49
ATOM     49  CA  LIG    1        3.454   2.439  -3.515  0.00  0.00    +0.163 C 
BRANCH  49  50
ATOM     50  N   LIG    1        4.099   1.173  -3.886  0.00  0.00    -0.318 NA
ATOM     51  H1  LIG    1        5.104   1.257  -3.857  0.00  0.00    +0.119 HD
ATOM     52  H2  LIG    1        3.788   0.861  -4.794  0.00  0.00    +0.119 HD
ENDBRANCH  49  50
BRANCH  49  53
ATOM     53  C   LIG    1        3.804   3.512  -4.548  0.00  0.00    +0.183 C 
BRANCH  53  54
ATOM     54  O   LIG    1        5.208   3.776  -4.504  0.00  0.00    -0.393 OA
ATOM     55  H   LIG    1        5.502   4.447  -5.135  0.00  0.00    +0.209 HD
ENDBRANCH  53  54
ENDBRANCH  49  53
ENDBRANCH  47  49
ENDBRANCH  44  45
BRANCH  44  56
ATOM     56  C   LIG    1       -0.824   2.986  -4.173  0.00  0.00    +0.067 C 
BRANCH  56  57
ATOM     57  C   LIG    1       -0.613   4.365  -4.742  0.00  0.00    -0.045 A 
ATOM     58  C   LIG    1       -1.577   5.340  -4.567  0.00  0.00    +0.004 A 
ATOM     59  C   LIG    1       -1.383   6.605  -5.090  0.00  0.00    +0.000 A 
ATOM     60  C   LIG    1       -0.225   6.895  -5.787  0.00  0.00    +0.000 A 
ATOM     61  C   LIG    1        0.740   5.920  -5.961  0.00  0.00    +0.000 A 
ATOM     62  C   LIG    1        0.548   4.656  -5.434  0.00  0.00    +0.004 A 
ENDBRANCH  56  57
ENDBRANCH  44  56
ENDBRANCH  42  44
ENDBRANCH  39  40
BRANCH  39  63
ATOM     63  C   LIG    1       -1.741   0.246   0.550  0.00  0.00    +0.034 C 
BRANCH  63  65
ATOM     64  C   LIG    1       -0.857  -2.085   0.710  0.00  0.00    +0.007 C 
ATOM     65  C   LIG    1       -1.902  -1.106   1.248  0.00  0.00    -0.015 C 
ATOM     66  C   LIG    1       -1.706  -0.928   2.755  0.00  0.00    +0.007 C 
ENDBRANCH  63  65
ENDBRANCH  39  63
ENDBRANCH  35  39
ENDBRANCH   1  36
BRANCH   1  67
ATOM     67  C   LIG    1       -5.566  -2.215  -2.623  0.00  0.00    +0.034 C 
BRANCH  67  68
ATOM     68  C   LIG    1       -7.042  -2.521  -2.881  0.00  0.00    -0.015 C 
ATOM     69  C   LIG    1       -7.212  -3.048  -4.308  0.00  0.00    +0.007 C 
ATOM     70  C   LIG    1       -7.867  -1.244  -2.708  0.00  0.00    +0.007 C 
ENDBRANCH  67  68
ENDBRANCH   1  67
TORSDOF 28
