REMARK  Name = ZINC13779545
REMARK                            x       y       z     vdW  Elec       q    Type
REMARK                         _______ _______ _______ _____ _____    ______ ____
ROOT
ATOM      1  C   LIG    1        3.159   0.183   0.422  0.00  0.00    -0.011 C 
ATOM      2  C   LIG    1        1.911  -0.684   0.601  0.00  0.00    +0.003 C 
ATOM      3  C   LIG    1        0.820  -0.212  -0.363  0.00  0.00    +0.001 C 
ATOM      4  C   LIG    1        0.473   1.248  -0.065  0.00  0.00    +0.005 C 
ATOM      5  C   LIG    1        1.721   2.115  -0.243  0.00  0.00    -0.035 C 
ATOM      6  C   LIG    1        2.812   1.643   0.720  0.00  0.00    +0.009 C 
ENDROOT
BRANCH   1   8
ATOM      7  C   LIG    1        4.684  -1.706   1.009  0.00  0.00    +0.004 C 
ATOM      8  C   LIG    1        4.250  -0.289   1.386  0.00  0.00    +0.000 C 
ENDBRANCH   1   8
BRANCH   5   9
ATOM      9  C   LIG    1        1.375   3.575   0.054  0.00  0.00    -0.079 C 
BRANCH   9  10
ATOM     10  N   LIG    1        0.438   4.062  -0.974  0.00  0.00    +0.378 N 
ATOM     11  H   LIG    1        0.822   3.855  -1.904  0.00  0.00    -0.090 HD
ATOM     12  H   LIG    1        0.312   5.069  -0.883  0.00  0.00    -0.090 HD
ATOM     13  H   LIG    1       -0.462   3.597  -0.875  0.00  0.00    -0.090 HD
ENDBRANCH   9  10
ENDBRANCH   5   9
BRANCH   5  14
ATOM     14  C   LIG    1        2.225   1.994  -1.683  0.00  0.00    +0.125 C 
BRANCH  14  15
ATOM     15  C   LIG    1        3.418   2.895  -1.875  0.00  0.00    +0.305 C 
ATOM     16  O   LIG    1        3.853   3.528  -0.943  0.00  0.00    -0.251 OA
BRANCH  15  17
ATOM     17  O   LIG    1        3.996   2.994  -3.083  0.00  0.00    -0.481 OA
ATOM     18  H   LIG    1        3.658   2.503  -3.806  0.00  0.00    +0.295 HD
ENDBRANCH  15  17
ENDBRANCH  14  15
ENDBRANCH   5  14
TORSDOF 6
