REMARK  Name = ZINC28462351
REMARK                            x       y       z     vdW  Elec       q    Type
REMARK                         _______ _______ _______ _____ _____    ______ ____
ROOT
ATOM      1  N   LIG    1        0.002  -0.004   0.002  0.00  0.00    -0.322 N 
ATOM      2  C   LIG    1        1.326  -0.394  -0.013  0.00  0.00    +0.072 A 
ATOM      3  C   LIG    1        1.968  -1.625  -0.025  0.00  0.00    +0.066 A 
ATOM      4  C   LIG    1        3.347  -1.677  -0.039  0.00  0.00    +0.125 A 
ATOM      5  F   LIG    1        3.974  -2.874  -0.052  0.00  0.00    -0.205 F 
ATOM      6  C   LIG    1        4.096  -0.506  -0.040  0.00  0.00    +0.040 A 
ATOM      7  C   LIG    1        3.481   0.714  -0.027  0.00  0.00    +0.033 A 
ATOM      8  C   LIG    1        2.084   0.791  -0.014  0.00  0.00    +0.090 A 
ATOM      9  N   LIG    1        1.210   1.825   0.000  0.00  0.00    -0.226 NA
ATOM     10  C   LIG    1       -0.017   1.365   0.009  0.00  0.00    +0.167 A 
ENDROOT
BRANCH  10  11
ATOM     11  C   LIG    1       -1.238   2.200   0.020  0.00  0.00    +0.190 A 
ATOM     12  C   LIG    1       -1.352   3.677   0.035  0.00  0.00    +0.191 A 
ATOM     13  N   LIG    1       -2.652   3.862   0.037  0.00  0.00    -0.033 NA
ATOM     14  O   LIG    1       -3.212   2.791   0.034  0.00  0.00    -0.240 OA
ATOM     15  N   LIG    1       -2.497   1.817   0.025  0.00  0.00    -0.044 NA
BRANCH  12  16
ATOM     16  N   LIG    1       -0.339   4.627   0.042  0.00  0.00    -0.339 N 
ATOM     17  H   LIG    1        0.714   4.308   0.036  0.00  0.00    +0.144 HD
ATOM     18  H   LIG    1       -0.590   5.698   0.053  0.00  0.00    +0.144 HD
ENDBRANCH  12  16
ENDBRANCH  10  11
BRANCH   1  20
ATOM     19  C   LIG    1       -1.585  -1.190  -1.432  0.00  0.00    +0.027 C 
ATOM     20  C   LIG    1       -1.165  -0.889   0.008  0.00  0.00    +0.120 C 
ENDBRANCH   1  20
TORSDOF 3
