REMARK  Name = ZINC19597285
REMARK                            x       y       z     vdW  Elec       q    Type
REMARK                         _______ _______ _______ _____ _____    ______ ____
ROOT
ATOM      1  C   LIG    1       -2.832   1.404   2.448  0.00  0.00    +0.105 C 
ATOM      2  N   LIG    1       -2.152   1.258   1.153  0.00  0.00    -0.301 NA
ATOM      3  C   LIG    1       -0.722   1.576   1.270  0.00  0.00    +0.090 C 
ATOM      4  C   LIG    1       -0.013   1.086   0.008  0.00  0.00    +0.071 C 
ATOM      5  C   LIG    1       -0.737   1.583  -1.219  0.00  0.00    +0.049 A 
ATOM      6  C   LIG    1       -2.001   2.046  -1.156  0.00  0.00    -0.003 A 
ATOM      7  C   LIG    1       -2.647   2.492  -2.337  0.00  0.00    +0.015 A 
ATOM      8  C   LIG    1       -1.949   2.449  -3.559  0.00  0.00    +0.092 A 
ATOM      9  C   LIG    1       -0.622   1.960  -3.558  0.00  0.00    +0.112 A 
ATOM     10  N   LIG    1       -0.064   1.548  -2.409  0.00  0.00    -0.244 NA
ATOM     11  C   LIG    1       -2.772   2.112   0.136  0.00  0.00    +0.121 C 
ENDROOT
BRANCH   7  12
ATOM     12  C   LIG    1       -4.026   2.993  -2.286  0.00  0.00    +0.021 A 
ATOM     13  C   LIG    1       -4.502   4.269  -2.540  0.00  0.00    +0.016 A 
ATOM     14  C   LIG    1       -5.857   4.467  -2.421  0.00  0.00    +0.008 A 
ATOM     15  C   LIG    1       -6.649   3.425  -2.057  0.00  0.00    +0.046 A 
ATOM     16  S   LIG    1       -5.526   2.118  -1.873  0.00  0.00    -0.097 S 
ENDBRANCH   7  12
BRANCH   8  17
ATOM     17  C   LIG    1       -2.567   2.890  -4.773  0.00  0.00    +0.102 C 
ATOM     18  N   LIG    1       -3.058   3.240  -5.736  0.00  0.00    -0.191 NA
ENDBRANCH   8  17
BRANCH   9  19
ATOM     19  S   LIG    1        0.270   1.893  -5.018  0.00  0.00    -0.122 S 
ATOM     20  H   LIG    1       -0.497   2.359  -6.040  0.00  0.00    +0.109 HD
ENDBRANCH   9  19
TORSDOF 3
