REMARK  Name = ZINC71295374
REMARK                            x       y       z     vdW  Elec       q    Type
REMARK                         _______ _______ _______ _____ _____    ______ ____
ROOT
ATOM      1  C   LIG    1        1.497  -2.757   2.492  0.00  0.00    +0.090 A 
ATOM      2  C   LIG    1        2.848  -3.122   2.470  0.00  0.00    +0.039 A 
ATOM      3  C   LIG    1        3.500  -3.314   3.688  0.00  0.00    +0.092 A 
ATOM      4  C   LIG    1        2.776  -3.135   4.883  0.00  0.00    +0.140 A 
ATOM      5  N   LIG    1        1.497  -2.790   4.854  0.00  0.00    -0.226 NA
ATOM      6  C   LIG    1        0.854  -2.595   3.723  0.00  0.00    +0.160 A 
ENDROOT
BRANCH   4   7
ATOM      7  N   LIG    1        3.405  -3.321   6.096  0.00  0.00    -0.311 N 
ATOM      8  C   LIG    1        3.978  -2.180   6.824  0.00  0.00    +0.125 C 
ATOM      9  C   LIG    1        3.378  -2.148   8.235  0.00  0.00    +0.128 C 
ATOM     10  N   LIG    1        3.486  -3.490   8.823  0.00  0.00    -0.283 N 
ATOM     11  C   LIG    1        4.101  -3.672  10.009  0.00  0.00    +0.303 C 
ATOM     12  N   LIG    1        4.111  -4.891  10.583  0.00  0.00    -0.295 N 
ATOM     13  H   LIG    1        3.739  -5.653  10.111  0.00  0.00    +0.151 HD
ATOM     14  O   LIG    1        4.647  -2.736  10.560  0.00  0.00    -0.253 OA
ATOM     15  C   LIG    1        2.913  -4.631   8.095  0.00  0.00    +0.128 C 
ATOM     16  C   LIG    1        3.509  -4.663   6.687  0.00  0.00    +0.125 C 
BRANCH  12  17
ATOM     17  C   LIG    1        4.682  -5.067  11.920  0.00  0.00    +0.141 C 
BRANCH  17  18
ATOM     18  C   LIG    1        4.570  -6.513  12.329  0.00  0.00    -0.030 A 
ATOM     19  C   LIG    1        3.445  -6.957  12.998  0.00  0.00    +0.005 A 
ATOM     20  C   LIG    1        3.341  -8.283  13.373  0.00  0.00    +0.000 A 
ATOM     21  C   LIG    1        4.363  -9.166  13.078  0.00  0.00    +0.000 A 
ATOM     22  C   LIG    1        5.488  -8.723  12.408  0.00  0.00    +0.000 A 
ATOM     23  C   LIG    1        5.589  -7.397  12.029  0.00  0.00    +0.005 A 
ENDBRANCH  17  18
ENDBRANCH  12  17
ENDBRANCH   4   7
BRANCH   6  24
ATOM     24  C   LIG    1       -0.599  -2.196   3.754  0.00  0.00    +0.435 C 
ATOM     25  F   LIG    1       -0.824  -1.180   2.819  0.00  0.00    -0.164 F 
ATOM     26  F   LIG    1       -0.928  -1.735   5.033  0.00  0.00    -0.164 F 
ATOM     27  F   LIG    1       -1.393  -3.304   3.439  0.00  0.00    -0.164 F 
ENDBRANCH   6  24
BRANCH   1  28
ATOM     28  C   LIG    1        0.762  -2.541   1.232  0.00  0.00    +0.341 C 
ATOM     29  O   LIG    1       -0.340  -3.031   1.080  0.00  0.00    -0.245 OA
BRANCH  28  30
ATOM     30  O   LIG    1        1.312  -1.801   0.250  0.00  0.00    -0.461 OA
BRANCH  30  32
ATOM     31  C   LIG    1        1.325  -0.769  -1.936  0.00  0.00    +0.048 C 
ATOM     32  C   LIG    1        0.543  -1.633  -0.943  0.00  0.00    +0.229 C 
ENDBRANCH  30  32
ENDBRANCH  28  30
ENDBRANCH   1  28
BRANCH   3  33
ATOM     33  C   LIG    1        4.881  -3.688   3.724  0.00  0.00    +0.103 C 
ATOM     34  N   LIG    1        5.978  -3.985   3.752  0.00  0.00    -0.191 NA
ENDBRANCH   3  33
TORSDOF 8
