REMARK  Name = ZINC00007724
REMARK                            x       y       z     vdW  Elec       q    Type
REMARK                         _______ _______ _______ _____ _____    ______ ____
ROOT
ATOM      1  C   LIG    1        0.225  -4.966   1.677  0.00  0.00    +0.039 A 
ATOM      2  C   LIG    1        0.192  -3.990   2.651  0.00  0.00    +0.126 A 
ATOM      3  N   LIG    1        0.312  -4.272   3.936  0.00  0.00    -0.261 NA
ATOM      4  C   LIG    1        0.469  -5.513   4.357  0.00  0.00    +0.126 A 
ATOM      5  C   LIG    1        0.513  -6.553   3.455  0.00  0.00    +0.039 A 
ATOM      6  S   LIG    1        0.703  -8.312   3.574  0.00  0.00    -0.082 S 
ATOM      7  C   LIG    1        0.605  -8.700   1.834  0.00  0.00    +0.075 A 
ATOM      8  C   LIG    1        0.443  -7.477   1.258  0.00  0.00    +0.030 A 
ATOM      9  C   LIG    1        0.387  -6.330   2.062  0.00  0.00    +0.007 A 
ENDROOT
BRANCH   7  10
ATOM     10  C   LIG    1        0.688 -10.015   1.182  0.00  0.00    +0.248 C 
ATOM     11  N   LIG    1        0.851 -11.127   1.927  0.00  0.00    -0.325 N 
ATOM     12  H   LIG    1        0.905 -11.995   1.497  0.00  0.00    +0.145 HD
ATOM     13  H   LIG    1        0.913 -11.059   2.892  0.00  0.00    +0.145 HD
ATOM     14  O   LIG    1        0.610 -10.100  -0.029  0.00  0.00    -0.270 OA
ENDBRANCH   7  10
BRANCH   1  15
ATOM     15  S   LIG    1        0.062  -4.533  -0.023  0.00  0.00    -0.087 S 
BRANCH  15  20
ATOM     16  C   LIG    1       -0.001   1.503   0.004  0.00  0.00    +0.044 C 
ATOM     17  C   LIG    1        0.015  -0.004  -0.002  0.00  0.00    -0.050 A 
ATOM     18  C   LIG    1        1.221  -0.681  -0.014  0.00  0.00    +0.004 A 
ATOM     19  C   LIG    1        1.239  -2.062  -0.021  0.00  0.00    +0.015 A 
ATOM     20  C   LIG    1        0.044  -2.771  -0.014  0.00  0.00    +0.013 A 
ATOM     21  C   LIG    1       -1.166  -2.087  -0.002  0.00  0.00    +0.015 A 
ATOM     22  C   LIG    1       -1.177  -0.706   0.010  0.00  0.00    +0.004 A 
ENDBRANCH  15  20
ENDBRANCH   1  15
TORSDOF 3
