REMARK  Name = ZINC15880093
REMARK                            x       y       z     vdW  Elec       q    Type
REMARK                         _______ _______ _______ _____ _____    ______ ____
ROOT
ATOM      1  C   LIG    1       -0.018   1.461   0.010  0.00  0.00    +0.155 C 
ATOM      2  N   LIG    1        0.002  -0.004   0.002  0.00  0.00    -0.280 N 
ATOM      3  C   LIG    1       -1.189  -0.712   0.004  0.00  0.00    +0.168 A 
ATOM      4  C   LIG    1       -1.144  -2.100  -0.004  0.00  0.00    +0.149 A 
ATOM      5  N   LIG    1       -2.456  -2.530   0.000  0.00  0.00    -0.336 N 
ATOM      6  C   LIG    1       -3.231  -1.427   0.010  0.00  0.00    +0.113 A 
ATOM      7  H   LIG    1       -2.762  -3.450  -0.003  0.00  0.00    +0.167 HD
ATOM      8  C   LIG    1        0.111  -2.748  -0.013  0.00  0.00    +0.282 A 
ATOM      9  N   LIG    1        1.236  -2.003  -0.015  0.00  0.00    -0.262 N 
ATOM     10  C   LIG    1        2.541  -2.668  -0.025  0.00  0.00    +0.157 C 
ATOM     11  O   LIG    1        0.176  -3.964  -0.021  0.00  0.00    -0.265 OA
ATOM     12  N   LIG    1       -2.477  -0.358   0.012  0.00  0.00    -0.214 NA
ATOM     13  C   LIG    1        1.178  -0.660  -0.013  0.00  0.00    +0.333 A 
ATOM     14  O   LIG    1        2.213  -0.022  -0.020  0.00  0.00    -0.246 OA
ENDROOT
BRANCH   6  15
ATOM     15  C   LIG    1       -4.738  -1.427   0.016  0.00  0.00    +0.055 C 
ATOM     16  C   LIG    1       -5.263  -2.658   0.783  0.00  0.00    +0.011 C 
ATOM     17  C   LIG    1       -6.522  -3.089  -0.009  0.00  0.00    +0.001 C 
ATOM     18  C   LIG    1       -6.102  -2.842  -1.480  0.00  0.00    +0.001 C 
ATOM     19  C   LIG    1       -5.271  -1.544  -1.422  0.00  0.00    +0.011 C 
ENDBRANCH   6  15
TORSDOF 1
