REMARK  Name = ZINC20114421
REMARK                            x       y       z     vdW  Elec       q    Type
REMARK                         _______ _______ _______ _____ _____    ______ ____
ROOT
ATOM      1  C   LIG    1        3.669   3.578  -0.009  0.00  0.00    +0.044 C 
ATOM      2  C   LIG    1        2.323   4.256  -0.004  0.00  0.00    -0.038 A 
ATOM      3  C   LIG    1        2.226   5.615  -0.004  0.00  0.00    +0.047 A 
ATOM      4  C   LIG    1        0.963   6.225   0.000  0.00  0.00    +0.122 A 
ATOM      5  N   LIG    1       -0.145   5.514   0.003  0.00  0.00    -0.232 NA
ATOM      6  C   LIG    1       -0.113   4.176   0.003  0.00  0.00    +0.073 A 
ATOM      7  C   LIG    1       -1.302   3.426   0.006  0.00  0.00    +0.030 A 
ATOM      8  C   LIG    1       -1.249   2.067   0.001  0.00  0.00    +0.025 A 
ATOM      9  C   LIG    1       -0.022   1.395   0.003  0.00  0.00    +0.034 A 
ATOM     10  C   LIG    1        1.163   2.098  -0.001  0.00  0.00    +0.033 A 
ATOM     11  C   LIG    1        1.133   3.501  -0.001  0.00  0.00    +0.005 A 
ENDROOT
BRANCH   4  12
ATOM     12  N   LIG    1        0.879   7.610   0.002  0.00  0.00    -0.313 N 
ATOM     13  C   LIG    1        1.613   8.181   1.140  0.00  0.00    +0.122 C 
ATOM     14  C   LIG    1        1.563   9.709   1.061  0.00  0.00    +0.103 C 
ATOM     15  N   LIG    1        0.162  10.152   1.065  0.00  0.00    -0.302 NA
ATOM     16  C   LIG    1        0.073  11.618   1.066  0.00  0.00    +0.105 C 
ATOM     17  C   LIG    1       -0.571   9.581  -0.074  0.00  0.00    +0.103 C 
ATOM     18  C   LIG    1       -0.522   8.053   0.005  0.00  0.00    +0.122 C 
ENDBRANCH   4  12
BRANCH   9  19
ATOM     19  N   LIG    1        0.002  -0.004   0.002  0.00  0.00    -0.282 N 
ATOM     20  H   LIG    1        0.789  -0.540  -0.549  0.00  0.00    +0.155 HD
ATOM     21  C   LIG    1       -0.938  -0.695   0.677  0.00  0.00    +0.241 C 
ATOM     22  O   LIG    1       -1.856  -0.105   1.217  0.00  0.00    -0.270 OA
BRANCH  21  23
ATOM     23  C   LIG    1       -0.856  -2.152   0.760  0.00  0.00    +0.068 C 
ATOM     24  C   LIG    1       -1.798  -2.844   1.436  0.00  0.00    +0.013 C 
BRANCH  24  25
ATOM     25  C   LIG    1       -1.716  -4.309   1.520  0.00  0.00    -0.025 A 
ATOM     26  C   LIG    1       -0.665  -4.990   0.894  0.00  0.00    +0.011 A 
ATOM     27  C   LIG    1       -0.590  -6.362   0.980  0.00  0.00    +0.046 A 
ATOM     28  C   LIG    1       -1.561  -7.072   1.677  0.00  0.00    +0.121 A 
ATOM     29  C   LIG    1       -2.610  -6.400   2.295  0.00  0.00    +0.046 A 
ATOM     30  C   LIG    1       -2.691  -5.028   2.220  0.00  0.00    +0.011 A 
BRANCH  28  31
ATOM     31  O   LIG    1       -1.485  -8.425   1.754  0.00  0.00    -0.492 OA
BRANCH  31  32
ATOM     32  C   LIG    1       -0.381  -9.051   1.097  0.00  0.00    +0.229 C 
BRANCH  32  33
ATOM     33  C   LIG    1       -0.464 -10.566   1.292  0.00  0.00    +0.044 C 
BRANCH  33  34
ATOM     34  C   LIG    1        0.717 -11.237   0.588  0.00  0.00    -0.014 C 
ATOM     35  C   LIG    1        0.603 -11.017  -0.921  0.00  0.00    +0.007 C 
ATOM     36  C   LIG    1        0.704 -12.737   0.887  0.00  0.00    +0.007 C 
ENDBRANCH  33  34
ENDBRANCH  32  33
ENDBRANCH  31  32
ENDBRANCH  28  31
ENDBRANCH  24  25
ENDBRANCH  21  23
ENDBRANCH   9  19
TORSDOF 8
