REMARK  Name = ZINC21992582
REMARK                            x       y       z     vdW  Elec       q    Type
REMARK                         _______ _______ _______ _____ _____    ______ ____
ROOT
ATOM      1  C   LIG    1        3.892   2.252  -0.055  0.00  0.00    +0.202 C 
ENDROOT
BRANCH   1   2
ATOM      2  C   LIG    1        2.760   1.259  -0.103  0.00  0.00    -0.007 A 
ATOM      3  C   LIG    1        1.451   1.702  -0.095  0.00  0.00    +0.007 A 
ATOM      4  C   LIG    1        0.413   0.790  -0.139  0.00  0.00    +0.000 A 
ATOM      5  C   LIG    1        0.684  -0.565  -0.190  0.00  0.00    +0.000 A 
ATOM      6  C   LIG    1        1.994  -1.008  -0.196  0.00  0.00    +0.000 A 
ATOM      7  C   LIG    1        3.032  -0.096  -0.153  0.00  0.00    +0.007 A 
ENDBRANCH   1   2
BRANCH   1   8
ATOM      8  C   LIG    1        4.122   2.832  -1.452  0.00  0.00    +0.031 C 
BRANCH   8   9
ATOM      9  C   LIG    1        5.349   3.745  -1.430  0.00  0.00    -0.076 C 
BRANCH   9  11
ATOM     10  C   LIG    1        6.587   5.361  -2.741  0.00  0.00    -0.097 C 
ATOM     11  N   LIG    1        5.570   4.302  -2.772  0.00  0.00    +0.376 N 
ATOM     12  H   LIG    1        4.624   4.750  -3.111  0.00  0.00    -0.083 HD
ATOM     13  C   LIG    1        5.937   3.246  -3.725  0.00  0.00    -0.097 C 
ENDBRANCH   9  11
ENDBRANCH   8   9
ENDBRANCH   1   8
BRANCH   1  14
ATOM     14  O   LIG    1        3.561   3.308   0.850  0.00  0.00    -0.484 OA
BRANCH  14  15
ATOM     15  C   LIG    1        3.820   3.095   2.167  0.00  0.00    +0.121 A 
ATOM     16  C   LIG    1        3.636   4.119   3.085  0.00  0.00    +0.046 A 
ATOM     17  C   LIG    1        3.895   3.899   4.424  0.00  0.00    +0.016 A 
ATOM     18  C   LIG    1        4.346   2.663   4.848  0.00  0.00    +0.055 A 
ATOM     19  C   LIG    1        4.535   1.643   3.935  0.00  0.00    +0.016 A 
ATOM     20  C   LIG    1        4.273   1.856   2.595  0.00  0.00    +0.046 A 
BRANCH  18  21
ATOM     21  C   LIG    1        4.633   2.427   6.309  0.00  0.00    +0.417 C 
ATOM     22  F   LIG    1        4.404   1.082   6.618  0.00  0.00    -0.166 F 
ATOM     23  F   LIG    1        3.793   3.233   7.085  0.00  0.00    -0.166 F 
ATOM     24  F   LIG    1        5.967   2.747   6.580  0.00  0.00    -0.166 F 
ENDBRANCH  18  21
ENDBRANCH  14  15
ENDBRANCH   1  14
TORSDOF 7
