REMARK  Name = ZINC71319387
REMARK                            x       y       z     vdW  Elec       q    Type
REMARK                         _______ _______ _______ _____ _____    ______ ____
ROOT
ATOM      1  C   LIG    1       -2.551  -4.195   0.004  0.00  0.00    -0.028 C 
ATOM      2  C   LIG    1       -2.631  -4.950   1.087  0.00  0.00    +0.004 C 
ATOM      3 BR   LIG    1       -2.785  -4.325   2.865  0.00  0.00    -0.054 Br
ATOM      4  C   LIG    1       -2.578  -6.399   0.659  0.00  0.00    +0.078 C 
ATOM      5  C   LIG    1       -2.454  -6.370  -0.845  0.00  0.00    -0.035 A 
ATOM      6  C   LIG    1       -2.365  -7.351  -1.804  0.00  0.00    +0.008 A 
ATOM      7  C   LIG    1       -2.271  -7.014  -3.141  0.00  0.00    +0.046 A 
ATOM      8  C   LIG    1       -2.253  -5.676  -3.530  0.00  0.00    +0.124 A 
ATOM      9  O   LIG    1       -2.143  -5.134  -4.775  0.00  0.00    -0.491 OA
ATOM     10  C   LIG    1       -2.602  -3.772  -4.742  0.00  0.00    +0.234 C 
ATOM     11  C   LIG    1       -2.322  -3.354  -3.279  0.00  0.00    +0.080 C 
ATOM     12  C   LIG    1       -2.347  -4.689  -2.561  0.00  0.00    +0.005 A 
ATOM     13  C   LIG    1       -2.445  -5.021  -1.213  0.00  0.00    -0.011 A 
ENDROOT
BRANCH   1  14
ATOM     14  C   LIG    1       -2.571  -2.688   0.012  0.00  0.00    +0.055 C 
BRANCH  14  15
ATOM     15  C   LIG    1       -1.136  -2.159   0.001  0.00  0.00    +0.109 C 
BRANCH  15  18
ATOM     16  C   LIG    1       -0.018   1.503   0.010  0.00  0.00    +0.109 C 
ATOM     17  C   LIG    1        0.002  -0.004   0.002  0.00  0.00    +0.210 C 
ATOM     18  N   LIG    1       -1.156  -0.694   0.009  0.00  0.00    -0.315 N 
ATOM     19  H   LIG    1       -2.002  -0.220   0.020  0.00  0.00    +0.149 HD
ATOM     20  O   LIG    1        1.060  -0.596  -0.011  0.00  0.00    -0.276 OA
ENDBRANCH  15  18
ENDBRANCH  14  15
ENDBRANCH   1  14
TORSDOF 3
