REMARK  Name = ZINC29134840
REMARK                            x       y       z     vdW  Elec       q    Type
REMARK                         _______ _______ _______ _____ _____    ______ ____
ROOT
ATOM      1  C   LIG    1        8.180   3.569  -1.966  0.00  0.00    +0.058 C 
ATOM      2  C   LIG    1        7.180   3.751  -3.109  0.00  0.00    +0.133 C 
ATOM      3  C   LIG    1        7.859   3.439  -4.445  0.00  0.00    +0.058 C 
ATOM      4  C   LIG    1        5.983   2.812  -2.905  0.00  0.00    +0.179 C 
ATOM      5  C   LIG    1        5.385   3.102  -1.527  0.00  0.00    +0.124 C 
ATOM      6  C   LIG    1        5.209   4.591  -1.346  0.00  0.00    +0.065 C 
ATOM      7  C   LIG    1        5.858   5.479  -2.123  0.00  0.00    +0.177 C 
ATOM      8  C   LIG    1        5.672   6.939  -1.913  0.00  0.00    +0.228 C 
ATOM      9  C   LIG    1        4.767   7.426  -0.854  0.00  0.00    +0.036 A 
ATOM     10  C   LIG    1        4.577   8.787  -0.644  0.00  0.00    +0.012 A 
ATOM     11  C   LIG    1        3.719   9.215   0.358  0.00  0.00    +0.001 A 
ATOM     12  C   LIG    1        3.053   8.298   1.147  0.00  0.00    +0.001 A 
ATOM     13  C   LIG    1        3.232   6.938   0.949  0.00  0.00    +0.012 A 
ATOM     14  C   LIG    1        4.088   6.493  -0.051  0.00  0.00    +0.033 A 
ATOM     15  O   LIG    1        6.268   7.733  -2.613  0.00  0.00    -0.283 OA
ATOM     16  C   LIG    1        4.300   5.049  -0.284  0.00  0.00    +0.195 C 
ATOM     17  O   LIG    1        3.717   4.235   0.405  0.00  0.00    -0.287 OA
ATOM     18  O   LIG    1        6.694   5.092  -3.117  0.00  0.00    -0.479 OA
ENDROOT
BRANCH   4  19
ATOM     19  O   LIG    1        6.418   1.452  -2.967  0.00  0.00    -0.386 OA
ATOM     20  H   LIG    1        5.692   0.636  -2.841  0.00  0.00    +0.210 HD
ENDBRANCH   4  19
BRANCH   5  21
ATOM     21  N   LIG    1        4.080   2.439  -1.411  0.00  0.00    -0.303 NA
ATOM     22  H   LIG    1        4.191   1.368  -1.639  0.00  0.00    +0.123 HD
BRANCH  21  23
ATOM     23  C   LIG    1        3.109   3.020  -2.348  0.00  0.00    +0.117 C 
BRANCH  23  24
ATOM     24  C   LIG    1        1.790   2.303  -2.215  0.00  0.00    -0.034 A 
ATOM     25  C   LIG    1        1.526   1.193  -2.995  0.00  0.00    +0.005 A 
ATOM     26  C   LIG    1        0.316   0.534  -2.873  0.00  0.00    +0.000 A 
ATOM     27  C   LIG    1       -0.629   0.987  -1.971  0.00  0.00    +0.000 A 
ATOM     28  C   LIG    1       -0.365   2.098  -1.192  0.00  0.00    +0.000 A 
ATOM     29  C   LIG    1        0.845   2.756  -1.315  0.00  0.00    +0.005 A 
ENDBRANCH  23  24
ENDBRANCH  21  23
ENDBRANCH   5  21
TORSDOF 4
