REMARK  Name = ZINC64559770
REMARK                            x       y       z     vdW  Elec       q    Type
REMARK                         _______ _______ _______ _____ _____    ______ ____
ROOT
ATOM      1  C   LIG    1       -0.018   1.465   0.010  0.00  0.00    -0.096 C 
ATOM      2  N   LIG    1        0.002  -0.004   0.002  0.00  0.00    +0.378 N 
ATOM      3  H   LIG    1       -0.945  -0.352   0.012  0.00  0.00    -0.082 HD
ATOM      4  C   LIG    1        0.681  -0.476  -1.210  0.00  0.00    -0.078 C 
ATOM      5  C   LIG    1        0.634  -2.005  -1.264  0.00  0.00    +0.004 C 
ATOM      6  C   LIG    1        1.336  -2.575  -0.029  0.00  0.00    +0.089 C 
ATOM      7  C   LIG    1        0.666  -2.018   1.230  0.00  0.00    +0.004 C 
ATOM      8  C   LIG    1        0.712  -0.489   1.192  0.00  0.00    -0.078 C 
ENDROOT
BRANCH   6   9
ATOM      9  C   LIG    1        1.225  -4.078  -0.035  0.00  0.00    -0.031 A 
ATOM     10  C   LIG    1        0.564  -4.716  -1.070  0.00  0.00    +0.005 A 
ATOM     11  C   LIG    1        0.459  -6.092  -1.081  0.00  0.00    +0.009 A 
ATOM     12  C   LIG    1        1.020  -6.839  -0.047  0.00  0.00    -0.018 A 
ATOM     13  C   LIG    1        1.685  -6.192   0.992  0.00  0.00    +0.009 A 
ATOM     14  C   LIG    1        1.788  -4.816   0.990  0.00  0.00    +0.005 A 
BRANCH  12  15
ATOM     15  C   LIG    1        0.910  -8.319  -0.054  0.00  0.00    -0.018 A 
ATOM     16  C   LIG    1        0.250  -8.967  -1.096  0.00  0.00    +0.008 A 
ATOM     17  C   LIG    1        0.151 -10.343  -1.097  0.00  0.00    +0.001 A 
ATOM     18  C   LIG    1        0.705 -11.080  -0.066  0.00  0.00    +0.000 A 
ATOM     19  C   LIG    1        1.361 -10.442   0.972  0.00  0.00    +0.001 A 
ATOM     20  C   LIG    1        1.471  -9.066   0.980  0.00  0.00    +0.008 A 
ENDBRANCH  12  15
ENDBRANCH   6   9
BRANCH   6  21
ATOM     21  C   LIG    1        2.789  -2.176  -0.045  0.00  0.00    +0.318 C 
ATOM     22  O   LIG    1        3.220  -1.504  -0.952  0.00  0.00    -0.250 OA
BRANCH  21  23
ATOM     23  O   LIG    1        3.604  -2.567   0.947  0.00  0.00    -0.459 OA
BRANCH  23  24
ATOM     24  C   LIG    1        4.969  -2.152   0.867  0.00  0.00    +0.267 C 
BRANCH  24  25
ATOM     25  C   LIG    1        5.725  -2.682   2.058  0.00  0.00    -0.010 A 
ATOM     26  C   LIG    1        5.801  -1.932   3.218  0.00  0.00    +0.007 A 
ATOM     27  C   LIG    1        6.495  -2.418   4.310  0.00  0.00    +0.000 A 
ATOM     28  C   LIG    1        7.112  -3.653   4.244  0.00  0.00    +0.000 A 
ATOM     29  C   LIG    1        7.036  -4.402   3.085  0.00  0.00    +0.000 A 
ATOM     30  C   LIG    1        6.339  -3.919   1.994  0.00  0.00    +0.007 A 
ENDBRANCH  24  25
ENDBRANCH  23  24
ENDBRANCH  21  23
ENDBRANCH   6  21
TORSDOF 6
