REMARK  Name = ZINC33034247
REMARK                            x       y       z     vdW  Elec       q    Type
REMARK                         _______ _______ _______ _____ _____    ______ ____
ROOT
ATOM      1  C   LIG    1        0.002  -0.004   0.002  0.00  0.00    +0.039 C 
ATOM      2  C   LIG    1        1.202  -0.678  -0.117  0.00  0.00    +0.048 C 
ATOM      3  C   LIG    1        1.406  -2.139  -0.240  0.00  0.00    +0.010 A 
ATOM      4  C   LIG    1        0.535  -3.222  -0.287  0.00  0.00    +0.030 A 
ATOM      5  C   LIG    1        1.040  -4.501  -0.417  0.00  0.00    +0.042 A 
ATOM      6 CL   LIG    1       -0.041  -5.859  -0.467  0.00  0.00    -0.084 Cl
ATOM      7  C   LIG    1        2.408  -4.702  -0.507  0.00  0.00    +0.022 A 
ATOM      8  C   LIG    1        3.280  -3.632  -0.468  0.00  0.00    +0.025 A 
ATOM      9  C   LIG    1        2.790  -2.338  -0.338  0.00  0.00    +0.042 A 
ATOM     10  N   LIG    1        3.433  -1.107  -0.273  0.00  0.00    -0.281 N 
ATOM     11  H   LIG    1        4.531  -1.057  -0.328  0.00  0.00    +0.155 HD
ATOM     12  C   LIG    1        2.552  -0.101  -0.143  0.00  0.00    +0.249 C 
ATOM     13  O   LIG    1        2.826   1.084  -0.062  0.00  0.00    -0.270 OA
ENDROOT
BRANCH   1  16
ATOM     14  C   LIG    1       -0.836   3.429  -0.734  0.00  0.00    +0.019 A 
ATOM     15  C   LIG    1       -1.178   2.185  -0.199  0.00  0.00    +0.027 A 
ATOM     16  C   LIG    1       -0.089   1.348  -0.389  0.00  0.00    +0.040 A 
ATOM     17  N   LIG    1        0.884   2.078  -1.036  0.00  0.00    -0.361 N 
ATOM     18  H   LIG    1        1.844   1.606  -1.295  0.00  0.00    +0.165 HD
ATOM     19  C   LIG    1        0.419   3.336  -1.239  0.00  0.00    +0.083 A 
ENDBRANCH   1  16
TORSDOF 1
