REMARK  Name = ZINC26491266
REMARK                            x       y       z     vdW  Elec       q    Type
REMARK                         _______ _______ _______ _____ _____    ______ ____
ROOT
ATOM      1  C   LIG    1       -0.017   1.377   0.010  0.00  0.00    +0.002 A 
ATOM      2  C   LIG    1        0.002  -0.004   0.002  0.00  0.00    +0.010 A 
ATOM      3  C   LIG    1        1.206  -0.688  -0.015  0.00  0.00    +0.028 A 
ATOM      4  C   LIG    1        2.398   0.018  -0.025  0.00  0.00    +0.144 A 
ATOM      5  O   LIG    1        3.600  -0.614  -0.049  0.00  0.00    -0.490 OA
ATOM      6  C   LIG    1        3.643  -1.991   0.327  0.00  0.00    +0.232 C 
ATOM      7  C   LIG    1        2.551  -2.741  -0.447  0.00  0.00    +0.081 C 
ATOM      8  C   LIG    1        2.376   1.409  -0.015  0.00  0.00    +0.083 A 
ATOM      9 CL   LIG    1        3.866   2.299  -0.024  0.00  0.00    -0.080 Cl
ATOM     10  C   LIG    1        1.194  -2.191  -0.017  0.00  0.00    +0.144 C 
ATOM     11  C   LIG    1        0.822  -2.717   1.350  0.00  0.00    +0.249 C 
ATOM     12  N   LIG    1       -0.317  -3.417   1.168  0.00  0.00    -0.238 N 
ATOM     13  H   LIG    1       -0.802  -3.910   2.023  0.00  0.00    +0.159 HD
ATOM     14  C   LIG    1       -0.706  -3.402  -0.113  0.00  0.00    +0.307 C 
ATOM     15  O   LIG    1       -1.703  -3.963  -0.523  0.00  0.00    -0.252 OA
ATOM     16  O   LIG    1        1.420  -2.546   2.390  0.00  0.00    -0.273 OA
ATOM     17  N   LIG    1        0.132  -2.696  -0.896  0.00  0.00    -0.281 N 
ATOM     18  H   LIG    1        0.149  -2.460  -1.970  0.00  0.00    +0.152 HD
ATOM     19  C   LIG    1        1.171   2.085   0.002  0.00  0.00    +0.024 A 
ENDROOT
TORSDOF 0
