REMARK  Name = ZINC13912677
REMARK                            x       y       z     vdW  Elec       q    Type
REMARK                         _______ _______ _______ _____ _____    ______ ____
ROOT
ATOM      1  C   LIG    1       -0.362   1.498   0.411  0.00  0.00    +0.105 C 
ATOM      2  N   LIG    1       -0.260   0.037   0.293  0.00  0.00    -0.301 NA
ATOM      3  C   LIG    1       -1.594  -0.584   0.263  0.00  0.00    +0.089 C 
ATOM      4  C   LIG    1       -1.446  -2.027  -0.220  0.00  0.00    +0.051 C 
ATOM      5  C   LIG    1       -0.374  -2.729   0.574  0.00  0.00    -0.032 A 
ATOM      6  C   LIG    1       -0.338  -4.129   0.542  0.00  0.00    -0.014 A 
ATOM      7  C   LIG    1        0.634  -4.820   1.255  0.00  0.00    +0.021 A 
ATOM      8  C   LIG    1        1.568  -4.112   1.999  0.00  0.00    +0.031 A 
ATOM      9  C   LIG    1        1.532  -2.714   2.034  0.00  0.00    +0.048 A 
ATOM     10  N   LIG    1        2.563  -2.243   2.841  0.00  0.00    -0.279 N 
ATOM     11  H   LIG    1        2.736  -1.304   3.014  0.00  0.00    +0.155 HD
ATOM     12  C   LIG    1        3.290  -3.252   3.350  0.00  0.00    +0.270 C 
ATOM     13  O   LIG    1        4.250  -3.143   4.088  0.00  0.00    -0.268 OA
ATOM     14  C   LIG    1        2.709  -4.525   2.851  0.00  0.00    +0.173 C 
ATOM     15  N   LIG    1        3.113  -5.737   3.106  0.00  0.00    -0.078 NA
ATOM     16  C   LIG    1        0.549  -2.030   1.315  0.00  0.00    -0.008 A 
ATOM     17  C   LIG    1        0.536  -0.525   1.388  0.00  0.00    +0.121 C 
ENDROOT
BRANCH   6  18
ATOM     18  C   LIG    1       -1.340  -4.876  -0.257  0.00  0.00    -0.017 A 
ATOM     19  C   LIG    1       -1.481  -4.619  -1.619  0.00  0.00    +0.010 A 
ATOM     20  C   LIG    1       -2.415  -5.317  -2.358  0.00  0.00    +0.029 A 
ATOM     21  C   LIG    1       -3.209  -6.271  -1.748  0.00  0.00    +0.105 A 
ATOM     22  C   LIG    1       -3.074  -6.530  -0.396  0.00  0.00    +0.029 A 
ATOM     23  C   LIG    1       -2.140  -5.841   0.351  0.00  0.00    +0.010 A 
BRANCH  21  24
ATOM     24  S   LIG    1       -4.399  -7.159  -2.697  0.00  0.00    +0.060 S 
ATOM     25  O   LIG    1       -4.709  -6.348  -3.822  0.00  0.00    -0.153 OA
ATOM     26  O   LIG    1       -5.393  -7.608  -1.785  0.00  0.00    -0.153 OA
BRANCH  24  27
ATOM     27  N   LIG    1       -3.647  -8.514  -3.282  0.00  0.00    -0.183 NA
ATOM     28  C   LIG    1       -2.966  -8.471  -4.578  0.00  0.00    +0.131 C 
ATOM     29  C   LIG    1       -3.663  -9.754  -2.503  0.00  0.00    +0.131 C 
ENDBRANCH  24  27
ENDBRANCH  21  24
ENDBRANCH   6  18
BRANCH  15  30
ATOM     30  O   LIG    1        4.231  -5.948   3.950  0.00  0.00    -0.378 OA
BRANCH  30  31
ATOM     31  C   LIG    1        4.562  -7.325   4.142  0.00  0.00    +0.314 C 
BRANCH  31  32
ATOM     32  C   LIG    1        5.442  -7.792   3.011  0.00  0.00    +0.349 C 
ATOM     33  O   LIG    1        5.832  -6.997   2.173  0.00  0.00    -0.247 OA
BRANCH  32  34
ATOM     34  O   LIG    1        5.765  -8.965   2.935  0.00  0.00    -0.478 OA
ATOM     35  H   LIG    1        5.466  -9.576   3.579  0.00  0.00    +0.295 HD
ENDBRANCH  32  34
ENDBRANCH  31  32
BRANCH  31  36
ATOM     36  C   LIG    1        5.305  -7.490   5.469  0.00  0.00    +0.087 C 
BRANCH  36  37
ATOM     37  C   LIG    1        4.369  -7.134   6.625  0.00  0.00    +0.160 C 
BRANCH  37  38
ATOM     38  O   LIG    1        5.063  -7.288   7.865  0.00  0.00    -0.395 OA
ATOM     39  H   LIG    1        4.529  -7.079   8.643  0.00  0.00    +0.209 HD
ENDBRANCH  37  38
ENDBRANCH  36  37
ENDBRANCH  31  36
ENDBRANCH  30  31
ENDBRANCH  15  30
TORSDOF 10
