REMARK  Name = ZINC19632644
REMARK                            x       y       z     vdW  Elec       q    Type
REMARK                         _______ _______ _______ _____ _____    ______ ____
ROOT
ATOM      1  C   LIG    1        2.019  -2.242   1.412  0.00  0.00    +0.285 C 
ENDROOT
BRANCH   1   2
ATOM      2  O   LIG    1        2.954  -1.394   2.082  0.00  0.00    -0.366 OA
ATOM      3  H   LIG    1        3.828  -1.370   1.670  0.00  0.00    +0.212 HD
ENDBRANCH   1   2
BRANCH   1   4
ATOM      4  P   LIG    1        2.653  -3.951   1.396  0.00  0.00    +0.373 P 
ATOM      5  O   LIG    1        1.642  -4.869   0.672  0.00  0.00    -0.255 OA
BRANCH   4   6
ATOM      6  O   LIG    1        2.854  -4.464   2.909  0.00  0.00    -0.322 OA
ATOM      7  H   LIG    1        3.190  -5.368   2.976  0.00  0.00    +0.220 HD
ENDBRANCH   4   6
BRANCH   4   8
ATOM      8  O   LIG    1        4.007  -3.991   0.654  0.00  0.00    -0.322 OA
ATOM      9  H   LIG    1        3.886  -3.683  -0.258  0.00  0.00    +0.220 HD
ENDBRANCH   4   8
ENDBRANCH   1   4
BRANCH   1  10
ATOM     10  P   LIG    1        0.420  -2.196   2.287  0.00  0.00    +0.373 P 
ATOM     11  O   LIG    1       -0.063  -0.711   2.413  0.00  0.00    -0.255 OA
BRANCH  10  12
ATOM     12  O   LIG    1        0.590  -2.813   3.717  0.00  0.00    -0.322 OA
ATOM     13  H   LIG    1        1.246  -2.300   4.215  0.00  0.00    +0.220 HD
ENDBRANCH  10  12
BRANCH  10  14
ATOM     14  O   LIG    1       -0.640  -3.023   1.484  0.00  0.00    -0.322 OA
ATOM     15  H   LIG    1       -0.745  -2.641   0.598  0.00  0.00    +0.220 HD
ENDBRANCH  10  14
ENDBRANCH   1  10
BRANCH   1  16
ATOM     16  C   LIG    1        1.827  -1.756  -0.026  0.00  0.00    +0.183 C 
BRANCH  16  20
ATOM     17  C   LIG    1       -0.016   1.343   0.009  0.00  0.00    +0.130 A 
ATOM     18  N   LIG    1        1.254   1.775  -0.000  0.00  0.00    -0.244 NA
ATOM     19  C   LIG    1        2.058   0.747  -0.014  0.00  0.00    +0.199 A 
ATOM     20  N   LIG    1        1.317  -0.382  -0.013  0.00  0.00    -0.333 N 
ATOM     21  C   LIG    1        0.002  -0.004   0.002  0.00  0.00    +0.107 A 
ENDBRANCH  16  20
ENDBRANCH   1  16
TORSDOF 9
