REMARK  Name = ZINC00047516
REMARK                            x       y       z     vdW  Elec       q    Type
REMARK                         _______ _______ _______ _____ _____    ______ ____
ROOT
ATOM      1  C   LIG    1       -1.255  -0.753   0.010  0.00  0.00    +0.102 A 
ATOM      2  C   LIG    1       -1.269  -2.147   0.009  0.00  0.00    +0.030 A 
ATOM      3  C   LIG    1       -2.523  -2.800  -0.015  0.00  0.00    +0.019 A 
ATOM      4  C   LIG    1       -2.605  -4.189   0.183  0.00  0.00    +0.015 A 
ATOM      5  C   LIG    1       -3.822  -4.801   0.200  0.00  0.00    +0.046 A 
ATOM      6  C   LIG    1       -4.990  -4.060   0.014  0.00  0.00    +0.120 A 
ATOM      7  C   LIG    1       -4.928  -2.692  -0.203  0.00  0.00    +0.092 A 
ATOM      8  C   LIG    1       -3.699  -2.054  -0.231  0.00  0.00    +0.143 A 
ATOM      9  O   LIG    1       -3.625  -0.726  -0.486  0.00  0.00    -0.422 OA
ATOM     10  C   LIG    1       -2.559  -0.063   0.026  0.00  0.00    +0.348 A 
ATOM     11  O   LIG    1       -2.671   1.061   0.479  0.00  0.00    -0.244 OA
ENDROOT
BRANCH   1  13
ATOM     12  C   LIG    1       -0.018   1.503   0.010  0.00  0.00    +0.092 C 
ATOM     13  C   LIG    1        0.002  -0.004   0.002  0.00  0.00    +0.167 C 
ATOM     14  O   LIG    1        1.061  -0.597  -0.011  0.00  0.00    -0.292 OA
ENDBRANCH   1  13
BRANCH   6  15
ATOM     15  O   LIG    1       -6.194  -4.683   0.045  0.00  0.00    -0.507 OA
ATOM     16  H   LIG    1       -6.594  -4.724   0.925  0.00  0.00    +0.292 HD
ENDBRANCH   6  15
TORSDOF 2
