REMARK  Name = ZINC13780154
REMARK                            x       y       z     vdW  Elec       q    Type
REMARK                         _______ _______ _______ _____ _____    ______ ____
ROOT
ATOM      1  C   LIG    1        1.694   2.279   1.227  0.00  0.00    +0.000 A 
ATOM      2  C   LIG    1        2.964   2.795   1.198  0.00  0.00    +0.015 A 
ATOM      3  C   LIG    1        3.708   2.751   0.011  0.00  0.00    -0.024 A 
ATOM      4  C   LIG    1        3.150   2.175  -1.139  0.00  0.00    +0.015 A 
ATOM      5  C   LIG    1        1.881   1.658  -1.096  0.00  0.00    +0.000 A 
ATOM      6  C   LIG    1        1.148   1.704   0.085  0.00  0.00    +0.124 A 
ENDROOT
BRANCH   3   7
ATOM      7  C   LIG    1        5.064   3.306  -0.029  0.00  0.00    +0.021 C 
ATOM      8  C   LIG    1        5.904   3.133   1.034  0.00  0.00    +0.046 C 
ATOM      9  C   LIG    1        7.233   3.751   1.242  0.00  0.00    +0.008 A 
ATOM     10  C   LIG    1        7.995   4.646   0.498  0.00  0.00    +0.010 A 
ATOM     11  C   LIG    1        9.226   5.053   0.971  0.00  0.00    +0.001 A 
ATOM     12  C   LIG    1        9.697   4.579   2.184  0.00  0.00    +0.002 A 
ATOM     13  C   LIG    1        8.945   3.696   2.933  0.00  0.00    +0.024 A 
ATOM     14  C   LIG    1        7.702   3.273   2.473  0.00  0.00    +0.042 A 
ATOM     15  N   LIG    1        6.761   2.408   3.017  0.00  0.00    -0.281 N 
ATOM     16  H   LIG    1        6.865   1.950   3.866  0.00  0.00    +0.155 HD
ATOM     17  C   LIG    1        5.686   2.287   2.219  0.00  0.00    +0.249 C 
ATOM     18  O   LIG    1        4.706   1.598   2.437  0.00  0.00    -0.270 OA
ENDBRANCH   3   7
BRANCH   1  20
ATOM     19  C   LIG    1        1.715   3.008   3.597  0.00  0.00    +0.015 C 
ATOM     20  C   LIG    1        0.890   2.331   2.501  0.00  0.00    -0.009 C 
ATOM     21  C   LIG    1        0.534   0.908   2.937  0.00  0.00    +0.015 C 
ATOM     22  C   LIG    1       -0.394   3.128   2.262  0.00  0.00    +0.015 C 
ENDBRANCH   1  20
BRANCH   5  23
ATOM     23  C   LIG    1        1.279   1.039  -2.332  0.00  0.00    -0.009 C 
ATOM     24  C   LIG    1        0.007   1.798  -2.715  0.00  0.00    +0.015 C 
ATOM     25  C   LIG    1        0.935  -0.425  -2.052  0.00  0.00    +0.015 C 
ATOM     26  C   LIG    1        2.285   1.116  -3.482  0.00  0.00    +0.015 C 
ENDBRANCH   5  23
BRANCH   6  27
ATOM     27  O   LIG    1       -0.108   1.190   0.121  0.00  0.00    -0.506 OA
ATOM     28  H   LIG    1       -0.144   0.256   0.366  0.00  0.00    +0.292 HD
ENDBRANCH   6  27
TORSDOF 4
