REMARK  Name = ZINC35998548
REMARK                            x       y       z     vdW  Elec       q    Type
REMARK                         _______ _______ _______ _____ _____    ______ ____
ROOT
ATOM      1  C   LIG    1        5.979  -4.737  -0.079  0.00  0.00    +0.121 A 
ATOM      2  C   LIG    1        7.226  -4.125  -0.082  0.00  0.00    +0.046 A 
ATOM      3  C   LIG    1        8.372  -4.892  -0.096  0.00  0.00    +0.013 A 
ATOM      4  C   LIG    1        8.278  -6.283  -0.108  0.00  0.00    +0.003 A 
ATOM      5  C   LIG    1        7.025  -6.894  -0.105  0.00  0.00    +0.013 A 
ATOM      6  C   LIG    1        5.883  -6.121  -0.085  0.00  0.00    +0.046 A 
ENDROOT
BRANCH   4   7
ATOM      7  C   LIG    1        9.508  -7.111  -0.124  0.00  0.00    +0.100 A 
ATOM      8  C   LIG    1        9.680  -8.365   0.516  0.00  0.00    +0.028 A 
ATOM      9  C   LIG    1       10.950  -8.786   0.255  0.00  0.00    +0.117 A 
ATOM     10  N   LIG    1       11.547  -7.850  -0.508  0.00  0.00    -0.262 N 
ATOM     11  N   LIG    1       10.632  -6.816  -0.739  0.00  0.00    -0.170 NA
BRANCH   8  12
ATOM     12  C   LIG    1        8.665  -9.084   1.322  0.00  0.00    -0.011 A 
ATOM     13  C   LIG    1        7.964  -8.433   2.341  0.00  0.00    +0.028 A 
ATOM     14  C   LIG    1        7.028  -9.140   3.067  0.00  0.00    +0.111 A 
ATOM     15  N   LIG    1        6.792 -10.413   2.809  0.00  0.00    -0.263 NA
ATOM     16  C   LIG    1        7.431 -11.064   1.857  0.00  0.00    +0.111 A 
ATOM     17  C   LIG    1        8.379 -10.431   1.079  0.00  0.00    +0.028 A 
ENDBRANCH   8  12
BRANCH  10  18
ATOM     18  C   LIG    1       12.921  -7.907  -1.016  0.00  0.00    +0.256 C 
BRANCH  18  19
ATOM     19  C   LIG    1       12.910  -7.745  -2.537  0.00  0.00    +0.409 C 
ATOM     20  F   LIG    1       12.158  -8.776  -3.110  0.00  0.00    -0.169 F 
ATOM     21  F   LIG    1       14.221  -7.799  -3.021  0.00  0.00    -0.169 F 
ATOM     22  F   LIG    1       12.340  -6.511  -2.870  0.00  0.00    -0.169 F 
ENDBRANCH  18  19
ENDBRANCH  10  18
ENDBRANCH   4   7
BRANCH   1  23
ATOM     23  O   LIG    1        4.852  -3.978  -0.065  0.00  0.00    -0.486 OA
BRANCH  23  24
ATOM     24  C   LIG    1        5.025  -2.559  -0.059  0.00  0.00    +0.284 C 
BRANCH  24  32
ATOM     25  C   LIG    1       -0.016   1.357   0.009  0.00  0.00    +0.001 A 
ATOM     26  C   LIG    1        1.170   2.088   0.002  0.00  0.00    +0.002 A 
ATOM     27  C   LIG    1        2.379   1.465  -0.013  0.00  0.00    +0.028 A 
ATOM     28  C   LIG    1        2.440   0.060  -0.021  0.00  0.00    +0.071 A 
ATOM     29  C   LIG    1        1.232  -0.681  -0.013  0.00  0.00    +0.000 A 
ATOM     30  C   LIG    1        1.295  -2.087  -0.021  0.00  0.00    +0.012 A 
ATOM     31  C   LIG    1        2.527  -2.677  -0.036  0.00  0.00    +0.027 A 
ATOM     32  C   LIG    1        3.675  -1.889  -0.043  0.00  0.00    +0.079 A 
ATOM     33  N   LIG    1        3.613  -0.580  -0.035  0.00  0.00    -0.248 NA
ATOM     34  C   LIG    1        0.002  -0.004   0.002  0.00  0.00    +0.010 A 
ENDBRANCH  24  32
ENDBRANCH  23  24
ENDBRANCH   1  23
TORSDOF 7
