REMARK  Name = ZINC29136330
REMARK                            x       y       z     vdW  Elec       q    Type
REMARK                         _______ _______ _______ _____ _____    ______ ____
ROOT
ATOM      1  C   LIG    1        4.811  -7.508   0.093  0.00  0.00    +0.068 A 
ATOM      2  C   LIG    1        6.114  -7.017   0.090  0.00  0.00    +0.031 A 
ATOM      3  C   LIG    1        7.190  -7.902   0.152  0.00  0.00    +0.070 A 
ATOM      4  C   LIG    1        6.955  -9.288   0.217  0.00  0.00    +0.173 A 
ATOM      5  C   LIG    1        5.655  -9.774   0.220  0.00  0.00    +0.202 A 
ATOM      6  C   LIG    1        4.582  -8.894   0.165  0.00  0.00    +0.173 A 
ENDROOT
BRANCH   1   7
ATOM      7  C   LIG    1        3.672  -6.575   0.028  0.00  0.00    +0.197 C 
ATOM      8  O   LIG    1        3.387  -6.036  -1.024  0.00  0.00    -0.287 OA
BRANCH   7  12
ATOM      9  C   LIG    1        1.383  -5.772   3.514  0.00  0.00    +0.128 A 
ATOM     10  C   LIG    1        0.988  -5.247   2.289  0.00  0.00    +0.047 A 
ATOM     11  C   LIG    1        1.727  -5.504   1.156  0.00  0.00    +0.015 A 
ATOM     12  C   LIG    1        2.877  -6.296   1.239  0.00  0.00    +0.023 A 
ATOM     13  C   LIG    1        3.270  -6.822   2.473  0.00  0.00    +0.015 A 
ATOM     14  C   LIG    1        2.529  -6.555   3.602  0.00  0.00    +0.047 A 
BRANCH   9  15
ATOM     15  O   LIG    1        0.652  -5.515   4.628  0.00  0.00    -0.456 OA
BRANCH  15  19
ATOM     16  C   LIG    1       -2.863  -7.607   5.162  0.00  0.00    +0.000 A 
ATOM     17  C   LIG    1       -2.133  -7.771   4.000  0.00  0.00    +0.004 A 
ATOM     18  C   LIG    1       -0.955  -7.071   3.818  0.00  0.00    +0.046 A 
ATOM     19  C   LIG    1       -0.506  -6.204   4.804  0.00  0.00    +0.128 A 
ATOM     20  C   LIG    1       -1.241  -6.041   5.969  0.00  0.00    +0.046 A 
ATOM     21  C   LIG    1       -2.418  -6.743   6.146  0.00  0.00    +0.004 A 
ENDBRANCH  15  19
ENDBRANCH   9  15
ENDBRANCH   7  12
ENDBRANCH   1   7
BRANCH   3  22
ATOM     22  C   LIG    1        8.569  -7.387   0.149  0.00  0.00    +0.222 C 
ATOM     23  O   LIG    1        9.507  -8.161   0.102  0.00  0.00    -0.284 OA
BRANCH  22  24
ATOM     24  C   LIG    1        8.815  -5.931   0.202  0.00  0.00    +0.150 A 
ATOM     25  N   LIG    1        7.950  -4.954   0.361  0.00  0.00    -0.236 NA
ATOM     26  C   LIG    1        8.309  -3.667   0.391  0.00  0.00    +0.079 A 
ATOM     27  C   LIG    1        7.480  -2.528   0.555  0.00  0.00    +0.029 A 
ATOM     28  C   LIG    1        8.009  -1.278   0.562  0.00  0.00    +0.002 A 
ATOM     29  C   LIG    1        9.373  -1.059   0.409  0.00  0.00    +0.001 A 
ATOM     30  C   LIG    1       10.219  -2.139   0.246  0.00  0.00    +0.017 A 
ATOM     31  C   LIG    1        9.696  -3.411   0.238  0.00  0.00    +0.040 A 
ATOM     32  S   LIG    1       10.364  -5.049   0.072  0.00  0.00    -0.064 S 
ENDBRANCH  22  24
ENDBRANCH   3  22
BRANCH   4  33
ATOM     33  O   LIG    1        8.000 -10.150   0.278  0.00  0.00    -0.503 OA
ATOM     34  H   LIG    1        8.878  -9.822   0.276  0.00  0.00    +0.292 HD
ENDBRANCH   4  33
BRANCH   5  35
ATOM     35  O   LIG    1        5.431 -11.115   0.282  0.00  0.00    -0.501 OA
ATOM     36  H   LIG    1        5.352 -11.459   1.182  0.00  0.00    +0.292 HD
ENDBRANCH   5  35
BRANCH   6  37
ATOM     37  O   LIG    1        3.314  -9.372   0.173  0.00  0.00    -0.503 OA
ATOM     38  H   LIG    1        2.957  -9.558  -0.706  0.00  0.00    +0.292 HD
ENDBRANCH   6  37
TORSDOF 9
