REMARK  Name = ZINC30691803
REMARK                            x       y       z     vdW  Elec       q    Type
REMARK                         _______ _______ _______ _____ _____    ______ ____
ROOT
ATOM      1  C   LIG    1        3.447  -0.518   0.154  0.00  0.00    +0.105 C 
ENDROOT
BRANCH   1   5
ATOM      2  C   LIG    1        0.286  -3.030   1.552  0.00  0.00    +0.106 A 
ATOM      3  C   LIG    1        1.179  -3.502   0.607  0.00  0.00    +0.029 A 
ATOM      4  C   LIG    1        2.201  -2.689   0.155  0.00  0.00    +0.006 A 
ATOM      5  C   LIG    1        2.332  -1.404   0.648  0.00  0.00    -0.034 A 
ATOM      6  C   LIG    1        1.441  -0.931   1.592  0.00  0.00    +0.026 A 
ATOM      7  C   LIG    1        0.417  -1.744   2.045  0.00  0.00    +0.066 A 
ATOM      8 CL   LIG    1       -0.704  -1.151   3.231  0.00  0.00    -0.082 Cl
BRANCH   2  10
ATOM      9  C   LIG    1       -0.665  -4.342   3.879  0.00  0.00    +0.200 C 
ATOM     10  S   LIG    1       -1.022  -4.064   2.122  0.00  0.00    -0.004 S 
ATOM     11  O   LIG    1       -0.871  -5.275   1.394  0.00  0.00    -0.170 OA
ATOM     12  O   LIG    1       -2.195  -3.275   1.980  0.00  0.00    -0.170 OA
ENDBRANCH   2  10
ENDBRANCH   1   5
BRANCH   1  13
ATOM     13  C   LIG    1        4.323  -0.120   1.315  0.00  0.00    +0.226 C 
ATOM     14  N   LIG    1        5.420  -0.845   1.611  0.00  0.00    -0.269 N 
ATOM     15  H   LIG    1        5.639  -1.765   1.050  0.00  0.00    +0.156 HD
ATOM     16  O   LIG    1        4.040   0.853   1.982  0.00  0.00    -0.275 OA
BRANCH  14  17
ATOM     17  C   LIG    1        6.277  -0.428   2.628  0.00  0.00    +0.143 A 
ATOM     18  C   LIG    1        5.839   0.493   3.577  0.00  0.00    +0.154 A 
ATOM     19  N   LIG    1        6.653   0.885   4.538  0.00  0.00    -0.258 NA
ATOM     20  C   LIG    1        7.883   0.405   4.601  0.00  0.00    +0.130 A 
ATOM     21  C   LIG    1        8.322  -0.509   3.662  0.00  0.00    +0.132 A 
ATOM     22  N   LIG    1        7.510  -0.911   2.699  0.00  0.00    -0.237 NA
ENDBRANCH  14  17
ENDBRANCH   1  13
BRANCH   1  23
ATOM     23  C   LIG    1        2.855   0.735  -0.492  0.00  0.00    +0.021 C 
BRANCH  23  24
ATOM     24  C   LIG    1        2.062   0.340  -1.739  0.00  0.00    -0.002 C 
ATOM     25  C   LIG    1        1.353   1.573  -2.355  0.00  0.00    +0.011 C 
ATOM     26  C   LIG    1        1.170   1.188  -3.837  0.00  0.00    +0.074 C 
ATOM     27  C   LIG    1        2.213   0.135  -4.150  0.00  0.00    +0.134 C 
ATOM     28  O   LIG    1        2.379  -0.415  -5.212  0.00  0.00    -0.297 OA
ATOM     29  C   LIG    1        3.012  -0.105  -2.878  0.00  0.00    +0.078 C 
ENDBRANCH  23  24
ENDBRANCH   1  23
TORSDOF 6
