REMARK  Name = ZINC13757952
REMARK                            x       y       z     vdW  Elec       q    Type
REMARK                         _______ _______ _______ _____ _____    ______ ____
ROOT
ATOM      1  C   LIG    1        3.420  -2.000   2.238  0.00  0.00    +0.048 A 
ATOM      2  C   LIG    1        2.044  -2.031   2.028  0.00  0.00    +0.025 A 
ATOM      3  C   LIG    1        1.254  -2.887   2.761  0.00  0.00    +0.015 A 
ATOM      4  C   LIG    1        1.835  -3.727   3.716  0.00  0.00    +0.037 A 
ATOM      5  C   LIG    1        3.217  -3.693   3.925  0.00  0.00    +0.015 A 
ATOM      6  C   LIG    1        4.002  -2.838   3.185  0.00  0.00    +0.025 A 
ENDROOT
BRANCH   4   7
ATOM      7  C   LIG    1        0.991  -4.646   4.503  0.00  0.00    +0.251 C 
ATOM      8  N   LIG    1       -0.246  -4.268   4.880  0.00  0.00    -0.267 N 
ATOM      9  C   LIG    1       -1.071  -5.127   5.746  0.00  0.00    +0.114 C 
ATOM     10  C   LIG    1       -2.021  -5.954   4.912  0.00  0.00    +0.020 C 
ATOM     11  C   LIG    1       -3.044  -5.123   4.149  0.00  0.00    +0.006 C 
ATOM     12  C   LIG    1       -2.384  -4.333   3.024  0.00  0.00    +0.037 C 
ATOM     13  C   LIG    1       -1.852  -3.023   3.580  0.00  0.00    -0.026 A 
ATOM     14  C   LIG    1       -2.422  -1.827   3.201  0.00  0.00    +0.005 A 
ATOM     15  C   LIG    1       -1.900  -0.630   3.702  0.00  0.00    +0.000 A 
ATOM     16  C   LIG    1       -0.818  -0.651   4.564  0.00  0.00    +0.002 A 
ATOM     17  C   LIG    1       -0.257  -1.853   4.949  0.00  0.00    +0.024 A 
ATOM     18  C   LIG    1       -0.784  -3.045   4.467  0.00  0.00    +0.040 A 
ATOM     19  O   LIG    1        1.412  -5.744   4.811  0.00  0.00    -0.270 OA
ENDBRANCH   4   7
BRANCH   1  20
ATOM     20  N   LIG    1        4.216  -1.133   1.497  0.00  0.00    -0.216 N 
ATOM     21  H   LIG    1        4.892  -0.597   1.940  0.00  0.00    +0.174 HD
BRANCH  20  22
ATOM     22  S   LIG    1        4.009  -1.017  -0.142  0.00  0.00    +0.072 S 
ATOM     23  O   LIG    1        2.629  -0.756  -0.360  0.00  0.00    -0.150 OA
ATOM     24  O   LIG    1        5.032  -0.155  -0.621  0.00  0.00    -0.150 OA
BRANCH  22  28
ATOM     25  C   LIG    1        4.843  -5.108  -1.891  0.00  0.00    +0.000 A 
ATOM     26  C   LIG    1        3.584  -4.807  -1.407  0.00  0.00    +0.002 A 
ATOM     27  C   LIG    1        3.329  -3.558  -0.873  0.00  0.00    +0.029 A 
ATOM     28  C   LIG    1        4.334  -2.610  -0.822  0.00  0.00    +0.108 A 
ATOM     29  C   LIG    1        5.593  -2.911  -1.306  0.00  0.00    +0.029 A 
ATOM     30  C   LIG    1        5.848  -4.160  -1.842  0.00  0.00    +0.002 A 
ENDBRANCH  22  28
ENDBRANCH  20  22
ENDBRANCH   1  20
TORSDOF 4
