REMARK  Name = ZINC14946476
REMARK                            x       y       z     vdW  Elec       q    Type
REMARK                         _______ _______ _______ _____ _____    ______ ____
ROOT
ATOM      1  C   LIG    1       -1.300   3.960   2.435  0.00  0.00    +0.065 C 
ATOM      2  C   LIG    1       -2.622   3.646   2.821  0.00  0.00    +0.023 C 
ATOM      3  C   LIG    1       -3.429   2.792   2.057  0.00  0.00    +0.006 C 
ATOM      4  C   LIG    1       -4.698   2.517   2.468  0.00  0.00    +0.000 C 
ATOM      5  C   LIG    1       -5.204   3.075   3.640  0.00  0.00    +0.002 C 
ATOM      6  C   LIG    1       -4.444   3.899   4.411  0.00  0.00    +0.019 C 
ATOM      7  C   LIG    1       -3.131   4.211   4.015  0.00  0.00    +0.058 C 
ATOM      8  N   LIG    1       -2.398   5.063   4.811  0.00  0.00    -0.310 NA
ATOM      9  H   LIG    1       -2.783   5.466   5.673  0.00  0.00    +0.122 HD
ATOM     10  C   LIG    1       -1.129   5.342   4.389  0.00  0.00    +0.061 C 
ATOM     11  C   LIG    1       -0.381   6.288   5.295  0.00  0.00    +0.019 C 
ATOM     12  C   LIG    1        1.121   6.212   5.030  0.00  0.00    +0.004 C 
ATOM     13  C   LIG    1        1.358   6.387   3.526  0.00  0.00    +0.032 C 
ATOM     14  C   LIG    1        0.847   5.138   2.811  0.00  0.00    +0.121 C 
ATOM     15  C   LIG    1       -0.561   4.821   3.240  0.00  0.00    +0.052 C 
ENDROOT
BRANCH   1  16
ATOM     16  N   LIG    1       -0.754   3.427   1.277  0.00  0.00    -0.314 NA
ATOM     17  H   LIG    1        0.239   3.282   1.379  0.00  0.00    +0.122 HD
BRANCH  16  18
ATOM     18  C   LIG    1       -1.044   4.280   0.117  0.00  0.00    +0.062 C 
BRANCH  18  19
ATOM     19  C   LIG    1       -0.537   3.600  -1.156  0.00  0.00    -0.064 C 
BRANCH  19  21
ATOM     20  C   LIG    1       -0.150   3.953  -3.520  0.00  0.00    -0.097 C 
ATOM     21  N   LIG    1       -0.817   4.479  -2.311  0.00  0.00    +0.377 N 
ATOM     22  H   LIG    1       -0.452   5.418  -2.111  0.00  0.00    -0.083 HD
ATOM     23  C   LIG    1       -2.275   4.569  -2.535  0.00  0.00    -0.097 C 
ENDBRANCH  19  21
ENDBRANCH  18  19
ENDBRANCH  16  18
ENDBRANCH   1  16
BRANCH  14  24
ATOM     24  O   LIG    1        1.696   4.033   3.127  0.00  0.00    -0.391 OA
ATOM     25  H   LIG    1        2.622   4.165   2.879  0.00  0.00    +0.210 HD
ENDBRANCH  14  24
TORSDOF 5
