REMARK  Name = ZINC28340900
REMARK                            x       y       z     vdW  Elec       q    Type
REMARK                         _______ _______ _______ _____ _____    ______ ____
ROOT
ATOM      1  C   LIG    1        3.431  -2.735   1.060  0.00  0.00    +0.045 A 
ATOM      2  C   LIG    1        4.643  -3.430   1.035  0.00  0.00    +0.015 A 
ATOM      3  C   LIG    1        4.974  -4.200  -0.056  0.00  0.00    +0.024 A 
ATOM      4  C   LIG    1        4.105  -4.293  -1.142  0.00  0.00    +0.028 A 
ATOM      5  C   LIG    1        2.895  -3.613  -1.131  0.00  0.00    +0.032 A 
ATOM      6  C   LIG    1        2.551  -2.827  -0.037  0.00  0.00    -0.003 A 
ENDROOT
BRANCH   6   7
ATOM      7  C   LIG    1        1.265  -2.096  -0.021  0.00  0.00    -0.009 A 
ATOM      8  C   LIG    1        0.066  -2.789  -0.013  0.00  0.00    +0.009 A 
ATOM      9  C   LIG    1       -1.146  -2.109   0.002  0.00  0.00    +0.001 A 
ATOM     10  C   LIG    1       -1.190  -0.748   0.010  0.00  0.00    +0.008 A 
ATOM     11  C   LIG    1        0.002  -0.004   0.002  0.00  0.00    -0.017 A 
ATOM     12  C   LIG    1       -0.017   1.402   0.010  0.00  0.00    +0.008 A 
ATOM     13  C   LIG    1        1.157   2.091   0.002  0.00  0.00    +0.001 A 
ATOM     14  C   LIG    1        2.380   1.424  -0.012  0.00  0.00    +0.001 A 
ATOM     15  C   LIG    1        2.435   0.063  -0.021  0.00  0.00    +0.009 A 
ATOM     16  C   LIG    1        1.246  -0.680  -0.013  0.00  0.00    -0.010 A 
ENDBRANCH   6   7
BRANCH   1  19
ATOM     17  N   LIG    1        3.920  -1.825   3.274  0.00  0.00    -0.298 N 
ATOM     18  H   LIG    1        4.874  -2.371   3.257  0.00  0.00    +0.150 HD
ATOM     19  C   LIG    1        3.076  -1.910   2.227  0.00  0.00    +0.245 C 
ATOM     20  O   LIG    1        2.020  -1.306   2.245  0.00  0.00    -0.270 OA
BRANCH  17  21
ATOM     21  C   LIG    1        3.566  -1.004   4.435  0.00  0.00    +0.182 C 
BRANCH  21  22
ATOM     22  C   LIG    1        2.709  -1.809   5.377  0.00  0.00    +0.327 C 
ATOM     23  O   LIG    1        2.423  -2.952   5.106  0.00  0.00    -0.249 OA
BRANCH  22  24
ATOM     24  O   LIG    1        2.263  -1.258   6.516  0.00  0.00    -0.467 OA
ATOM     25  C   LIG    1        1.442  -2.092   7.376  0.00  0.00    +0.280 C 
ENDBRANCH  22  24
ENDBRANCH  21  22
BRANCH  21  26
ATOM     26  C   LIG    1        4.841  -0.564   5.156  0.00  0.00    +0.036 C 
BRANCH  26  28
ATOM     27  C   LIG    1        4.866   1.645   3.987  0.00  0.00    +0.007 C 
ATOM     28  C   LIG    1        5.652   0.357   4.242  0.00  0.00    -0.015 C 
ATOM     29  C   LIG    1        6.985   0.697   4.912  0.00  0.00    +0.007 C 
ENDBRANCH  26  28
ENDBRANCH  21  26
ENDBRANCH  17  21
ENDBRANCH   1  19
BRANCH   4  30
ATOM     30  N   LIG    1        4.450  -5.075  -2.240  0.00  0.00    -0.345 N 
ATOM     31  H   LIG    1        3.766  -5.150  -3.098  0.00  0.00    +0.146 HD
BRANCH  30  32
ATOM     32  C   LIG    1        5.723  -5.799  -2.252  0.00  0.00    +0.086 C 
BRANCH  32  33
ATOM     33  C   LIG    1        5.855  -6.576  -3.564  0.00  0.00    -0.048 C 
BRANCH  33  34
ATOM     34  N   LIG    1        4.685  -7.447  -3.737  0.00  0.00    +0.382 N 
ATOM     35  H   LIG    1        4.626  -8.154  -2.896  0.00  0.00    -0.090 HD
ATOM     36  H   LIG    1        3.772  -6.833  -3.765  0.00  0.00    -0.090 HD
ATOM     37  H   LIG    1        4.780  -8.005  -4.680  0.00  0.00    -0.090 HD
ENDBRANCH  33  34
BRANCH  33  38
ATOM     38  C   LIG    1        7.125  -7.430  -3.525  0.00  0.00    +0.051 C 
BRANCH  38  39
ATOM     39  S   LIG    1        7.360  -8.236  -5.133  0.00  0.00    -0.180 S 
ATOM     40  H   LIG    1        8.226  -8.894  -5.297  0.00  0.00    +0.102 HD
ENDBRANCH  38  39
ENDBRANCH  33  38
ENDBRANCH  32  33
ENDBRANCH  30  32
ENDBRANCH   4  30
TORSDOF 13
