REMARK  Name = ZINC29125023
REMARK                            x       y       z     vdW  Elec       q    Type
REMARK                         _______ _______ _______ _____ _____    ______ ____
ROOT
ATOM      1  C   LIG    1        0.107   1.690   0.050  0.00  0.00    +0.063 C 
ATOM      2  C   LIG    1       -0.762   1.557   1.274  0.00  0.00    +0.038 C 
ATOM      3  N   LIG    1       -2.006   1.283   1.149  0.00  0.00    -0.190 NA
ENDROOT
BRANCH   3   4
ATOM      4  N   LIG    1       -2.838   1.277   2.276  0.00  0.00    -0.219 N 
ATOM      5  H   LIG    1       -2.443   1.592   3.253  0.00  0.00    +0.176 HD
BRANCH   4   6
ATOM      6  C   LIG    1       -4.123   0.886   2.163  0.00  0.00    +0.147 C 
ATOM      7  S   LIG    1       -5.140   0.879   3.540  0.00  0.00    -0.017 S 
BRANCH   6   8
ATOM      8  N   LIG    1       -4.607   0.501   0.966  0.00  0.00    -0.339 N 
ATOM      9  H   LIG    1       -3.954   0.506   0.081  0.00  0.00    +0.144 HD
ATOM     10  H   LIG    1       -5.656   0.182   0.873  0.00  0.00    +0.144 HD
ENDBRANCH   6   8
ENDBRANCH   4   6
ENDBRANCH   3   4
BRANCH   2  11
ATOM     11  C   LIG    1       -0.166   1.746   2.645  0.00  0.00    +0.087 C 
BRANCH  11  12
ATOM     12  C   LIG    1        0.232   0.406   3.209  0.00  0.00    -0.042 A 
ATOM     13  C   LIG    1       -0.672  -0.321   3.961  0.00  0.00    +0.007 A 
ATOM     14  C   LIG    1       -0.312  -1.552   4.475  0.00  0.00    +0.046 A 
ATOM     15  C   LIG    1        0.961  -2.053   4.245  0.00  0.00    +0.120 A 
ATOM     16  C   LIG    1        1.868  -1.319   3.495  0.00  0.00    +0.046 A 
ATOM     17  C   LIG    1        1.501  -0.091   2.979  0.00  0.00    +0.007 A 
BRANCH  15  18
ATOM     18  O   LIG    1        1.319  -3.261   4.753  0.00  0.00    -0.495 OA
ATOM     19  C   LIG    1        0.334  -3.962   5.516  0.00  0.00    +0.277 C 
ENDBRANCH  15  18
ENDBRANCH  11  12
ENDBRANCH   2  11
TORSDOF 6
