REMARK  Name = ZINC18207349
REMARK                            x       y       z     vdW  Elec       q    Type
REMARK                         _______ _______ _______ _____ _____    ______ ____
ROOT
ATOM      1  C   LIG    1       -4.917   1.238   0.656  0.00  0.00    +0.131 C 
ATOM      2  N   LIG    1       -3.601   1.876   0.793  0.00  0.00    -0.310 N 
ATOM      3  C   LIG    1       -2.584   1.153   0.021  0.00  0.00    +0.169 C 
ATOM      4  CA  LIG    1       -1.290   1.926   0.019  0.00  0.00    +0.143 C 
ATOM      5  N   LIG    1       -1.306   3.234   0.031  0.00  0.00    -0.235 NA
ATOM      6  C   LIG    1       -2.476   3.885   0.082  0.00  0.00    +0.168 A 
ATOM      7  C   LIG    1       -2.560   5.266  -0.232  0.00  0.00    +0.280 A 
ATOM      8  O   LIG    1       -1.561   5.905  -0.512  0.00  0.00    -0.265 OA
ATOM      9  N   LIG    1       -3.777   5.853  -0.213  0.00  0.00    -0.293 N 
ATOM     10  H   LIG    1       -3.862   6.795  -0.428  0.00  0.00    +0.172 HD
ATOM     11  C   LIG    1       -4.883   5.129   0.108  0.00  0.00    +0.195 A 
ATOM     12  N   LIG    1       -4.819   3.851   0.424  0.00  0.00    -0.199 NA
ATOM     13  C   LIG    1       -3.656   3.200   0.437  0.00  0.00    +0.156 A 
ENDROOT
BRANCH  11  14
ATOM     14  N   LIG    1       -6.102   5.747   0.101  0.00  0.00    -0.329 N 
ATOM     15  H   LIG    1       -6.901   5.246   0.327  0.00  0.00    +0.145 HD
ATOM     16  H   LIG    1       -6.168   6.687  -0.130  0.00  0.00    +0.145 HD
ENDBRANCH  11  14
BRANCH   4  17
ATOM     17  C   LIG    1       -0.014   1.212   0.009  0.00  0.00    +0.353 C 
ATOM     18  O   LIG    1        0.002  -0.004   0.002  0.00  0.00    -0.244 OA
BRANCH  17  19
ATOM     19  OXT LIG    1        1.145   1.903   0.001  0.00  0.00    -0.476 OA
ATOM     20  HXT LIG    1        1.132   2.840   0.006  0.00  0.00    +0.295 HD
ENDBRANCH  17  19
ENDBRANCH   4  17
TORSDOF 3
