REMARK  Name = ZINC33830395
REMARK                            x       y       z     vdW  Elec       q    Type
REMARK                         _______ _______ _______ _____ _____    ______ ____
ROOT
ATOM      1  C   LIG    1        2.223   1.893  -1.477  0.00  0.00    +0.012 C 
ATOM      2  C   LIG    1        1.824   0.416  -1.441  0.00  0.00    -0.020 C 
ATOM      3  C   LIG    1        2.938  -0.453  -2.036  0.00  0.00    +0.039 C 
ATOM      4  C   LIG    1        4.002  -0.483  -0.905  0.00  0.00    +0.122 C 
ATOM      5  C   LIG    1        3.244  -0.199   0.415  0.00  0.00    +0.063 C 
ATOM      6  C   LIG    1        0.443   0.230  -2.031  0.00  0.00    +0.013 C 
ATOM      7  C   LIG    1        0.424   0.489  -3.531  0.00  0.00    +0.032 C 
ATOM      8  C   LIG    1        0.758   1.928  -3.797  0.00  0.00    -0.026 C 
ATOM      9  C   LIG    1        0.507   2.871  -2.938  0.00  0.00    -0.057 C 
ATOM     10  C   LIG    1       -0.153   2.624  -1.610  0.00  0.00    +0.032 C 
ATOM     11  C   LIG    1       -1.397   3.506  -1.469  0.00  0.00    +0.048 C 
ATOM     12  C   LIG    1       -1.005   4.977  -1.637  0.00  0.00    +0.182 C 
ATOM     13  C   LIG    1       -0.343   5.156  -2.985  0.00  0.00    +0.171 C 
ATOM     14  O   LIG    1       -0.755   5.971  -3.775  0.00  0.00    -0.294 OA
ATOM     15  C   LIG    1        0.888   4.297  -3.311  0.00  0.00    +0.047 C 
ATOM     16  C   LIG    1        2.114   4.737  -2.506  0.00  0.00    +0.023 C 
ATOM     17  C   LIG    1        1.190   4.380  -4.809  0.00  0.00    +0.023 C 
ATOM     18  C   LIG    1       -0.516   1.175  -1.330  0.00  0.00    +0.036 C 
ATOM     19  C   LIG    1       -1.946   0.906  -1.804  0.00  0.00    +0.020 C 
ATOM     20  C   LIG    1       -0.429   0.945   0.168  0.00  0.00    +0.141 C 
ATOM     21  O   LIG    1       -1.431   0.808   0.828  0.00  0.00    -0.297 OA
ATOM     22  C   LIG    1        0.942   0.891   0.826  0.00  0.00    +0.082 C 
ATOM     23  C   LIG    1        1.772  -0.097   0.025  0.00  0.00    -0.011 C 
ATOM     24  C   LIG    1        1.126  -1.483   0.068  0.00  0.00    +0.012 C 
ENDROOT
BRANCH   4  25
ATOM     25  O   LIG    1        4.988   0.526  -1.133  0.00  0.00    -0.391 OA
ATOM     26  H   LIG    1        5.480   0.416  -1.958  0.00  0.00    +0.210 HD
ENDBRANCH   4  25
BRANCH   5  27
ATOM     27  C   LIG    1        3.454  -1.347   1.404  0.00  0.00    +0.130 C 
ATOM     28  C   LIG    1        4.919  -1.381   1.843  0.00  0.00    +0.050 C 
BRANCH  27  29
ATOM     29  O   LIG    1        3.117  -2.585   0.774  0.00  0.00    -0.381 OA
ATOM     30  H   LIG    1        2.197  -2.853   0.902  0.00  0.00    +0.211 HD
ENDBRANCH  27  29
BRANCH  27  31
ATOM     31  C   LIG    1        2.573  -1.140   2.608  0.00  0.00    +0.187 C 
ATOM     32  O   LIG    1        2.207  -0.022   2.908  0.00  0.00    -0.290 OA
BRANCH  31  33
ATOM     33  C   LIG    1        2.158  -2.286   3.417  0.00  0.00    +0.048 C 
ATOM     34  C   LIG    1        1.378  -2.103   4.484  0.00  0.00    +0.010 C 
BRANCH  34  35
ATOM     35  C   LIG    1        0.951  -3.284   5.317  0.00  0.00    +0.079 C 
ATOM     36  C   LIG    1       -0.576  -3.382   5.318  0.00  0.00    +0.045 C 
ATOM     37  C   LIG    1        1.451  -3.103   6.752  0.00  0.00    +0.045 C 
BRANCH  35  38
ATOM     38  O   LIG    1        1.505  -4.480   4.767  0.00  0.00    -0.385 OA
ATOM     39  H   LIG    1        2.471  -4.488   4.735  0.00  0.00    +0.211 HD
ENDBRANCH  35  38
ENDBRANCH  34  35
ENDBRANCH  31  33
ENDBRANCH  27  31
ENDBRANCH   5  27
BRANCH  12  40
ATOM     40  O   LIG    1       -2.174   5.795  -1.563  0.00  0.00    -0.384 OA
ATOM     41  H   LIG    1       -1.999   6.741  -1.662  0.00  0.00    +0.210 HD
ENDBRANCH  12  40
TORSDOF 8
