REMARK  Name = ZINC22441678
REMARK                            x       y       z     vdW  Elec       q    Type
REMARK                         _______ _______ _______ _____ _____    ______ ____
ROOT
ATOM      1  C   LIG    1       -0.018   1.465   0.010  0.00  0.00    +0.104 C 
ATOM      2  N   LIG    1        0.002  -0.004   0.002  0.00  0.00    -0.307 NA
ENDROOT
BRANCH   2   3
ATOM      3  C   LIG    1       -1.360  -0.549  -0.083  0.00  0.00    +0.065 C 
BRANCH   3   4
ATOM      4  C   LIG    1       -1.971  -0.185  -1.437  0.00  0.00    -0.063 C 
BRANCH   4   5
ATOM      5  N   LIG    1       -3.333  -0.730  -1.522  0.00  0.00    +0.381 N 
ATOM      6  H   LIG    1       -3.326  -1.718  -1.317  0.00  0.00    -0.082 HD
ATOM      7  C   LIG    1       -4.229  -0.016  -0.577  0.00  0.00    -0.079 C 
ATOM      8  C   LIG    1       -5.640  -0.275  -1.163  0.00  0.00    -0.020 C 
ATOM      9  C   LIG    1       -5.398  -0.212  -2.688  0.00  0.00    -0.020 C 
ATOM     10  C   LIG    1       -3.894  -0.492  -2.869  0.00  0.00    -0.079 C 
ENDBRANCH   4   5
ENDBRANCH   3   4
ENDBRANCH   2   3
BRANCH   2  11
ATOM     11  C   LIG    1        0.706  -0.527   1.180  0.00  0.00    +0.088 C 
BRANCH  11  12
ATOM     12  C   LIG    1        2.185  -0.143   1.103  0.00  0.00    +0.050 C 
BRANCH  12  13
ATOM     13  C   LIG    1        2.907  -0.680   2.312  0.00  0.00    -0.045 A 
ATOM     14  C   LIG    1        3.000   0.087   3.458  0.00  0.00    +0.005 A 
ATOM     15  C   LIG    1        3.663  -0.404   4.567  0.00  0.00    +0.022 A 
ATOM     16  C   LIG    1        4.233  -1.664   4.531  0.00  0.00    +0.059 A 
ATOM     17 CL   LIG    1        5.066  -2.281   5.923  0.00  0.00    -0.082 Cl
ATOM     18  C   LIG    1        4.140  -2.432   3.383  0.00  0.00    +0.060 A 
ATOM     19 CL   LIG    1        4.855  -4.013   3.335  0.00  0.00    -0.082 Cl
ATOM     20  C   LIG    1        3.471  -1.941   2.276  0.00  0.00    +0.025 A 
ENDBRANCH  12  13
ENDBRANCH  11  12
ENDBRANCH   2  11
TORSDOF 6
