REMARK  Name = ZINC13812765
REMARK                            x       y       z     vdW  Elec       q    Type
REMARK                         _______ _______ _______ _____ _____    ______ ____
ROOT
ATOM      1  C   LIG    1        0.069   1.090   0.112  0.00  0.00    +0.154 C 
ATOM      2  N   LIG    1       -0.426   1.583   1.399  0.00  0.00    -0.295 N 
ATOM      3  C   LIG    1       -0.538   2.934   1.612  0.00  0.00    +0.148 A 
ATOM      4  C   LIG    1       -1.018   3.426   2.845  0.00  0.00    +0.037 A 
ATOM      5  C   LIG    1       -1.123   4.814   3.019  0.00  0.00    +0.126 A 
ATOM      6  N   LIG    1       -0.774   5.604   2.021  0.00  0.00    -0.222 NA
ATOM      7  C   LIG    1       -0.331   5.106   0.872  0.00  0.00    +0.221 A 
ATOM      8  C   LIG    1       -1.377   2.529   3.877  0.00  0.00    +0.027 A 
ATOM      9  C   LIG    1       -1.256   1.183   3.658  0.00  0.00    +0.050 A 
ATOM     10  N   LIG    1       -0.215   3.803   0.661  0.00  0.00    -0.196 NA
ATOM     11  C   LIG    1       -0.760   0.706   2.365  0.00  0.00    +0.260 A 
ATOM     12  O   LIG    1       -0.650  -0.490   2.162  0.00  0.00    -0.267 OA
ENDROOT
BRANCH   9  13
ATOM     13  C   LIG    1       -1.623   0.217   4.720  0.00  0.00    +0.024 A 
ATOM     14  C   LIG    1       -0.665  -0.211   5.640  0.00  0.00    +0.050 A 
ATOM     15 CL   LIG    1        0.962   0.388   5.543  0.00  0.00    -0.083 Cl
ATOM     16  C   LIG    1       -1.015  -1.107   6.631  0.00  0.00    +0.021 A 
ATOM     17  C   LIG    1       -2.309  -1.589   6.706  0.00  0.00    +0.003 A 
ATOM     18  C   LIG    1       -3.262  -1.173   5.794  0.00  0.00    +0.021 A 
ATOM     19  C   LIG    1       -2.927  -0.273   4.801  0.00  0.00    +0.050 A 
ATOM     20 CL   LIG    1       -4.124   0.247   3.657  0.00  0.00    -0.083 Cl
ENDBRANCH   9  13
BRANCH   7  21
ATOM     21  N   LIG    1        0.022   5.978  -0.140  0.00  0.00    -0.284 N 
ATOM     22  H   LIG    1        0.422   5.638  -0.955  0.00  0.00    +0.155 HD
BRANCH  21  23
ATOM     23  C   LIG    1       -0.199   7.353   0.013  0.00  0.00    +0.034 A 
ATOM     24  C   LIG    1       -1.306   7.804   0.720  0.00  0.00    +0.025 A 
ATOM     25  C   LIG    1       -1.520   9.159   0.874  0.00  0.00    +0.025 A 
ATOM     26  C   LIG    1       -0.635  10.071   0.313  0.00  0.00    +0.030 A 
ATOM     27  C   LIG    1        0.468   9.619  -0.399  0.00  0.00    +0.025 A 
ATOM     28  C   LIG    1        0.685   8.264  -0.549  0.00  0.00    +0.025 A 
BRANCH  26  29
ATOM     29  N   LIG    1       -0.856  11.444   0.464  0.00  0.00    -0.326 N 
ATOM     30  C   LIG    1        0.306  12.100   1.081  0.00  0.00    +0.133 C 
ATOM     31  C   LIG    1        0.047  13.606   1.173  0.00  0.00    +0.178 C 
ATOM     32  O   LIG    1       -1.157  13.833   1.911  0.00  0.00    -0.377 OA
ATOM     33  C   LIG    1       -2.309  13.209   1.339  0.00  0.00    +0.178 C 
ATOM     34  C   LIG    1       -2.074  11.699   1.248  0.00  0.00    +0.133 C 
ENDBRANCH  26  29
ENDBRANCH  21  23
ENDBRANCH   7  21
TORSDOF 4
