REMARK  Name = ZINC19230109
REMARK                            x       y       z     vdW  Elec       q    Type
REMARK                         _______ _______ _______ _____ _____    ______ ____
ROOT
ATOM      1  C   LIG    1       -0.017   1.375   0.010  0.00  0.00    +0.000 A 
ATOM      2  C   LIG    1        1.173   2.079   0.002  0.00  0.00    +0.000 A 
ATOM      3  C   LIG    1        2.372   1.396  -0.019  0.00  0.00    +0.005 A 
ATOM      4  C   LIG    1        2.392   0.008  -0.029  0.00  0.00    -0.030 A 
ATOM      5  C   LIG    1        1.208  -0.695  -0.011  0.00  0.00    -0.042 A 
ATOM      6  C   LIG    1        1.151  -2.200   0.010  0.00  0.00    +0.050 C 
ATOM      7  C   LIG    1        2.465  -2.801  -0.485  0.00  0.00    +0.086 C 
ATOM      8  N   LIG    1        3.568  -2.109   0.202  0.00  0.00    -0.312 NA
ATOM      9  H   LIG    1        4.436  -2.574  -0.065  0.00  0.00    +0.122 HD
ATOM     10  C   LIG    1        3.735  -0.676  -0.066  0.00  0.00    +0.116 C 
ATOM     11  C   LIG    1        0.002  -0.004   0.002  0.00  0.00    +0.004 A 
ENDROOT
TORSDOF 0
