REMARK  Name = ZINC40422668
REMARK                            x       y       z     vdW  Elec       q    Type
REMARK                         _______ _______ _______ _____ _____    ______ ____
ROOT
ATOM      1  C   LIG    1        1.450  -2.345  -2.519  0.00  0.00    +0.088 A 
ATOM      2  C   LIG    1        2.883  -2.668  -2.649  0.00  0.00    +0.018 A 
ATOM      3  C   LIG    1        3.978  -2.575  -1.776  0.00  0.00    +0.056 A 
ATOM      4  C   LIG    1        5.221  -2.956  -2.176  0.00  0.00    +0.125 A 
ATOM      5  C   LIG    1        5.425  -3.453  -3.484  0.00  0.00    +0.026 A 
ATOM      6  C   LIG    1        6.700  -3.851  -3.913  0.00  0.00    +0.012 A 
ATOM      7  C   LIG    1        6.870  -4.327  -5.178  0.00  0.00    +0.001 A 
ATOM      8  C   LIG    1        5.793  -4.425  -6.056  0.00  0.00    +0.001 A 
ATOM      9  C   LIG    1        4.542  -4.047  -5.672  0.00  0.00    +0.010 A 
ATOM     10  C   LIG    1        4.331  -3.553  -4.376  0.00  0.00    +0.010 A 
ATOM     11  C   LIG    1        3.046  -3.154  -3.947  0.00  0.00    +0.056 A 
ATOM     12  N   LIG    1        1.814  -3.130  -4.561  0.00  0.00    -0.357 N 
ATOM     13  H   LIG    1        1.645  -3.417  -5.472  0.00  0.00    +0.166 HD
ATOM     14  C   LIG    1        0.875  -2.659  -3.717  0.00  0.00    +0.035 A 
ENDROOT
BRANCH   1  15
ATOM     15  C   LIG    1        0.776  -1.800  -1.335  0.00  0.00    +0.342 C 
ATOM     16  O   LIG    1        0.312  -2.551  -0.499  0.00  0.00    -0.245 OA
BRANCH  15  17
ATOM     17  O   LIG    1        0.671  -0.465  -1.174  0.00  0.00    -0.461 OA
BRANCH  17  19
ATOM     18  C   LIG    1       -0.019   1.526   0.010  0.00  0.00    +0.048 C 
ATOM     19  C   LIG    1        0.002  -0.004   0.002  0.00  0.00    +0.229 C 
ENDBRANCH  17  19
ENDBRANCH  15  17
ENDBRANCH   1  15
BRANCH   4  20
ATOM     20  O   LIG    1        6.270  -2.858  -1.317  0.00  0.00    -0.506 OA
ATOM     21  H   LIG    1        6.415  -3.650  -0.781  0.00  0.00    +0.292 HD
ENDBRANCH   4  20
BRANCH  14  22
ATOM     22  C   LIG    1       -0.587  -2.500  -4.046  0.00  0.00    +0.089 C 
BRANCH  22  23
ATOM     23  C   LIG    1       -0.848  -1.089  -4.506  0.00  0.00    -0.040 A 
ATOM     24  C   LIG    1       -1.181  -0.112  -3.585  0.00  0.00    +0.004 A 
ATOM     25  C   LIG    1       -1.420   1.182  -4.006  0.00  0.00    +0.002 A 
ATOM     26  C   LIG    1       -1.327   1.502  -5.348  0.00  0.00    +0.020 A 
ATOM     27  C   LIG    1       -0.994   0.525  -6.269  0.00  0.00    +0.041 A 
ATOM     28 CL   LIG    1       -0.877   0.926  -7.954  0.00  0.00    -0.084 Cl
ATOM     29  C   LIG    1       -0.749  -0.769  -5.847  0.00  0.00    +0.024 A 
ENDBRANCH  22  23
ENDBRANCH  14  22
TORSDOF 6
