REMARK  Name = ZINC72118726
REMARK                            x       y       z     vdW  Elec       q    Type
REMARK                         _______ _______ _______ _____ _____    ______ ____
ROOT
ATOM      1  C   LIG    1       -0.201  -2.438   3.490  0.00  0.00    +0.198 C 
ATOM      2  N   LIG    1       -0.229  -3.756   3.440  0.00  0.00    -0.286 NA
ATOM      3  H   LIG    1        0.510  -4.239   3.039  0.00  0.00    +0.125 HD
ATOM      4  C   LIG    1       -1.274  -4.433   3.942  0.00  0.00    +0.065 C 
ATOM      5  C   LIG    1       -1.333  -5.832   3.904  0.00  0.00    +0.053 C 
ATOM      6  C   LIG    1       -2.428  -6.480   4.433  0.00  0.00    +0.148 C 
ATOM      7  C   LIG    1       -3.481  -5.754   5.006  0.00  0.00    +0.147 C 
ATOM      8  C   LIG    1       -3.443  -4.389   5.053  0.00  0.00    +0.042 C 
ATOM      9  C   LIG    1       -2.342  -3.707   4.523  0.00  0.00    +0.040 C 
ATOM     10  C   LIG    1       -2.256  -2.293   4.549  0.00  0.00    +0.129 C 
ATOM     11  N   LIG    1       -1.179  -1.719   4.032  0.00  0.00    -0.273 NA
ATOM     12  H   LIG    1       -1.512  -1.089   3.302  0.00  0.00    +0.126 HD
ENDROOT
BRANCH   1  18
ATOM     13  N   LIG    1        3.768  -1.909   3.678  0.00  0.00    +0.382 N 
ATOM     14  H   LIG    1        4.167  -1.468   2.863  0.00  0.00    -0.081 HD
ATOM     15  C   LIG    1        3.037  -0.896   4.436  0.00  0.00    -0.077 C 
ATOM     16  C   LIG    1        2.434   0.107   3.476  0.00  0.00    -0.003 C 
ATOM     17  C   LIG    1        0.994  -0.314   3.134  0.00  0.00    +0.085 C 
ATOM     18  N   LIG    1        0.894  -1.778   2.962  0.00  0.00    -0.277 NA
ATOM     19  C   LIG    1        1.902  -2.546   2.260  0.00  0.00    +0.068 C 
ATOM     20  C   LIG    1        2.993  -3.011   3.254  0.00  0.00    -0.063 C 
BRANCH  13  22
ATOM     21  C   LIG    1        4.295  -3.261   5.651  0.00  0.00    -0.014 C 
ATOM     22  C   LIG    1        4.867  -2.410   4.515  0.00  0.00    -0.075 C 
ATOM     23  C   LIG    1        5.809  -3.263   3.664  0.00  0.00    -0.014 C 
ENDBRANCH  13  22
ENDBRANCH   1  18
BRANCH   7  24
ATOM     24  O   LIG    1       -4.552  -6.415   5.521  0.00  0.00    -0.377 OA
ATOM     25  C   LIG    1       -5.593  -5.620   6.092  0.00  0.00    +0.194 C 
ENDBRANCH   7  24
BRANCH  10  26
ATOM     26  N   LIG    1       -3.265  -1.534   5.103  0.00  0.00    -0.298 NA
ATOM     27  H   LIG    1       -4.046  -1.967   5.481  0.00  0.00    +0.124 HD
BRANCH  26  28
ATOM     28  C   LIG    1       -3.158  -0.073   5.119  0.00  0.00    +0.052 C 
ATOM     29  C   LIG    1       -2.363   0.368   6.352  0.00  0.00    -0.000 C 
ATOM     30  C   LIG    1       -2.323   1.897   6.406  0.00  0.00    -0.077 C 
ATOM     31  N   LIG    1       -3.691   2.423   6.490  0.00  0.00    +0.382 N 
ATOM     32  H   LIG    1       -4.152   2.030   7.296  0.00  0.00    -0.081 HD
ATOM     33  C   LIG    1       -4.437   2.065   5.278  0.00  0.00    -0.077 C 
ATOM     34  C   LIG    1       -4.559   0.543   5.180  0.00  0.00    -0.000 C 
BRANCH  31  35
ATOM     35  C   LIG    1       -3.644   3.885   6.620  0.00  0.00    -0.069 C 
ATOM     36  C   LIG    1       -2.874   4.260   7.888  0.00  0.00    -0.015 C 
ATOM     37  C   LIG    1       -2.825   5.784   8.023  0.00  0.00    -0.002 C 
ATOM     38  C   LIG    1       -4.250   6.334   8.110  0.00  0.00    -0.000 C 
ATOM     39  C   LIG    1       -5.020   5.959   6.843  0.00  0.00    -0.002 C 
ATOM     40  C   LIG    1       -5.069   4.436   6.707  0.00  0.00    -0.015 C 
ENDBRANCH  31  35
ENDBRANCH  26  28
ENDBRANCH  10  26
BRANCH   6  41
ATOM     41  O   LIG    1       -2.488  -7.836   4.397  0.00  0.00    -0.374 OA
BRANCH  41  42
ATOM     42  C   LIG    1       -1.384  -8.519   3.800  0.00  0.00    +0.158 C 
BRANCH  42  43
ATOM     43  C   LIG    1       -1.629 -10.028   3.852  0.00  0.00    +0.009 C 
BRANCH  43  44
ATOM     44  C   LIG    1       -0.447 -10.759   3.212  0.00  0.00    -0.077 C 
BRANCH  44  45
ATOM     45  N   LIG    1       -0.683 -12.209   3.261  0.00  0.00    +0.380 N 
ATOM     46  H   LIG    1       -1.568 -12.420   2.826  0.00  0.00    -0.082 HD
ATOM     47  C   LIG    1       -0.712 -12.650   4.661  0.00  0.00    -0.079 C 
ATOM     48  C   LIG    1       -1.037 -14.144   4.722  0.00  0.00    -0.019 C 
ATOM     49  C   LIG    1        0.037 -14.926   3.960  0.00  0.00    -0.004 C 
ATOM     50  C   LIG    1        0.109 -14.406   2.522  0.00  0.00    -0.019 C 
ATOM     51  C   LIG    1        0.392 -12.903   2.542  0.00  0.00    -0.079 C 
ENDBRANCH  44  45
ENDBRANCH  43  44
ENDBRANCH  42  43
ENDBRANCH  41  42
ENDBRANCH   6  41
TORSDOF 11
