REMARK  Name = ZINC20459046
REMARK                            x       y       z     vdW  Elec       q    Type
REMARK                         _______ _______ _______ _____ _____    ______ ____
ROOT
ATOM      1  C   LIG    1       -1.920   2.073   0.729  0.00  0.00    +0.066 A 
ATOM      2  C   LIG    1       -2.235   3.434   0.807  0.00  0.00    +0.035 A 
ATOM      3  C   LIG    1       -3.529   3.854   0.594  0.00  0.00    +0.042 A 
ATOM      4 CL   LIG    1       -3.912   5.545   0.692  0.00  0.00    -0.084 Cl
ATOM      5  C   LIG    1       -4.530   2.936   0.301  0.00  0.00    +0.023 A 
ATOM      6  C   LIG    1       -4.246   1.593   0.220  0.00  0.00    +0.048 A 
ATOM      7  C   LIG    1       -2.938   1.140   0.426  0.00  0.00    +0.153 A 
ENDROOT
BRANCH   1   8
ATOM      8  C   LIG    1       -0.541   1.617   0.955  0.00  0.00    +0.197 C 
ATOM      9  O   LIG    1        0.299   1.768   0.088  0.00  0.00    -0.287 OA
BRANCH   8  13
ATOM     10  C   LIG    1        0.514  -0.211   4.641  0.00  0.00    +0.000 A 
ATOM     11  C   LIG    1        1.443  -0.136   3.619  0.00  0.00    +0.001 A 
ATOM     12  C   LIG    1        1.107   0.456   2.419  0.00  0.00    +0.012 A 
ATOM     13  C   LIG    1       -0.174   0.981   2.238  0.00  0.00    +0.022 A 
ATOM     14  C   LIG    1       -1.105   0.907   3.276  0.00  0.00    +0.012 A 
ATOM     15  C   LIG    1       -0.758   0.307   4.469  0.00  0.00    +0.001 A 
ENDBRANCH   8  13
ENDBRANCH   1   8
BRANCH   7  16
ATOM     16  N   LIG    1       -2.650  -0.184   0.340  0.00  0.00    -0.069 NA
ATOM     17  C   LIG    1       -3.038  -0.879  -0.718  0.00  0.00    +0.430 C 
BRANCH  17  18
ATOM     18  N   LIG    1       -3.612  -0.236  -1.791  0.00  0.00    -0.286 N 
ATOM     19  H   LIG    1       -3.749   0.855  -1.769  0.00  0.00    +0.255 HD
ATOM     20  H   LIG    1       -3.935  -0.813  -2.670  0.00  0.00    +0.255 HD
ENDBRANCH  17  18
BRANCH  17  21
ATOM     21  N   LIG    1       -2.870  -2.211  -0.744  0.00  0.00    -0.003 NA
ATOM     22  C   LIG    1       -3.454  -2.969   0.168  0.00  0.00    +0.387 C 
BRANCH  22  23
ATOM     23  N   LIG    1       -3.192  -4.309   0.213  0.00  0.00    -0.289 N 
ATOM     24  H   LIG    1       -2.494  -4.757  -0.510  0.00  0.00    +0.255 HD
ATOM     25  H   LIG    1       -3.677  -4.939   0.972  0.00  0.00    +0.255 HD
ENDBRANCH  22  23
BRANCH  22  26
ATOM     26  N   LIG    1       -4.320  -2.413   1.066  0.00  0.00    -0.289 N 
ATOM     27  H   LIG    1       -4.531  -1.334   1.030  0.00  0.00    +0.255 HD
ATOM     28  H   LIG    1       -4.806  -3.043   1.825  0.00  0.00    +0.255 HD
ENDBRANCH  22  26
ENDBRANCH  17  21
ENDBRANCH   7  16
TORSDOF 7
