REMARK  Name = ZINC00037163
REMARK                            x       y       z     vdW  Elec       q    Type
REMARK                         _______ _______ _______ _____ _____    ______ ____
ROOT
ATOM      1  C   LIG    1        1.225  -0.680  -0.001  0.00  0.00    +0.056 A 
ATOM      2  C   LIG    1        0.002  -0.004  -0.002  0.00  0.00    +0.062 A 
ATOM      3  C   LIG    1       -0.018   1.395  -0.015  0.00  0.00    +0.056 A 
ATOM      4 CL   LIG    1       -1.532   2.243  -0.023  0.00  0.00    -0.083 Cl
ATOM      5  C   LIG    1        1.169   2.099  -0.026  0.00  0.00    +0.062 A 
ATOM      6  C   LIG    1        2.379   1.423  -0.024  0.00  0.00    +0.160 A 
ATOM      7  F   LIG    1        3.538   2.118  -0.035  0.00  0.00    -0.202 F 
ATOM      8  C   LIG    1        2.405   0.034  -0.012  0.00  0.00    +0.159 A 
ATOM      9  F   LIG    1        3.588  -0.618  -0.011  0.00  0.00    -0.202 F 
ENDROOT
BRANCH   2  10
ATOM     10  C   LIG    1       -1.263  -0.761   0.011  0.00  0.00    +0.280 C 
ATOM     11  N   LIG    1       -1.245  -2.105  -0.098  0.00  0.00    -0.202 N 
ATOM     12  C   LIG    1       -2.334  -2.917  -0.195  0.00  0.00    +0.133 A 
ATOM     13  C   LIG    1       -1.887  -4.189  -0.289  0.00  0.00    +0.056 A 
ATOM     14 BR   LIG    1       -2.962  -5.737  -0.451  0.00  0.00    -0.047 Br
ATOM     15  C   LIG    1       -0.486  -4.160  -0.240  0.00  0.00    +0.150 A 
ATOM     16  N   LIG    1       -0.103  -2.916  -0.126  0.00  0.00    -0.171 NA
ATOM     17  O   LIG    1       -2.321  -0.175   0.119  0.00  0.00    -0.265 OA
ENDBRANCH   2  10
TORSDOF 1
