REMARK  Name = ZINC49033897
REMARK                            x       y       z     vdW  Elec       q    Type
REMARK                         _______ _______ _______ _____ _____    ______ ____
ROOT
ATOM      1  C   LIG    1       -3.769  -5.975  -0.144  0.00  0.00    +0.177 A 
ATOM      2  C   LIG    1       -2.694  -6.864  -0.191  0.00  0.00    +0.095 A 
ATOM      3  N   LIG    1       -3.197  -8.127  -0.334  0.00  0.00    -0.294 N 
ATOM      4  H   LIG    1       -2.667  -8.937  -0.393  0.00  0.00    +0.187 HD
ATOM      5  N   LIG    1       -4.593  -8.073  -0.381  0.00  0.00    -0.264 N 
ATOM      6  H   LIG    1       -5.184  -8.837  -0.478  0.00  0.00    +0.190 HD
ATOM      7  C   LIG    1       -4.987  -6.789  -0.264  0.00  0.00    +0.292 A 
ATOM      8  O   LIG    1       -6.134  -6.381  -0.261  0.00  0.00    -0.264 OA
ENDROOT
BRANCH   2   9
ATOM      9  C   LIG    1       -1.267  -6.504  -0.102  0.00  0.00    +0.002 A 
ATOM     10  C   LIG    1       -0.881  -5.161  -0.087  0.00  0.00    +0.010 A 
ATOM     11  C   LIG    1        0.455  -4.832  -0.004  0.00  0.00    +0.001 A 
ATOM     12  C   LIG    1        1.414  -5.828   0.065  0.00  0.00    +0.000 A 
ATOM     13  C   LIG    1        1.039  -7.161   0.050  0.00  0.00    +0.001 A 
ATOM     14  C   LIG    1       -0.294  -7.505  -0.027  0.00  0.00    +0.010 A 
ENDBRANCH   2   9
BRANCH   1  16
ATOM     15  N   LIG    1       -4.787  -3.944   0.118  0.00  0.00    -0.149 NA
ATOM     16  N   LIG    1       -3.704  -4.633  -0.010  0.00  0.00    -0.142 NA
BRANCH  15  21
ATOM     17  C   LIG    1       -5.838  -0.445   0.211  0.00  0.00    +0.122 A 
ATOM     18  C   LIG    1       -4.603   0.191   0.218  0.00  0.00    +0.046 A 
ATOM     19  C   LIG    1       -3.436  -0.551   0.192  0.00  0.00    +0.006 A 
ATOM     20  C   LIG    1       -3.491  -1.929   0.159  0.00  0.00    +0.030 A 
ATOM     21  C   LIG    1       -4.728  -2.578   0.152  0.00  0.00    +0.090 A 
ATOM     22  C   LIG    1       -5.905  -1.827   0.184  0.00  0.00    +0.075 A 
BRANCH  17  24
ATOM     23  C   LIG    1       -6.836   1.712   0.263  0.00  0.00    +0.277 C 
ATOM     24  O   LIG    1       -6.980   0.291   0.236  0.00  0.00    -0.495 OA
ENDBRANCH  17  24
ENDBRANCH  15  21
ENDBRANCH   1  16
TORSDOF 4
