REMARK  Name = ZINC45364502
REMARK                            x       y       z     vdW  Elec       q    Type
REMARK                         _______ _______ _______ _____ _____    ______ ____
ROOT
ATOM      1  C   LIG    1       -0.063   1.683  -0.785  0.00  0.00    +0.013 A 
ATOM      2  C   LIG    1        1.155   2.309  -0.635  0.00  0.00    +0.024 A 
ATOM      3  C   LIG    1        2.285   1.566  -0.312  0.00  0.00    +0.035 A 
ATOM      4  C   LIG    1        2.189   0.190  -0.139  0.00  0.00    +0.024 A 
ATOM      5  C   LIG    1        0.974  -0.441  -0.287  0.00  0.00    +0.013 A 
ATOM      6  C   LIG    1       -0.162   0.302  -0.611  0.00  0.00    +0.019 A 
ENDROOT
BRANCH   3   7
ATOM      7  N   LIG    1        3.518   2.204  -0.161  0.00  0.00    -0.269 N 
ATOM      8  H   LIG    1        4.335   1.744  -0.411  0.00  0.00    +0.156 HD
ATOM      9  C   LIG    1        3.574   3.457   0.331  0.00  0.00    +0.308 C 
ATOM     10  N   LIG    1        4.751   4.111   0.379  0.00  0.00    -0.269 N 
ATOM     11  H   LIG    1        5.545   3.710  -0.008  0.00  0.00    +0.156 HD
ATOM     12  O   LIG    1        2.561   3.998   0.732  0.00  0.00    -0.252 OA
BRANCH  10  13
ATOM     13  C   LIG    1        4.829   5.362   0.986  0.00  0.00    +0.035 A 
ATOM     14  C   LIG    1        5.709   6.320   0.492  0.00  0.00    +0.024 A 
ATOM     15  C   LIG    1        5.788   7.553   1.086  0.00  0.00    +0.017 A 
ATOM     16  C   LIG    1        4.982   7.848   2.191  0.00  0.00    +0.059 A 
ATOM     17  C   LIG    1        4.097   6.883   2.685  0.00  0.00    +0.017 A 
ATOM     18  C   LIG    1        4.021   5.654   2.082  0.00  0.00    +0.024 A 
BRANCH  16  19
ATOM     19  C   LIG    1        5.064   9.171   2.832  0.00  0.00    +0.337 C 
ATOM     20  O   LIG    1        5.838  10.014   2.400  0.00  0.00    -0.245 OA
BRANCH  19  21
ATOM     21  O   LIG    1        4.358   9.427   3.798  0.00  0.00    -0.477 OA
ATOM     22  H   LIG    1        3.765   8.782   4.130  0.00  0.00    +0.295 HD
ENDBRANCH  19  21
ENDBRANCH  16  19
ENDBRANCH  10  13
ENDBRANCH   3   7
BRANCH   6  23
ATOM     23  C   LIG    1       -1.470  -0.374  -0.771  0.00  0.00    +0.167 A 
ATOM     24  N   LIG    1       -2.551   0.334  -1.086  0.00  0.00    -0.194 NA
ATOM     25  C   LIG    1       -3.725  -0.273  -1.229  0.00  0.00    +0.223 A 
ATOM     26  N   LIG    1       -3.818  -1.588  -1.058  0.00  0.00    -0.181 NA
ATOM     27  C   LIG    1       -2.739  -2.296  -0.744  0.00  0.00    +0.223 A 
ATOM     28  N   LIG    1       -1.563  -1.691  -0.606  0.00  0.00    -0.194 NA
BRANCH  25  29
ATOM     29  N   LIG    1       -4.847   0.462  -1.555  0.00  0.00    -0.295 N 
ATOM     30  C   LIG    1       -6.158  -0.187  -1.713  0.00  0.00    +0.136 C 
ATOM     31  C   LIG    1       -7.182   0.580  -0.868  0.00  0.00    +0.179 C 
ATOM     32  O   LIG    1       -7.118   1.970  -1.197  0.00  0.00    -0.377 OA
ATOM     33  C   LIG    1       -5.859   2.582  -0.907  0.00  0.00    +0.179 C 
ATOM     34  C   LIG    1       -4.768   1.919  -1.748  0.00  0.00    +0.136 C 
ENDBRANCH  25  29
BRANCH  27  35
ATOM     35  N   LIG    1       -2.837  -3.662  -0.567  0.00  0.00    -0.295 N 
ATOM     36  C   LIG    1       -4.125  -4.356  -0.726  0.00  0.00    +0.136 C 
ATOM     37  C   LIG    1       -3.919  -5.546  -1.670  0.00  0.00    +0.179 C 
ATOM     38  O   LIG    1       -2.825  -6.337  -1.199  0.00  0.00    -0.377 OA
ATOM     39  C   LIG    1       -1.571  -5.651  -1.182  0.00  0.00    +0.179 C 
ATOM     40  C   LIG    1       -1.655  -4.467  -0.218  0.00  0.00    +0.136 C 
ENDBRANCH  27  35
ENDBRANCH   6  23
TORSDOF 7
