REMARK  Name = ZINC49771868
REMARK                            x       y       z     vdW  Elec       q    Type
REMARK                         _______ _______ _______ _____ _____    ______ ____
ROOT
ATOM      1  C   LIG    1        6.471  -6.391  -0.113  0.00  0.00    +0.253 C 
ATOM      2  C   LIG    1        6.080  -6.763  -1.560  0.00  0.00    +0.195 C 
ATOM      3  C   LIG    1        5.983  -8.305  -1.539  0.00  0.00    +0.178 C 
ATOM      4  C   LIG    1        6.326  -8.682  -0.081  0.00  0.00    +0.178 C 
ATOM      5  O   LIG    1        7.111  -7.575   0.412  0.00  0.00    -0.346 OA
ENDROOT
BRANCH   1  11
ATOM      6  C   LIG    1        5.934  -1.927  -0.068  0.00  0.00    +0.209 A 
ATOM      7  N   LIG    1        7.063  -1.220  -0.070  0.00  0.00    -0.203 NA
ATOM      8  C   LIG    1        8.246  -1.820  -0.085  0.00  0.00    +0.148 A 
ATOM      9  C   LIG    1        8.288  -3.227  -0.099  0.00  0.00    +0.147 A 
ATOM     10  C   LIG    1        7.071  -3.931  -0.096  0.00  0.00    +0.169 A 
ATOM     11  N   LIG    1        7.405  -5.263  -0.110  0.00  0.00    -0.285 N 
ATOM     12  C   LIG    1        8.766  -5.342  -0.122  0.00  0.00    +0.203 A 
ATOM     13  N   LIG    1        9.282  -4.146  -0.115  0.00  0.00    -0.231 NA
ATOM     14  N   LIG    1        5.931  -3.254  -0.075  0.00  0.00    -0.200 NA
BRANCH   8  15
ATOM     15  N   LIG    1        9.414  -1.078  -0.088  0.00  0.00    -0.341 N 
ATOM     16  H   LIG    1       10.274  -1.527  -0.099  0.00  0.00    +0.144 HD
ATOM     17  H   LIG    1        9.373  -0.108  -0.079  0.00  0.00    +0.144 HD
ENDBRANCH   8  15
BRANCH   6  19
ATOM     18  C   LIG    1        3.656  -0.661  -0.038  0.00  0.00    -0.058 C 
ATOM     19  C   LIG    1        4.682  -1.231  -0.051  0.00  0.00    -0.021 C 
BRANCH  18  23
ATOM     20  C   LIG    1       -0.017   1.380   0.010  0.00  0.00    +0.000 A 
ATOM     21  C   LIG    1        1.168   2.095   0.002  0.00  0.00    +0.001 A 
ATOM     22  C   LIG    1        2.377   1.432  -0.013  0.00  0.00    +0.017 A 
ATOM     23  C   LIG    1        2.404   0.035  -0.021  0.00  0.00    +0.025 A 
ATOM     24  C   LIG    1        1.204  -0.681  -0.013  0.00  0.00    +0.017 A 
ATOM     25  C   LIG    1        0.002  -0.004   0.002  0.00  0.00    +0.001 A 
ENDBRANCH  18  23
ENDBRANCH   6  19
ENDBRANCH   1  11
BRANCH   3  26
ATOM     26  O   LIG    1        4.659  -8.727  -1.869  0.00  0.00    -0.386 OA
ATOM     27  H   LIG    1        4.371  -8.463  -2.754  0.00  0.00    +0.210 HD
ENDBRANCH   3  26
BRANCH   2  28
ATOM     28  O   LIG    1        4.820  -6.184  -1.903  0.00  0.00    -0.385 OA
ATOM     29  H   LIG    1        4.526  -6.385  -2.802  0.00  0.00    +0.210 HD
ENDBRANCH   2  28
BRANCH   4  30
ATOM     30  C   LIG    1        7.143  -9.976  -0.043  0.00  0.00    +0.206 C 
BRANCH  30  31
ATOM     31  O   LIG    1        7.350 -10.369   1.315  0.00  0.00    -0.284 OA
BRANCH  31  32
ATOM     32  P   LIG    1        8.173 -11.690   1.729  0.00  0.00    +0.483 P 
ATOM     33  O   LIG    1        7.560 -12.920   1.024  0.00  0.00    -0.227 OA
BRANCH  32  34
ATOM     34  O   LIG    1        9.649 -11.533   1.301  0.00  0.00    -0.302 OA
ATOM     35  H   LIG    1        9.696 -11.411   0.340  0.00  0.00    +0.222 HD
ENDBRANCH  32  34
BRANCH  32  36
ATOM     36  O   LIG    1        8.095 -11.892   3.324  0.00  0.00    -0.186 OA
BRANCH  36  37
ATOM     37  P   LIG    1        8.418 -13.121   4.313  0.00  0.00    +0.492 P 
ATOM     38  O   LIG    1        7.928 -14.439   3.673  0.00  0.00    -0.226 OA
BRANCH  37  39
ATOM     39  O   LIG    1        9.942 -13.200   4.555  0.00  0.00    -0.302 OA
ATOM     40  H   LIG    1       10.397 -13.338   3.709  0.00  0.00    +0.222 HD
ENDBRANCH  37  39
BRANCH  37  41
ATOM     41  O   LIG    1        7.663 -12.893   5.717  0.00  0.00    -0.186 OA
BRANCH  41  42
ATOM     42  P   LIG    1        7.323 -13.843   6.971  0.00  0.00    +0.481 P 
ATOM     43  O   LIG    1        6.895 -15.258   6.453  0.00  0.00    -0.227 OA
BRANCH  42  44
ATOM     44  O   LIG    1        8.592 -13.982   7.880  0.00  0.00    -0.302 OA
ATOM     45  H   LIG    1        9.317 -14.371   7.367  0.00  0.00    +0.222 HD
ENDBRANCH  42  44
BRANCH  42  46
ATOM     46  O   LIG    1        6.153 -13.214   7.801  0.00  0.00    -0.302 OA
ATOM     47  H   LIG    1        5.367 -13.128   7.238  0.00  0.00    +0.222 HD
ENDBRANCH  42  46
ENDBRANCH  41  42
ENDBRANCH  37  41
ENDBRANCH  36  37
ENDBRANCH  32  36
ENDBRANCH  31  32
ENDBRANCH  30  31
ENDBRANCH   4  30
TORSDOF 17
