REMARK  Name = ZINC53122794
REMARK                            x       y       z     vdW  Elec       q    Type
REMARK                         _______ _______ _______ _____ _____    ______ ____
ROOT
ATOM      1  C   LIG    1       -0.172   1.633   0.309  0.00  0.00    +0.019 C 
ATOM      2  C   LIG    1       -0.073   0.113   0.172  0.00  0.00    +0.028 C 
ATOM      3  C   LIG    1        0.723  -0.310  -1.083  0.00  0.00    +0.030 C 
ATOM      4  C   LIG    1        2.122  -0.646  -0.507  0.00  0.00    +0.087 C 
ATOM      5  N   LIG    1        1.809  -1.294   0.791  0.00  0.00    -0.287 NA
ATOM      6  C   LIG    1        2.968  -1.256   1.692  0.00  0.00    +0.106 C 
ATOM      7  C   LIG    1       -1.431  -0.550   0.166  0.00  0.00    -0.014 A 
ATOM      8  C   LIG    1       -2.514  -0.386  -0.677  0.00  0.00    +0.052 A 
ATOM      9  C   LIG    1       -3.672  -1.121  -0.474  0.00  0.00    +0.134 A 
ATOM     10  C   LIG    1       -3.739  -2.021   0.579  0.00  0.00    +0.048 A 
ATOM     11  C   LIG    1       -2.659  -2.186   1.419  0.00  0.00    +0.027 A 
ATOM     12  C   LIG    1       -1.490  -1.449   1.219  0.00  0.00    +0.035 A 
ATOM     13  N   LIG    1       -0.298  -1.468   1.948  0.00  0.00    -0.316 N 
ATOM     14  C   LIG    1       -0.051  -2.298   3.129  0.00  0.00    +0.131 C 
ATOM     15  C   LIG    1        0.671  -0.539   1.359  0.00  0.00    +0.154 C 
ENDROOT
BRANCH   9  16
ATOM     16  O   LIG    1       -4.738  -0.959  -1.303  0.00  0.00    -0.411 OA
BRANCH  16  17
ATOM     17  C   LIG    1       -5.834  -0.350  -0.813  0.00  0.00    +0.408 C 
ATOM     18  N   LIG    1       -6.954  -0.275  -1.559  0.00  0.00    -0.273 N 
ATOM     19  C   LIG    1       -6.979  -0.856  -2.904  0.00  0.00    +0.135 C 
ATOM     20  C   LIG    1       -8.146   0.387  -1.025  0.00  0.00    +0.135 C 
ATOM     21  O   LIG    1       -5.813   0.131   0.303  0.00  0.00    -0.226 OA
ENDBRANCH  16  17
ENDBRANCH   9  16
TORSDOF 2
