REMARK  Name = ZINC36175770
REMARK                            x       y       z     vdW  Elec       q    Type
REMARK                         _______ _______ _______ _____ _____    ______ ____
ROOT
ATOM      1  C   LIG    1        1.766  -8.243   3.630  0.00  0.00    +0.028 A 
ATOM      2  C   LIG    1        0.718  -8.781   4.372  0.00  0.00    +0.023 A 
ATOM      3  C   LIG    1        0.979  -9.555   5.479  0.00  0.00    +0.015 A 
ATOM      4  C   LIG    1        2.301  -9.803   5.861  0.00  0.00    +0.042 A 
ATOM      5  C   LIG    1        3.349  -9.259   5.111  0.00  0.00    -0.016 A 
ATOM      6  C   LIG    1        4.627  -9.707   5.776  0.00  0.00    +0.145 C 
ATOM      7  N   LIG    1        4.224 -10.523   6.927  0.00  0.00    -0.280 N 
ATOM      8  C   LIG    1        2.882 -10.576   6.972  0.00  0.00    +0.248 C 
ATOM      9  O   LIG    1        2.239 -11.176   7.811  0.00  0.00    -0.270 OA
ATOM     10  C   LIG    1        3.085  -8.492   4.004  0.00  0.00    +0.028 A 
ENDROOT
BRANCH   1  11
ATOM     11  N   LIG    1        1.497  -7.462   2.511  0.00  0.00    -0.340 N 
ATOM     12  H   LIG    1        2.227  -7.090   1.992  0.00  0.00    +0.146 HD
BRANCH  11  13
ATOM     13  C   LIG    1        0.110  -7.200   2.118  0.00  0.00    +0.137 C 
BRANCH  13  23
ATOM     14  C   LIG    1       -0.018   1.503   0.010  0.00  0.00    +0.086 C 
ATOM     15  C   LIG    1        0.002  -0.004   0.002  0.00  0.00    +0.107 A 
ATOM     16  N   LIG    1        0.005  -0.615  -1.145  0.00  0.00    -0.234 NA
ATOM     17  C   LIG    1        0.023  -1.961  -1.233  0.00  0.00    +0.079 A 
ATOM     18  C   LIG    1        0.026  -2.615  -2.478  0.00  0.00    +0.029 A 
ATOM     19  C   LIG    1        0.044  -3.966  -2.566  0.00  0.00    +0.010 A 
ATOM     20  C   LIG    1        0.061  -4.776  -1.412  0.00  0.00    -0.017 A 
ATOM     21  C   LIG    1        0.080  -6.176  -1.508  0.00  0.00    +0.009 A 
ATOM     22  C   LIG    1        0.095  -6.931  -0.374  0.00  0.00    +0.006 A 
ATOM     23  C   LIG    1        0.093  -6.335   0.884  0.00  0.00    -0.030 A 
ATOM     24  C   LIG    1        0.074  -4.977   1.013  0.00  0.00    +0.014 A 
ATOM     25  C   LIG    1        0.058  -4.172  -0.131  0.00  0.00    -0.003 A 
ATOM     26  C   LIG    1        0.039  -2.718  -0.047  0.00  0.00    +0.072 A 
ATOM     27  C   LIG    1        0.035  -2.008   1.232  0.00  0.00    +0.260 A 
ATOM     28  O   LIG    1        0.049  -2.611   2.290  0.00  0.00    -0.267 OA
ATOM     29  N   LIG    1        0.022  -0.655   1.192  0.00  0.00    -0.311 N 
ATOM     30  H   LIG    1        0.023  -0.148   2.019  0.00  0.00    +0.170 HD
ENDBRANCH  13  23
ENDBRANCH  11  13
ENDBRANCH   1  11
BRANCH   7  31
ATOM     31  C   LIG    1        5.136 -11.174   7.871  0.00  0.00    +0.186 C 
BRANCH  31  32
ATOM     32  C   LIG    1        4.908 -12.663   7.845  0.00  0.00    +0.325 C 
ATOM     33  O   LIG    1        4.063 -13.137   7.105  0.00  0.00    -0.249 OA
BRANCH  32  34
ATOM     34  O   LIG    1        5.569 -13.394   8.562  0.00  0.00    -0.479 OA
ATOM     35  H   LIG    1        6.219 -13.029   9.131  0.00  0.00    +0.295 HD
ENDBRANCH  32  34
ENDBRANCH  31  32
BRANCH  31  36
ATOM     36  C   LIG    1        4.873 -10.643   9.282  0.00  0.00    +0.045 C 
BRANCH  36  37
ATOM     37  C   LIG    1        5.224  -9.155   9.340  0.00  0.00    +0.123 C 
BRANCH  37  38
ATOM     38  C   LIG    1        4.965  -8.632  10.730  0.00  0.00    +0.305 C 
ATOM     39  O   LIG    1        4.539  -9.380  11.593  0.00  0.00    -0.251 OA
BRANCH  38  40
ATOM     40  O   LIG    1        5.181  -7.460  10.990  0.00  0.00    -0.481 OA
ATOM     41  H   LIG    1        5.508  -6.885  10.327  0.00  0.00    +0.295 HD
ENDBRANCH  38  40
ENDBRANCH  37  38
ENDBRANCH  36  37
ENDBRANCH  31  36
ENDBRANCH   7  31
TORSDOF 10
