REMARK  Name = ZINC17921108
REMARK                            x       y       z     vdW  Elec       q    Type
REMARK                         _______ _______ _______ _____ _____    ______ ____
ROOT
ATOM      1  N   LIG    1        0.228  -5.912  -2.432  0.00  0.00    -0.246 N 
ATOM      2  H   LIG    1       -0.030  -6.413  -1.642  0.00  0.00    +0.311 HD
ATOM      3  C   LIG    1        1.154  -6.394  -3.250  0.00  0.00    +0.245 C 
ATOM      4  C   LIG    1        1.733  -5.519  -4.331  0.00  0.00    +0.140 C 
ENDROOT
BRANCH   1   8
ATOM      5  C   LIG    1       -1.569  -2.257  -3.250  0.00  0.00    +0.121 A 
ATOM      6  C   LIG    1       -1.486  -3.225  -4.241  0.00  0.00    +0.050 A 
ATOM      7  C   LIG    1       -0.889  -4.441  -3.971  0.00  0.00    +0.054 A 
ATOM      8  C   LIG    1       -0.370  -4.694  -2.704  0.00  0.00    +0.126 A 
ATOM      9  C   LIG    1       -0.454  -3.721  -1.713  0.00  0.00    +0.054 A 
ATOM     10  C   LIG    1       -1.047  -2.506  -1.989  0.00  0.00    +0.050 A 
BRANCH   5  11
ATOM     11  O   LIG    1       -2.157  -1.061  -3.518  0.00  0.00    -0.492 OA
BRANCH  11  13
ATOM     12  C   LIG    1       -3.292   0.522  -4.949  0.00  0.00    +0.048 C 
ATOM     13  C   LIG    1       -2.673  -0.873  -4.838  0.00  0.00    +0.225 C 
ENDBRANCH  11  13
ENDBRANCH   5  11
ENDBRANCH   1   8
BRANCH   3  14
ATOM     14  N   LIG    1        1.570  -7.647  -3.116  0.00  0.00    -0.208 N 
ATOM     15  H   LIG    1        2.307  -7.973  -3.655  0.00  0.00    +0.298 HD
BRANCH  14  16
ATOM     16  C   LIG    1        0.953  -8.488  -2.206  0.00  0.00    +0.118 A 
ATOM     17  C   LIG    1       -0.426  -8.429  -2.027  0.00  0.00    +0.052 A 
ATOM     18  C   LIG    1       -1.040  -9.268  -1.119  0.00  0.00    +0.049 A 
ATOM     19  C   LIG    1       -0.283 -10.170  -0.385  0.00  0.00    +0.121 A 
ATOM     20  C   LIG    1        1.092 -10.230  -0.562  0.00  0.00    +0.049 A 
ATOM     21  C   LIG    1        1.710  -9.398  -1.473  0.00  0.00    +0.052 A 
BRANCH  19  22
ATOM     22  O   LIG    1       -0.889 -10.996   0.509  0.00  0.00    -0.492 OA
BRANCH  22  23
ATOM     23  C   LIG    1       -0.050 -11.900   1.230  0.00  0.00    +0.225 C 
ATOM     24  C   LIG    1       -0.904 -12.741   2.181  0.00  0.00    +0.048 C 
ENDBRANCH  22  23
ENDBRANCH  19  22
ENDBRANCH  14  16
ENDBRANCH   3  14
TORSDOF 7
