REMARK  Name = ZINC66251858
REMARK                            x       y       z     vdW  Elec       q    Type
REMARK                         _______ _______ _______ _____ _____    ______ ____
ROOT
ATOM      1  N   LIG    1        4.153  -0.953   1.342  0.00  0.00    -0.294 NA
ATOM      2  C   LIG    1        4.491   0.308   2.020  0.00  0.00    +0.091 C 
ATOM      3  C   LIG    1        4.580   0.044   3.522  0.00  0.00    +0.071 C 
ATOM      4  C   LIG    1        5.484  -1.137   3.786  0.00  0.00    +0.051 A 
ATOM      5  C   LIG    1        5.810  -2.028   2.778  0.00  0.00    +0.009 A 
ATOM      6  C   LIG    1        6.640  -3.109   3.058  0.00  0.00    +0.042 A 
ATOM      7  C   LIG    1        7.128  -3.254   4.377  0.00  0.00    +0.041 A 
ATOM      8  C   LIG    1        7.969  -4.316   4.734  0.00  0.00    +0.035 A 
ATOM      9  C   LIG    1        8.407  -4.386   6.054  0.00  0.00    +0.089 A 
ATOM     10  C   LIG    1        7.995  -3.400   6.969  0.00  0.00    +0.149 A 
ATOM     11 CL   LIG    1        8.542  -3.488   8.614  0.00  0.00    -0.061 Cl
ATOM     12  N   LIG    1        7.207  -2.417   6.608  0.00  0.00    -0.215 NA
ATOM     13  C   LIG    1        6.754  -2.300   5.354  0.00  0.00    +0.163 A 
ATOM     14  N   LIG    1        5.952  -1.290   5.012  0.00  0.00    -0.232 NA
ATOM     15  C   LIG    1        5.300  -1.867   1.371  0.00  0.00    +0.123 C 
ENDROOT
BRANCH   6  16
ATOM     16  N   LIG    1        6.979  -4.018   2.070  0.00  0.00    -0.357 N 
ATOM     17  H   LIG    1        7.559  -4.767   2.279  0.00  0.00    +0.142 HD
ATOM     18  H   LIG    1        6.636  -3.906   1.170  0.00  0.00    +0.142 HD
ENDBRANCH   6  16
BRANCH   9  19
ATOM     19  C   LIG    1        9.267  -5.450   6.475  0.00  0.00    +0.102 C 
ATOM     20  N   LIG    1        9.950  -6.295   6.809  0.00  0.00    -0.191 NA
ENDBRANCH   9  19
BRANCH   1  21
ATOM     21  C   LIG    1        3.711  -0.707  -0.038  0.00  0.00    +0.120 C 
BRANCH  21  25
ATOM     22  C   LIG    1       -0.017   1.378   0.010  0.00  0.00    +0.000 A 
ATOM     23  C   LIG    1        1.171   2.086   0.002  0.00  0.00    +0.000 A 
ATOM     24  C   LIG    1        2.377   1.411  -0.013  0.00  0.00    +0.005 A 
ATOM     25  C   LIG    1        2.396   0.029  -0.020  0.00  0.00    -0.033 A 
ATOM     26  C   LIG    1        1.208  -0.679  -0.012  0.00  0.00    +0.005 A 
ATOM     27  C   LIG    1        0.002  -0.004   0.002  0.00  0.00    +0.000 A 
ENDBRANCH  21  25
ENDBRANCH   1  21
TORSDOF 4
