REMARK  Name = ZINC43153883
REMARK                            x       y       z     vdW  Elec       q    Type
REMARK                         _______ _______ _______ _____ _____    ______ ____
ROOT
ATOM      1  C   LIG    1        0.802  -1.824   1.306  0.00  0.00    +0.132 A 
ATOM      2  C   LIG    1        0.258  -2.671   0.349  0.00  0.00    +0.047 A 
ATOM      3  C   LIG    1        0.367  -4.037   0.494  0.00  0.00    +0.013 A 
ATOM      4  C   LIG    1        1.024  -4.569   1.603  0.00  0.00    +0.001 A 
ATOM      5  C   LIG    1        1.569  -3.716   2.562  0.00  0.00    +0.026 A 
ATOM      6  C   LIG    1        1.461  -2.350   2.408  0.00  0.00    +0.097 A 
ENDROOT
BRANCH   4   7
ATOM      7  C   LIG    1        1.143  -6.038   1.762  0.00  0.00    +0.075 A 
ATOM      8  C   LIG    1        0.692  -6.876   0.743  0.00  0.00    +0.056 A 
ATOM      9  C   LIG    1        0.807  -8.248   0.901  0.00  0.00    +0.071 A 
ATOM     10  C   LIG    1        1.379  -8.749   2.089  0.00  0.00    +0.125 A 
ATOM     11  N   LIG    1        1.374 -10.092   1.991  0.00  0.00    -0.233 NA
ATOM     12  C   LIG    1        0.851 -10.450   0.852  0.00  0.00    +0.197 A 
ATOM     13  C   LIG    1        1.809  -7.837   3.070  0.00  0.00    +0.168 A 
ATOM     14  N   LIG    1        0.485  -9.349   0.140  0.00  0.00    -0.344 N 
ATOM     15  H   LIG    1        0.074  -9.342  -0.738  0.00  0.00    +0.167 HD
ATOM     16  N   LIG    1        1.682  -6.532   2.869  0.00  0.00    -0.234 NA
BRANCH  13  17
ATOM     17  C   LIG    1        2.393  -8.318   4.286  0.00  0.00    +0.121 C 
ATOM     18  N   LIG    1        2.856  -8.699   5.251  0.00  0.00    -0.189 NA
ENDBRANCH  13  17
ENDBRANCH   4   7
BRANCH   6  19
ATOM     19  C   LIG    1        2.055  -1.427   3.441  0.00  0.00    +0.421 C 
ATOM     20  F   LIG    1        1.043  -0.637   3.998  0.00  0.00    -0.166 F 
ATOM     21  F   LIG    1        3.011  -0.604   2.837  0.00  0.00    -0.166 F 
ATOM     22  F   LIG    1        2.662  -2.185   4.449  0.00  0.00    -0.166 F 
ENDBRANCH   6  19
BRANCH   1  23
ATOM     23  O   LIG    1        0.693  -0.477   1.160  0.00  0.00    -0.492 OA
BRANCH  23  25
ATOM     24  C   LIG    1       -0.019   1.526   0.010  0.00  0.00    +0.048 C 
ATOM     25  C   LIG    1        0.002  -0.004   0.002  0.00  0.00    +0.225 C 
ENDBRANCH  23  25
ENDBRANCH   1  23
TORSDOF 5
