REMARK  Name = ZINC00003742
REMARK                            x       y       z     vdW  Elec       q    Type
REMARK                         _______ _______ _______ _____ _____    ______ ____
ROOT
ATOM      1  N   LIG    1       -1.372  -0.511   0.012  0.00  0.00    -0.346 N 
ATOM      2  C   LIG    1       -1.964  -0.734   1.192  0.00  0.00    +0.105 A 
ATOM      3  C   LIG    1       -3.257  -1.211   1.288  0.00  0.00    +0.122 A 
ATOM      4  C   LIG    1       -4.009  -1.483   0.050  0.00  0.00    +0.203 A 
ATOM      5  C   LIG    1       -3.322  -1.224  -1.226  0.00  0.00    +0.049 A 
ATOM      6  C   LIG    1       -3.959  -1.455  -2.447  0.00  0.00    +0.054 A 
ATOM      7  C   LIG    1       -3.302  -1.192  -3.616  0.00  0.00    +0.145 A 
ATOM      8  F   LIG    1       -3.919  -1.409  -4.798  0.00  0.00    -0.204 F 
ATOM      9  C   LIG    1       -1.991  -0.709  -3.595  0.00  0.00    +0.067 A 
ATOM     10  C   LIG    1       -1.344  -0.480  -2.391  0.00  0.00    +0.052 A 
ATOM     11  O   LIG    1       -5.152  -1.905   0.081  0.00  0.00    -0.286 OA
ATOM     12  C   LIG    1       -2.003  -0.733  -1.194  0.00  0.00    +0.055 A 
ENDROOT
BRANCH   9  13
ATOM     13  N   LIG    1       -1.329  -0.455  -4.794  0.00  0.00    -0.331 N 
ATOM     14  C   LIG    1       -1.401   0.869  -5.431  0.00  0.00    +0.086 C 
ATOM     15  C   LIG    1        0.023   1.328  -5.760  0.00  0.00    -0.063 C 
ATOM     16  N   LIG    1        0.693   0.302  -6.568  0.00  0.00    +0.381 N 
ATOM     17  H   LIG    1        1.603   0.636  -6.848  0.00  0.00    -0.086 HD
ATOM     18  H   LIG    1        0.141   0.110  -7.391  0.00  0.00    -0.086 HD
ATOM     19  C   LIG    1        0.846  -0.931  -5.785  0.00  0.00    -0.063 C 
ATOM     20  C   LIG    1       -0.533  -1.500  -5.455  0.00  0.00    +0.086 C 
ENDBRANCH   9  13
BRANCH   1  22
ATOM     21  C   LIG    1       -0.019   1.526   0.010  0.00  0.00    +0.027 C 
ATOM     22  C   LIG    1        0.002  -0.004   0.002  0.00  0.00    +0.118 C 
ENDBRANCH   1  22
BRANCH   3  23
ATOM     23  C   LIG    1       -3.871  -1.444   2.599  0.00  0.00    +0.342 C 
ATOM     24  O   LIG    1       -3.237  -1.215   3.621  0.00  0.00    -0.245 OA
BRANCH  23  25
ATOM     25  O   LIG    1       -5.017  -1.867   2.672  0.00  0.00    -0.477 OA
ATOM     26  H   LIG    1       -5.503  -2.042   1.890  0.00  0.00    +0.295 HD
ENDBRANCH  23  25
ENDBRANCH   3  23
TORSDOF 4
