REMARK  Name = ZINC21289577
REMARK                            x       y       z     vdW  Elec       q    Type
REMARK                         _______ _______ _______ _____ _____    ______ ____
ROOT
ATOM      1  C   UNK A  0       -0.017   1.379   0.010  0.00  0.00    +0.004 A 
ATOM      2  C   UNK A  0        1.167   2.088   0.002  0.00  0.00    +0.013 A 
ATOM      3  C   UNK A  0        2.385   1.407  -0.013  0.00  0.00    +0.037 A 
ATOM      4  C   UNK A  0        2.397   0.011  -0.021  0.00  0.00    +0.013 A 
ATOM      5  C   UNK A  0        1.206  -0.686  -0.013  0.00  0.00    +0.004 A 
ATOM      6  C   UNK A  0        0.002  -0.004   0.002  0.00  0.00    -0.047 A 
ENDROOT
BRANCH   3   7
ATOM      7  C   UNK A  0        3.657   2.160  -0.022  0.00  0.00    +0.245 C 
ATOM      8  N   GLU A  1        4.831   1.499  -0.037  0.00  0.00    -0.298 N 
ATOM      9  H   GLU A  1        4.842   0.529  -0.042  0.00  0.00    +0.150 HD
ATOM     10  O   UNK A  0        3.643   3.376  -0.015  0.00  0.00    -0.270 OA
BRANCH   8  11
ATOM     11  CA  GLU A  1        6.092   2.246  -0.045  0.00  0.00    +0.182 C 
BRANCH  11  12
ATOM     12  C   GLU A  1        6.447   2.615  -1.462  0.00  0.00    +0.325 C 
ATOM     13  O   GLU A  1        7.082   3.632  -1.686  0.00  0.00    -0.249 OA
BRANCH  12  14
ATOM     14  OXT GLU A  1        6.100   1.898  -2.385  0.00  0.00    -0.479 OA
ATOM     15  HXT GLU A  1        5.612   1.117  -2.213  0.00  0.00    +0.295 HD
ENDBRANCH  12  14
ENDBRANCH  11  12
BRANCH  11  16
ATOM     16  CB  GLU A  1        7.203   1.378   0.549  0.00  0.00    +0.045 C 
BRANCH  16  17
ATOM     17  CG  GLU A  1        6.903   1.106   2.025  0.00  0.00    +0.123 C 
BRANCH  17  18
ATOM     18  CD  GLU A  1        7.997   0.251   2.611  0.00  0.00    +0.305 C 
ATOM     19  OE1 GLU A  1        8.930  -0.108   1.912  0.00  0.00    -0.251 OA
BRANCH  18  20
ATOM     20  OE2 GLU A  1        7.950  -0.082   3.782  0.00  0.00    -0.481 OA
ATOM     21  HE2 GLU A  1        7.233   0.194   4.319  0.00  0.00    +0.295 HD
ENDBRANCH  18  20
ENDBRANCH  17  18
ENDBRANCH  16  17
ENDBRANCH  11  16
ENDBRANCH   8  11
ENDBRANCH   3   7
BRANCH   6  22
ATOM     22  C   UNK A  0       -1.295  -0.772   0.010  0.00  0.00    +0.035 C 
BRANCH  22  23
ATOM     23  C   UNK A  0       -1.747  -1.024  -1.429  0.00  0.00    +0.010 C 
BRANCH  23  24
ATOM     24  C   UNK A  0       -3.064  -1.804  -1.421  0.00  0.00    +0.011 C 
ATOM     25  C   UNK A  0       -3.459  -2.158  -2.855  0.00  0.00    +0.049 C 
ATOM     26  C   UNK A  0       -4.861  -2.704  -2.893  0.00  0.00    +0.057 A 
ATOM     27  C   UNK A  0       -5.750  -2.473  -1.890  0.00  0.00    +0.107 A 
ATOM     28  N   UNK A  0       -5.403  -1.737  -0.780  0.00  0.00    -0.330 N 
ATOM     29  H   UNK A  0       -5.965  -1.747   0.011  0.00  0.00    +0.147 HD
ATOM     30  N   UNK A  0       -7.017  -2.990  -1.985  0.00  0.00    -0.316 N 
ATOM     31  C   UNK A  0       -7.375  -3.730  -3.070  0.00  0.00    +0.195 A 
ATOM     32  N   UNK A  0       -6.522  -3.964  -4.044  0.00  0.00    -0.177 NA
ATOM     33  H   UNK A  0       -7.660  -2.828  -1.277  0.00  0.00    +0.170 HD
ATOM     34  C   UNK A  0       -5.271  -3.478  -3.999  0.00  0.00    +0.279 A 
ATOM     35  O   UNK A  0       -4.491  -3.706  -4.912  0.00  0.00    -0.265 OA
ATOM     36  C   UNK A  0       -4.170  -0.939  -0.802  0.00  0.00    +0.106 C 
BRANCH  31  37
ATOM     37  N   UNK A  0       -8.643  -4.239  -3.150  0.00  0.00    -0.329 N 
ATOM     38  H   UNK A  0       -8.907  -4.767  -3.919  0.00  0.00    +0.145 HD
ATOM     39  H   UNK A  0       -9.279  -4.072  -2.436  0.00  0.00    +0.145 HD
ENDBRANCH  31  37
ENDBRANCH  23  24
ENDBRANCH  22  23
ENDBRANCH   6  22
TORSDOF 12
