REMARK  Name = ZINC27875302
REMARK                            x       y       z     vdW  Elec       q    Type
REMARK                         _______ _______ _______ _____ _____    ______ ____
ROOT
ATOM      1  N   LIG    1        1.086   2.014   0.123  0.00  0.00    -0.284 N 
ATOM      2  C   LIG    1        0.011   1.210   0.003  0.00  0.00    +0.229 C 
ATOM      3  O   LIG    1       -1.099   1.692  -0.082  0.00  0.00    -0.274 OA
ENDROOT
BRANCH   1   4
ATOM      4  C   LIG    1        0.928   3.467   0.035  0.00  0.00    +0.077 C 
ATOM      5  C   LIG    1        0.030   3.972   1.184  0.00  0.00    +0.022 C 
ATOM      6  C   LIG    1       -0.806   5.107   0.541  0.00  0.00    +0.002 C 
ATOM      7  C   LIG    1       -1.089   4.561  -0.880  0.00  0.00    +0.002 C 
ATOM      8  C   LIG    1        0.217   3.842  -1.277  0.00  0.00    +0.022 C 
ENDBRANCH   1   4
BRANCH   1  10
ATOM      9  C   LIG    1        3.043   2.056   1.590  0.00  0.00    +0.040 C 
ATOM     10  C   LIG    1        2.413   1.433   0.342  0.00  0.00    +0.182 C 
BRANCH  10  11
ATOM     11  C   LIG    1        3.287   1.712  -0.854  0.00  0.00    +0.325 C 
ATOM     12  O   LIG    1        2.846   2.332  -1.792  0.00  0.00    -0.249 OA
BRANCH  11  13
ATOM     13  O   LIG    1        4.555   1.271  -0.876  0.00  0.00    -0.479 OA
ATOM     14  H   LIG    1        4.896   0.791  -0.148  0.00  0.00    +0.295 HD
ENDBRANCH  11  13
ENDBRANCH  10  11
ENDBRANCH   1  10
BRANCH   2  15
ATOM     15  C   LIG    1        0.187  -0.286  -0.019  0.00  0.00    +0.126 C 
ATOM     16  C   LIG    1       -0.855  -0.908  -0.951  0.00  0.00    +0.028 C 
BRANCH  15  17
ATOM     17  S   LIG    1       -0.032  -0.945   1.657  0.00  0.00    -0.166 S 
ATOM     18  H   LIG    1        0.061  -2.026   1.839  0.00  0.00    +0.102 HD
ENDBRANCH  15  17
ENDBRANCH   2  15
TORSDOF 6
