REMARK  Name = ZINC00057299
REMARK                            x       y       z     vdW  Elec       q    Type
REMARK                         _______ _______ _______ _____ _____    ______ ____
ROOT
ATOM      1  C   LIG    1       -0.017   1.378   0.010  0.00  0.00    +0.022 A 
ATOM      2  C   LIG    1        1.170   2.087   0.002  0.00  0.00    -0.046 A 
ATOM      3  C   LIG    1        2.379   1.416  -0.013  0.00  0.00    +0.022 A 
ATOM      4  C   LIG    1        2.404   0.034  -0.021  0.00  0.00    +0.061 A 
ATOM      5 BR   LIG    1        4.058  -0.883  -0.043  0.00  0.00    -0.046 Br
ATOM      6  C   LIG    1        1.214  -0.680  -0.013  0.00  0.00    +0.145 A 
ATOM      7  C   LIG    1        0.002  -0.004   0.002  0.00  0.00    +0.061 A 
ATOM      8 BR   LIG    1       -1.622  -0.973   0.013  0.00  0.00    -0.046 Br
ENDROOT
BRANCH   6   9
ATOM      9  O   LIG    1        1.235  -2.039  -0.022  0.00  0.00    -0.505 OA
ATOM     10  H   LIG    1        1.250  -2.438   0.859  0.00  0.00    +0.292 HD
ENDBRANCH   6   9
BRANCH   2  11
ATOM     11  C   LIG    1        1.147   3.594   0.010  0.00  0.00    +0.030 C 
BRANCH  11  12
ATOM     12  CA  LIG    1        1.152   4.096   1.455  0.00  0.00    +0.040 C 
BRANCH  12  13
ATOM     13  N   LIG    1       -0.091   3.685   2.121  0.00  0.00    +0.387 N 
ATOM     14  H1  LIG    1       -0.087   4.016   3.074  0.00  0.00    -0.089 HD
ATOM     15  H2  LIG    1       -0.158   2.678   2.116  0.00  0.00    -0.089 HD
ATOM     16  H3  LIG    1       -0.881   4.077   1.632  0.00  0.00    -0.089 HD
ENDBRANCH  12  13
BRANCH  12  17
ATOM     17  C   LIG    1        1.252   5.600   1.463  0.00  0.00    +0.290 C 
ATOM     18  O   LIG    1        0.239   6.279   1.446  0.00  0.00    -0.253 OA
BRANCH  17  19
ATOM     19  OXT LIG    1        2.346   6.138   1.487  0.00  0.00    -0.482 OA
ATOM     20  HXT LIG    1        3.125   5.616   1.500  0.00  0.00    +0.295 HD
ENDBRANCH  17  19
ENDBRANCH  12  17
ENDBRANCH  11  12
ENDBRANCH   2  11
TORSDOF 6
