REMARK  Name = ZINC43175302
REMARK                            x       y       z     vdW  Elec       q    Type
REMARK                         _______ _______ _______ _____ _____    ______ ____
ROOT
ATOM      1  C   LIG    1       -0.395  -3.449  -0.836  0.00  0.00    +0.081 A 
ATOM      2  C   LIG    1       -0.760  -4.770  -1.124  0.00  0.00    +0.048 A 
ATOM      3  C   LIG    1       -0.246  -5.781  -0.336  0.00  0.00    +0.116 A 
ATOM      4  N   LIG    1        0.570  -5.474   0.662  0.00  0.00    -0.223 NA
ATOM      5  C   LIG    1        0.899  -4.215   0.913  0.00  0.00    +0.216 A 
ATOM      6  N   LIG    1        0.434  -3.216   0.181  0.00  0.00    -0.214 NA
ENDROOT
BRANCH   1   8
ATOM      7  C   LIG    1       -0.714  -0.978  -1.420  0.00  0.00    +0.129 A 
ATOM      8  C   LIG    1       -0.918  -2.331  -1.650  0.00  0.00    +0.060 A 
ATOM      9  C   LIG    1       -1.717  -2.440  -2.808  0.00  0.00    +0.146 A 
ATOM     10  N   LIG    1       -1.974  -1.236  -3.241  0.00  0.00    -0.177 NA
ATOM     11  N   LIG    1       -1.367  -0.305  -2.392  0.00  0.00    -0.246 N 
BRANCH   7  13
ATOM     12  C   LIG    1       -0.660   0.005   0.844  0.00  0.00    +0.130 C 
ATOM     13  N   LIG    1        0.017  -0.422  -0.383  0.00  0.00    -0.321 N 
ATOM     14  C   LIG    1        1.467  -0.261  -0.513  0.00  0.00    +0.130 C 
ENDBRANCH   7  13
BRANCH  11  15
ATOM     15  C   LIG    1       -1.425   1.152  -2.535  0.00  0.00    +0.180 C 
BRANCH  15  16
ATOM     16  C   LIG    1       -0.330   1.610  -3.462  0.00  0.00    -0.026 A 
ATOM     17  C   LIG    1        0.877   2.044  -2.945  0.00  0.00    +0.005 A 
ATOM     18  C   LIG    1        1.882   2.464  -3.796  0.00  0.00    +0.000 A 
ATOM     19  C   LIG    1        1.681   2.451  -5.164  0.00  0.00    +0.000 A 
ATOM     20  C   LIG    1        0.475   2.016  -5.681  0.00  0.00    +0.000 A 
ATOM     21  C   LIG    1       -0.529   1.592  -4.830  0.00  0.00    +0.005 A 
ENDBRANCH  15  16
ENDBRANCH  11  15
ENDBRANCH   1   8
BRANCH   5  22
ATOM     22  N   LIG    1        1.755  -3.939   1.966  0.00  0.00    -0.311 N 
ATOM     23  H   LIG    1        2.004  -3.022   2.160  0.00  0.00    +0.149 HD
BRANCH  22  24
ATOM     24  C   LIG    1        2.285  -5.032   2.785  0.00  0.00    +0.073 C 
ATOM     25  C   LIG    1        1.280  -5.378   3.886  0.00  0.00    +0.025 C 
ATOM     26  C   LIG    1        1.044  -4.149   4.766  0.00  0.00    +0.033 C 
ATOM     27  C   LIG    1        2.366  -3.715   5.401  0.00  0.00    +0.115 C 
ATOM     28  C   LIG    1        3.371  -3.369   4.300  0.00  0.00    +0.033 C 
ATOM     29  C   LIG    1        3.607  -4.598   3.420  0.00  0.00    +0.025 C 
BRANCH  27  30
ATOM     30  O   LIG    1        2.146  -2.567   6.223  0.00  0.00    -0.392 OA
ATOM     31  H   LIG    1        2.943  -2.236   6.658  0.00  0.00    +0.210 HD
ENDBRANCH  27  30
ENDBRANCH  22  24
ENDBRANCH   5  22
TORSDOF 7
