REMARK  Name = ZINC36388980
REMARK                            x       y       z     vdW  Elec       q    Type
REMARK                         _______ _______ _______ _____ _____    ______ ____
ROOT
ATOM      1  N   LIG    1        3.102  -5.313  -0.979  0.00  0.00    -0.296 N 
ATOM      2  H   LIG    1        3.565  -5.207  -0.133  0.00  0.00    +0.151 HD
ATOM      3  C   LIG    1        3.429  -6.328  -1.802  0.00  0.00    +0.304 C 
ATOM      4  N   LIG    1        4.398  -7.196  -1.450  0.00  0.00    -0.269 N 
ATOM      5  H   LIG    1        4.906  -7.052  -0.637  0.00  0.00    +0.156 HD
ATOM      6  O   LIG    1        2.849  -6.462  -2.863  0.00  0.00    -0.253 OA
ENDROOT
BRANCH   1  11
ATOM      7  C   LIG    1        0.714  -0.486  -1.252  0.00  0.00    +0.215 C 
ATOM      8  N   LIG    1        0.851  -1.809  -1.467  0.00  0.00    -0.301 N 
ATOM      9  C   LIG    1        0.319  -2.784  -0.505  0.00  0.00    +0.109 C 
ATOM     10  C   LIG    1        1.444  -3.743  -0.103  0.00  0.00    +0.041 C 
ATOM     11  C   LIG    1        2.049  -4.369  -1.361  0.00  0.00    +0.077 C 
ATOM     12  C   LIG    1        2.645  -3.270  -2.244  0.00  0.00    +0.041 C 
ATOM     13  C   LIG    1        1.529  -2.305  -2.673  0.00  0.00    +0.109 C 
ATOM     14  O   LIG    1        1.153   0.308  -2.056  0.00  0.00    -0.276 OA
BRANCH   7  16
ATOM     15  C   LIG    1       -0.004   1.537  -0.009  0.00  0.00    +0.013 C 
ATOM     16  C   LIG    1        0.016   0.007  -0.010  0.00  0.00    +0.092 C 
ENDBRANCH   7  16
ENDBRANCH   1  11
BRANCH   4  17
ATOM     17  C   LIG    1        4.672  -8.307  -2.260  0.00  0.00    +0.035 A 
ATOM     18  C   LIG    1        5.046  -9.513  -1.682  0.00  0.00    +0.027 A 
ATOM     19  C   LIG    1        5.315 -10.607  -2.480  0.00  0.00    +0.048 A 
ATOM     20  C   LIG    1        5.211 -10.502  -3.859  0.00  0.00    +0.130 A 
ATOM     21  C   LIG    1        4.838  -9.298  -4.438  0.00  0.00    +0.048 A 
ATOM     22  C   LIG    1        4.563  -8.204  -3.640  0.00  0.00    +0.027 A 
BRANCH  20  23
ATOM     23  O   LIG    1        5.476 -11.580  -4.645  0.00  0.00    -0.406 OA
BRANCH  23  24
ATOM     24  C   LIG    1        5.350 -11.400  -6.057  0.00  0.00    +0.575 C 
ATOM     25  F   LIG    1        4.037 -11.025  -6.364  0.00  0.00    -0.133 F 
ATOM     26  F   LIG    1        5.657 -12.600  -6.708  0.00  0.00    -0.133 F 
ATOM     27  F   LIG    1        6.232 -10.401  -6.480  0.00  0.00    -0.133 F 
ENDBRANCH  23  24
ENDBRANCH  20  23
ENDBRANCH   4  17
TORSDOF 5
