REMARK  Name = ZINC14947206
REMARK                            x       y       z     vdW  Elec       q    Type
REMARK                         _______ _______ _______ _____ _____    ______ ____
ROOT
ATOM      1  N   LIG    1        1.594   2.050   4.063  0.00  0.00    -0.202 N 
ATOM      2  C   LIG    1        1.448   1.686   2.776  0.00  0.00    +0.260 C 
ATOM      3  C   LIG    1        0.021   1.804   2.410  0.00  0.00    +0.071 A 
ATOM      4  C   LIG    1       -0.718   1.572   1.248  0.00  0.00    +0.052 A 
ATOM      5  C   LIG    1       -0.013   1.086   0.008  0.00  0.00    +0.066 C 
ATOM      6  N   LIG    1       -2.014   1.774   1.213  0.00  0.00    -0.251 NA
ATOM      7  C   LIG    1       -2.697   2.198   2.280  0.00  0.00    +0.072 A 
ATOM      8  C   LIG    1       -4.087   2.400   2.213  0.00  0.00    +0.028 A 
ATOM      9  C   LIG    1       -4.762   2.837   3.310  0.00  0.00    +0.002 A 
ATOM     10  C   LIG    1       -4.098   3.092   4.510  0.00  0.00    +0.001 A 
ATOM     11  C   LIG    1       -2.753   2.910   4.615  0.00  0.00    +0.011 A 
ATOM     12  C   LIG    1       -2.023   2.459   3.505  0.00  0.00    +0.013 A 
ATOM     13  C   LIG    1       -0.633   2.256   3.564  0.00  0.00    +0.061 A 
ATOM     14  O   LIG    1        2.341   1.321   2.037  0.00  0.00    -0.269 OA
ATOM     15  C   LIG    1        0.410   2.401   4.599  0.00  0.00    +0.259 C 
ATOM     16  O   LIG    1        0.230   2.774   5.740  0.00  0.00    -0.269 OA
ENDROOT
BRANCH   1  23
ATOM     17  C   LIG    1        2.382  -0.307   5.449  0.00  0.00    +0.045 C 
ATOM     18  C   LIG    1        3.236   0.934   5.441  0.00  0.00    -0.029 A 
ATOM     19  C   LIG    1        4.441   0.949   6.117  0.00  0.00    +0.005 A 
ATOM     20  C   LIG    1        5.222   2.089   6.115  0.00  0.00    +0.000 A 
ATOM     21  C   LIG    1        4.803   3.217   5.433  0.00  0.00    +0.002 A 
ATOM     22  C   LIG    1        3.601   3.208   4.753  0.00  0.00    +0.024 A 
ATOM     23  C   LIG    1        2.814   2.063   4.753  0.00  0.00    +0.047 A 
ENDBRANCH   1  23
TORSDOF 1
