REMARK  Name = ZINC22911740
REMARK                            x       y       z     vdW  Elec       q    Type
REMARK                         _______ _______ _______ _____ _____    ______ ____
ROOT
ATOM      1  C   LIG    1        3.701  -1.983  -0.044  0.00  0.00    +0.136 C 
ENDROOT
BRANCH   1   2
ATOM      2  C   LIG    1        5.065  -2.420   0.427  0.00  0.00    +0.021 A 
ATOM      3  C   LIG    1        6.101  -1.492   0.482  0.00  0.00    +0.010 A 
ATOM      4  C   LIG    1        7.344  -1.855   0.903  0.00  0.00    +0.010 A 
ATOM      5  C   LIG    1        7.589  -3.183   1.288  0.00  0.00    +0.004 A 
ATOM      6  C   LIG    1        8.861  -3.596   1.729  0.00  0.00    +0.011 A 
ATOM      7  C   LIG    1        9.025  -4.903   2.088  0.00  0.00    +0.020 A 
ATOM      8  C   LIG    1        7.950  -5.785   2.012  0.00  0.00    +0.111 A 
ATOM      9  N   LIG    1        6.767  -5.397   1.601  0.00  0.00    -0.251 NA
ATOM     10  C   LIG    1        6.540  -4.133   1.235  0.00  0.00    +0.113 A 
ATOM     11  C   LIG    1        5.263  -3.719   0.798  0.00  0.00    +0.148 A 
BRANCH  11  12
ATOM     12  O   LIG    1        4.239  -4.609   0.743  0.00  0.00    -0.504 OA
ATOM     13  H   LIG    1        4.164  -5.071  -0.104  0.00  0.00    +0.292 HD
ENDBRANCH  11  12
ENDBRANCH   1   2
BRANCH   1  17
ATOM     14  C   LIG    1        3.365  -2.649  -4.250  0.00  0.00    +0.000 A 
ATOM     15  C   LIG    1        2.808  -3.549  -3.361  0.00  0.00    +0.000 A 
ATOM     16  C   LIG    1        2.917  -3.333  -2.000  0.00  0.00    +0.006 A 
ATOM     17  C   LIG    1        3.583  -2.218  -1.528  0.00  0.00    -0.023 A 
ATOM     18  C   LIG    1        4.136  -1.315  -2.417  0.00  0.00    +0.006 A 
ATOM     19  C   LIG    1        4.031  -1.533  -3.778  0.00  0.00    +0.000 A 
ENDBRANCH   1  17
BRANCH   1  20
ATOM     20  N   LIG    1        3.521  -0.557   0.240  0.00  0.00    -0.318 N 
ATOM     21  H   LIG    1        4.294   0.021   0.331  0.00  0.00    +0.148 HD
BRANCH  20  22
ATOM     22  C   LIG    1        2.241  -0.033   0.381  0.00  0.00    +0.119 A 
ATOM     23  C   LIG    1        1.136  -0.869   0.251  0.00  0.00    +0.043 A 
ATOM     24  C   LIG    1       -0.132  -0.334   0.394  0.00  0.00    +0.005 A 
ATOM     25  C   LIG    1       -0.253   1.023   0.663  0.00  0.00    +0.020 A 
ATOM     26  C   LIG    1        0.887   1.793   0.779  0.00  0.00    +0.113 A 
ATOM     27  N   LIG    1        2.084   1.256   0.639  0.00  0.00    -0.241 NA
ENDBRANCH  20  22
ENDBRANCH   1  20
TORSDOF 5
