REMARK  Name = ZINC22448826
REMARK                            x       y       z     vdW  Elec       q    Type
REMARK                         _______ _______ _______ _____ _____    ______ ____
ROOT
ATOM      1  C   LIG    1       -2.637  -4.023  -0.603  0.00  0.00    -0.074 C 
ENDROOT
BRANCH   1   2
ATOM      2  N   LIG    1       -2.675  -2.601  -0.237  0.00  0.00    +0.379 N 
ATOM      3  H   LIG    1       -3.243  -2.098  -0.901  0.00  0.00    -0.082 HD
ATOM      4  C   LIG    1       -3.250  -2.457   1.107  0.00  0.00    -0.096 C 
BRANCH   2   5
ATOM      5  C   LIG    1       -1.311  -2.056  -0.247  0.00  0.00    -0.064 C 
BRANCH   5   6
ATOM      6  C   LIG    1       -1.362  -0.549   0.012  0.00  0.00    +0.065 C 
BRANCH   6   8
ATOM      7  C   LIG    1       -0.018   1.465   0.010  0.00  0.00    +0.104 C 
ATOM      8  N   LIG    1        0.002  -0.004   0.002  0.00  0.00    -0.310 NA
ATOM      9  C   LIG    1        0.786  -0.526   1.129  0.00  0.00    +0.104 C 
ENDBRANCH   6   8
ENDBRANCH   5   6
ENDBRANCH   2   5
ENDBRANCH   1   2
BRANCH   1  10
ATOM     10  C   LIG    1       -4.065  -4.560  -0.715  0.00  0.00    +0.016 C 
BRANCH  10  11
ATOM     11  C   LIG    1       -4.026  -6.019  -1.091  0.00  0.00    -0.048 A 
ATOM     12  C   LIG    1       -4.024  -6.389  -2.423  0.00  0.00    +0.005 A 
ATOM     13  C   LIG    1       -3.989  -7.726  -2.769  0.00  0.00    +0.022 A 
ATOM     14  C   LIG    1       -3.955  -8.696  -1.782  0.00  0.00    +0.059 A 
ATOM     15 CL   LIG    1       -3.911 -10.376  -2.216  0.00  0.00    -0.082 Cl
ATOM     16  C   LIG    1       -3.956  -8.325  -0.448  0.00  0.00    +0.059 A 
ATOM     17 CL   LIG    1       -3.914  -9.540   0.791  0.00  0.00    -0.082 Cl
ATOM     18  C   LIG    1       -3.987  -6.985  -0.104  0.00  0.00    +0.025 A 
ENDBRANCH  10  11
ENDBRANCH   1  10
TORSDOF 6
