REMARK  Name = ZINC19796035
REMARK                            x       y       z     vdW  Elec       q    Type
REMARK                         _______ _______ _______ _____ _____    ______ ____
ROOT
ATOM      1  C   LIG    1       -0.018   1.465   0.010  0.00  0.00    +0.105 C 
ATOM      2  N   LIG    1        0.002  -0.004   0.002  0.00  0.00    -0.300 NA
ATOM      3  C   LIG    1        0.620  -0.514  -1.226  0.00  0.00    +0.121 C 
ATOM      4  C   LIG    1        0.724  -2.016  -1.179  0.00  0.00    -0.009 A 
ATOM      5  C   LIG    1        0.622  -2.716   0.003  0.00  0.00    -0.033 A 
ATOM      6  C   LIG    1        0.387  -2.017   1.318  0.00  0.00    +0.063 C 
ATOM      7  C   LIG    1        0.729  -4.099  -0.001  0.00  0.00    +0.005 A 
ATOM      8  C   LIG    1        0.935  -4.783  -1.183  0.00  0.00    +0.002 A 
ATOM      9  C   LIG    1        1.034  -4.088  -2.372  0.00  0.00    +0.023 A 
ATOM     10  C   LIG    1        0.930  -2.705  -2.373  0.00  0.00    +0.029 A 
ATOM     11  C   LIG    1        0.707  -0.528   1.182  0.00  0.00    +0.097 C 
ENDROOT
BRANCH   6  12
ATOM     12  C   LIG    1        1.276  -2.624   2.372  0.00  0.00    -0.039 A 
ATOM     13  C   LIG    1        2.650  -2.591   2.221  0.00  0.00    +0.004 A 
ATOM     14  C   LIG    1        3.465  -3.148   3.189  0.00  0.00    +0.000 A 
ATOM     15  C   LIG    1        2.907  -3.738   4.308  0.00  0.00    +0.000 A 
ATOM     16  C   LIG    1        1.533  -3.770   4.459  0.00  0.00    +0.000 A 
ATOM     17  C   LIG    1        0.718  -3.209   3.494  0.00  0.00    +0.004 A 
ENDBRANCH   6  12
BRANCH  10  18
ATOM     18  N   LIG    1        1.030  -2.000  -3.575  0.00  0.00    -0.358 N 
ATOM     19  H   LIG    1        1.173  -2.477  -4.407  0.00  0.00    +0.142 HD
ATOM     20  H   LIG    1        0.957  -1.032  -3.577  0.00  0.00    +0.142 HD
ENDBRANCH  10  18
TORSDOF 2
