REMARK  Name = ZINC28459373
REMARK                            x       y       z     vdW  Elec       q    Type
REMARK                         _______ _______ _______ _____ _____    ______ ____
ROOT
ATOM      1  N   LIG    1       -0.745   1.585  -3.677  0.00  0.00    -0.346 N 
ATOM      2  C   LIG    1       -1.676   0.884  -4.353  0.00  0.00    +0.098 A 
ATOM      3  C   LIG    1       -2.139   1.633  -5.414  0.00  0.00    +0.043 A 
ATOM      4  C   LIG    1       -1.407   2.913  -5.364  0.00  0.00    +0.010 A 
ATOM      5  C   LIG    1       -1.422   4.066  -6.144  0.00  0.00    +0.011 A 
ATOM      6  C   LIG    1       -0.602   5.124  -5.813  0.00  0.00    +0.001 A 
ATOM      7  C   LIG    1        0.244   5.037  -4.718  0.00  0.00    +0.002 A 
ATOM      8  C   LIG    1        0.272   3.899  -3.941  0.00  0.00    +0.026 A 
ATOM      9  C   LIG    1       -0.554   2.824  -4.253  0.00  0.00    +0.050 A 
ENDROOT
BRANCH   3  10
ATOM     10  C   LIG    1       -3.121   1.250  -6.361  0.00  0.00    +0.169 C 
ATOM     11  O   LIG    1       -3.437   2.014  -7.251  0.00  0.00    -0.292 OA
BRANCH  10  12
ATOM     12  C   LIG    1       -3.774  -0.105  -6.264  0.00  0.00    +0.114 C 
BRANCH  12  13
ATOM     13  C   LIG    1       -4.773  -0.262  -7.381  0.00  0.00    -0.040 A 
ATOM     14  C   LIG    1       -6.087   0.122  -7.191  0.00  0.00    +0.007 A 
ATOM     15  C   LIG    1       -7.004  -0.016  -8.216  0.00  0.00    +0.046 A 
ATOM     16  C   LIG    1       -6.607  -0.551  -9.432  0.00  0.00    +0.120 A 
ATOM     17  C   LIG    1       -5.289  -0.942  -9.619  0.00  0.00    +0.046 A 
ATOM     18  C   LIG    1       -4.375  -0.796  -8.593  0.00  0.00    +0.007 A 
BRANCH  16  19
ATOM     19  O   LIG    1       -7.508  -0.693 -10.440  0.00  0.00    -0.495 OA
ATOM     20  C   LIG    1       -8.847  -0.270 -10.177  0.00  0.00    +0.277 C 
ENDBRANCH  16  19
ENDBRANCH  12  13
ENDBRANCH  10  12
ENDBRANCH   3  10
BRANCH   1  21
ATOM     21  C   LIG    1       -0.037   1.099  -2.490  0.00  0.00    +0.122 C 
BRANCH  21  22
ATOM     22  C   LIG    1       -0.753   1.593  -1.232  0.00  0.00    +0.022 C 
BRANCH  22  23
ATOM     23  C   LIG    1       -0.013   1.086   0.008  0.00  0.00    +0.001 C 
BRANCH  23  25
ATOM     24  C   LIG    1        0.011   1.072   2.506  0.00  0.00    +0.004 C 
ATOM     25  C   LIG    1       -0.729   1.579   1.267  0.00  0.00    -0.003 C 
ENDBRANCH  23  25
ENDBRANCH  22  23
ENDBRANCH  21  22
ENDBRANCH   1  21
TORSDOF 8
