REMARK  Name = ZINC20388822
REMARK                            x       y       z     vdW  Elec       q    Type
REMARK                         _______ _______ _______ _____ _____    ______ ____
ROOT
ATOM      1  N   LIG    1        3.594   2.001  -0.022  0.00  0.00    -0.319 N 
ATOM      2  C   LIG    1        4.863   1.258  -0.044  0.00  0.00    +0.087 C 
ATOM      3  C   LIG    1        5.736   1.823  -1.170  0.00  0.00    -0.063 C 
ATOM      4  N   LIG    1        5.885   3.272  -0.993  0.00  0.00    +0.381 N 
ATOM      5  H   LIG    1        6.521   3.632  -1.689  0.00  0.00    -0.086 HD
ATOM      6  H   LIG    1        6.256   3.461  -0.073  0.00  0.00    -0.086 HD
ATOM      7  C   LIG    1        4.581   3.931  -1.137  0.00  0.00    -0.063 C 
ATOM      8  C   LIG    1        3.650   3.471  -0.015  0.00  0.00    +0.087 C 
ENDROOT
BRANCH   1  11
ATOM      9  C   LIG    1       -0.005   1.365   0.226  0.00  0.00    +0.006 A 
ATOM     10  C   LIG    1        1.202   2.042   0.221  0.00  0.00    +0.044 A 
ATOM     11  C   LIG    1        2.375   1.333  -0.013  0.00  0.00    +0.123 A 
ATOM     12  N   LIG    1        2.341   0.026  -0.229  0.00  0.00    -0.221 NA
ATOM     13  C   LIG    1        1.205  -0.646  -0.230  0.00  0.00    +0.131 A 
ATOM     14 CL   LIG    1        1.222  -2.357  -0.518  0.00  0.00    -0.062 Cl
ATOM     15  C   LIG    1        0.002  -0.003  -0.004  0.00  0.00    +0.040 A 
ENDBRANCH   1  11
TORSDOF 1
