REMARK  Name = ZINC24687750
REMARK                            x       y       z     vdW  Elec       q    Type
REMARK                         _______ _______ _______ _____ _____    ______ ____
ROOT
ATOM      1  C   LIG    1        7.163   4.042   3.017  0.00  0.00    -0.046 A 
ATOM      2  C   LIG    1        8.386   3.412   3.174  0.00  0.00    +0.008 A 
ATOM      3  C   LIG    1        9.551   4.151   3.168  0.00  0.00    +0.055 A 
ATOM      4  C   LIG    1        9.494   5.537   3.001  0.00  0.00    +0.176 A 
ATOM      5  C   LIG    1        8.257   6.165   2.843  0.00  0.00    +0.055 A 
ATOM      6  C   LIG    1        7.100   5.413   2.846  0.00  0.00    +0.008 A 
ENDROOT
BRANCH   4   7
ATOM      7  N   LIG    1       10.645   6.275   2.994  0.00  0.00    -0.041 NA
ATOM      8  C   LIG    1       11.619   5.967   2.164  0.00  0.00    +0.324 C 
BRANCH   8   9
ATOM      9  C   LIG    1       12.900   6.678   2.240  0.00  0.00    +0.103 A 
ATOM     10  C   LIG    1       14.038   6.514   1.467  0.00  0.00    +0.023 A 
ATOM     11  C   LIG    1       15.096   7.337   1.778  0.00  0.00    +0.008 A 
ATOM     12  C   LIG    1       14.962   8.227   2.790  0.00  0.00    +0.046 A 
ATOM     13  S   LIG    1       13.397   7.984   3.349  0.00  0.00    -0.089 S 
ENDBRANCH   8   9
BRANCH   8  14
ATOM     14  N   LIG    1       11.435   4.977   1.222  0.00  0.00    -0.246 N 
ATOM     15  H   LIG    1       12.182   4.678   0.680  0.00  0.00    +0.288 HD
ATOM     16  H   LIG    1       10.559   4.578   1.101  0.00  0.00    +0.288 HD
ENDBRANCH   8  14
ENDBRANCH   4   7
BRANCH   1  17
ATOM     17  C   LIG    1        5.894   3.228   3.026  0.00  0.00    +0.050 C 
BRANCH  17  18
ATOM     18  C   LIG    1        5.566   2.779   1.601  0.00  0.00    +0.086 C 
BRANCH  18  19
ATOM     19  N   LIG    1        4.330   1.986   1.609  0.00  0.00    -0.312 NA
ATOM     20  H   LIG    1        3.570   2.505   2.024  0.00  0.00    +0.122 HD
BRANCH  19  21
ATOM     21  C   LIG    1        3.983   1.537   0.254  0.00  0.00    +0.116 C 
BRANCH  21  24
ATOM     22  C   LIG    1        0.322   0.615   0.204  0.00  0.00    +0.002 A 
ATOM     23  C   LIG    1        1.488   1.355   0.159  0.00  0.00    +0.005 A 
ATOM     24  C   LIG    1        2.712   0.729   0.303  0.00  0.00    -0.032 A 
ATOM     25  C   LIG    1        2.770  -0.639   0.491  0.00  0.00    +0.025 A 
ATOM     26  C   LIG    1        1.603  -1.381   0.536  0.00  0.00    +0.041 A 
ATOM     27 CL   LIG    1        1.676  -3.100   0.772  0.00  0.00    -0.084 Cl
ATOM     28  C   LIG    1        0.379  -0.753   0.392  0.00  0.00    +0.020 A 
ENDBRANCH  21  24
ENDBRANCH  19  21
ENDBRANCH  18  19
ENDBRANCH  17  18
ENDBRANCH   1  17
TORSDOF 8
