REMARK  Name = ZINC19798351
REMARK                            x       y       z     vdW  Elec       q    Type
REMARK                         _______ _______ _______ _____ _____    ______ ____
ROOT
ATOM      1  C   LIG    1        2.374   1.427  -0.014  0.00  0.00    +0.000 A 
ATOM      2  C   LIG    1        1.164   2.097   0.002  0.00  0.00    +0.000 A 
ATOM      3  C   LIG    1       -0.017   1.383   0.010  0.00  0.00    +0.005 A 
ATOM      4  C   LIG    1        0.002  -0.004   0.002  0.00  0.00    -0.030 A 
ATOM      5  C   LIG    1        1.208  -0.671  -0.012  0.00  0.00    -0.041 A 
ATOM      6  C   LIG    1        1.279  -2.177  -0.015  0.00  0.00    +0.056 C 
ATOM      7  CA  LIG    1       -0.074  -2.763  -0.418  0.00  0.00    +0.084 C 
ATOM      8  N   LIG    1       -1.119  -2.136   0.407  0.00  0.00    -0.307 NA
ATOM      9  H   LIG    1       -2.065  -2.682   0.278  0.00  0.00    +0.123 HD
ATOM     10  C   LIG    1       -1.313  -0.739   0.006  0.00  0.00    +0.117 C 
ATOM     11  C   LIG    1        2.394   0.047  -0.022  0.00  0.00    +0.004 A 
ENDROOT
BRANCH   7  12
ATOM     12  C   LIG    1       -0.070  -4.274  -0.182  0.00  0.00    +0.174 C 
BRANCH  12  13
ATOM     13  O   LIG    1       -1.302  -4.832  -0.647  0.00  0.00    -0.393 OA
ATOM     14  H   LIG    1       -1.483  -5.913  -0.560  0.00  0.00    +0.209 HD
ENDBRANCH  12  13
ENDBRANCH   7  12
TORSDOF 2
