REMARK  Name = ZINC45364925
REMARK                            x       y       z     vdW  Elec       q    Type
REMARK                         _______ _______ _______ _____ _____    ______ ____
ROOT
ATOM      1  C   LIG    1       -3.309  -2.032  -3.007  0.00  0.00    +0.010 C 
ATOM      2  C   LIG    1       -4.174  -0.904  -3.574  0.00  0.00    +0.015 C 
ATOM      3  C   LIG    1       -5.386  -0.687  -2.663  0.00  0.00    +0.105 C 
ATOM      4  N   LIG    1       -6.092  -1.966  -2.502  0.00  0.00    -0.315 N 
ATOM      5  C   LIG    1       -5.333  -3.139  -2.047  0.00  0.00    +0.105 C 
ATOM      6  C   LIG    1       -4.122  -3.329  -2.966  0.00  0.00    +0.015 C 
ENDROOT
BRANCH   4   7
ATOM      7  C   LIG    1       -7.445  -2.063  -2.772  0.00  0.00    +0.134 A 
ATOM      8  C   LIG    1       -8.398  -1.830  -1.768  0.00  0.00    +0.059 A 
ATOM      9  C   LIG    1       -8.344  -1.471  -0.352  0.00  0.00    +0.032 A 
ATOM     10  C   LIG    1       -9.614  -1.390   0.076  0.00  0.00    +0.085 A 
ATOM     11  N   LIG    1      -10.471  -1.669  -0.957  0.00  0.00    -0.346 N 
ATOM     12  H   LIG    1      -11.439  -1.672  -0.891  0.00  0.00    +0.167 HD
ATOM     13  C   LIG    1       -9.762  -1.941  -2.094  0.00  0.00    +0.143 A 
ATOM     14  N   LIG    1      -10.094  -2.264  -3.343  0.00  0.00    -0.218 NA
ATOM     15  C   LIG    1       -9.167  -2.474  -4.252  0.00  0.00    +0.225 A 
ATOM     16  N   LIG    1       -7.876  -2.374  -3.991  0.00  0.00    -0.220 NA
ENDBRANCH   4   7
BRANCH   1  19
ATOM     17  N   LIG    1       -1.819  -0.846  -1.429  0.00  0.00    -0.312 N 
ATOM     18  H   LIG    1       -1.348  -0.483  -2.196  0.00  0.00    +0.149 HD
ATOM     19  C   LIG    1       -2.868  -1.672  -1.611  0.00  0.00    +0.202 C 
ATOM     20  O   LIG    1       -3.456  -2.126  -0.653  0.00  0.00    -0.277 OA
BRANCH  17  21
ATOM     21  C   LIG    1       -1.389  -0.496  -0.073  0.00  0.00    +0.139 C 
BRANCH  21  28
ATOM     22  C   LIG    1       -0.403   1.801  -0.187  0.00  0.00    +0.008 A 
ATOM     23  C   LIG    1        0.682   2.655  -0.253  0.00  0.00    +0.038 A 
ATOM     24  C   LIG    1        1.967   2.140  -0.277  0.00  0.00    +0.123 A 
ATOM     25  F   LIG    1        3.029   2.973  -0.343  0.00  0.00    -0.205 F 
ATOM     26  C   LIG    1        2.164   0.770  -0.236  0.00  0.00    +0.038 A 
ATOM     27  C   LIG    1        1.077  -0.082  -0.170  0.00  0.00    +0.008 A 
ATOM     28  C   LIG    1       -0.205   0.433  -0.145  0.00  0.00    -0.030 A 
ENDBRANCH  21  28
ENDBRANCH  17  21
ENDBRANCH   1  19
BRANCH   1  29
ATOM     29  N   LIG    1       -2.129  -2.221  -3.861  0.00  0.00    +0.388 N 
ATOM     30  H   LIG    1       -1.593  -1.366  -3.887  0.00  0.00    -0.089 HD
ATOM     31  H   LIG    1       -2.425  -2.462  -4.795  0.00  0.00    -0.089 HD
ATOM     32  H   LIG    1       -1.558  -2.964  -3.486  0.00  0.00    -0.089 HD
ENDBRANCH   1  29
TORSDOF 5
