REMARK  Name = ZINC40914197
REMARK                            x       y       z     vdW  Elec       q    Type
REMARK                         _______ _______ _______ _____ _____    ______ ____
ROOT
ATOM      1  C   LIG    1        2.588  -2.547   4.310  0.00  0.00    +0.101 C 
ATOM      2  C   LIG    1        1.601  -3.422   5.030  0.00  0.00    +0.098 C 
ATOM      3  C   LIG    1        1.601  -4.764   4.835  0.00  0.00    +0.198 C 
ATOM      4  O   LIG    1        2.475  -5.343   3.996  0.00  0.00    -0.445 OA
ATOM      5  C   LIG    1        3.614  -4.710   3.656  0.00  0.00    +0.115 C 
ATOM      6  C   LIG    1        4.755  -5.540   3.117  0.00  0.00    +0.083 C 
ATOM      7  C   LIG    1        6.082  -4.903   3.500  0.00  0.00    +0.034 C 
ATOM      8  C   LIG    1        6.119  -3.483   2.924  0.00  0.00    +0.088 C 
ATOM      9  C   LIG    1        4.928  -2.719   3.437  0.00  0.00    +0.164 C 
ATOM     10  O   LIG    1        4.998  -1.512   3.553  0.00  0.00    -0.292 OA
ATOM     11  C   LIG    1        3.733  -3.379   3.785  0.00  0.00    +0.046 C 
ENDROOT
BRANCH   7  12
ATOM     12  C   LIG    1        7.220  -5.710   2.929  0.00  0.00    -0.036 A 
ATOM     13  C   LIG    1        7.255  -5.996   1.599  0.00  0.00    +0.004 A 
ATOM     14  C   LIG    1        8.299  -6.741   1.053  0.00  0.00    +0.001 A 
ATOM     15  C   LIG    1        9.313  -7.204   1.834  0.00  0.00    +0.008 A 
ATOM     16  C   LIG    1        9.310  -6.928   3.212  0.00  0.00    -0.018 A 
ATOM     17  C   LIG    1       10.340  -7.390   4.051  0.00  0.00    +0.008 A 
ATOM     18  C   LIG    1       10.314  -7.087   5.377  0.00  0.00    +0.001 A 
ATOM     19  C   LIG    1        9.270  -6.342   5.923  0.00  0.00    +0.001 A 
ATOM     20  C   LIG    1        8.253  -5.884   5.143  0.00  0.00    +0.009 A 
ATOM     21  C   LIG    1        8.252  -6.165   3.766  0.00  0.00    -0.014 A 
ENDBRANCH   7  12
BRANCH   1  25
ATOM     22  C   LIG    1        0.637  -0.604   1.043  0.00  0.00    +0.120 A 
ATOM     23  C   LIG    1        1.212   0.149   2.056  0.00  0.00    +0.046 A 
ATOM     24  C   LIG    1        1.842  -0.481   3.111  0.00  0.00    +0.008 A 
ATOM     25  C   LIG    1        1.900  -1.862   3.158  0.00  0.00    -0.034 A 
ATOM     26  C   LIG    1        1.328  -2.615   2.149  0.00  0.00    +0.008 A 
ATOM     27  C   LIG    1        0.691  -1.989   1.095  0.00  0.00    +0.046 A 
BRANCH  22  29
ATOM     28  C   LIG    1       -0.002   1.443   0.015  0.00  0.00    +0.277 C 
ATOM     29  O   LIG    1        0.016   0.014   0.004  0.00  0.00    -0.495 OA
ENDBRANCH  22  29
ENDBRANCH   1  25
BRANCH   3  30
ATOM     30  N   LIG    1        0.692  -5.543   5.507  0.00  0.00    -0.328 N 
ATOM     31  H   LIG    1        0.685  -6.504   5.374  0.00  0.00    +0.145 HD
ATOM     32  H   LIG    1        0.057  -5.133   6.115  0.00  0.00    +0.145 HD
ENDBRANCH   3  30
BRANCH   2  33
ATOM     33  C   LIG    1        0.654  -2.834   5.929  0.00  0.00    +0.101 C 
ATOM     34  N   LIG    1       -0.097  -2.368   6.643  0.00  0.00    -0.191 NA
ENDBRANCH   2  33
TORSDOF 5
