REMARK  Name = ZINC14429371
REMARK                            x       y       z     vdW  Elec       q    Type
REMARK                         _______ _______ _______ _____ _____    ______ ____
ROOT
ATOM      1  N   LIG    1       -1.237   2.069   0.019  0.00  0.00    -0.281 N 
ATOM      2  H   LIG    1       -2.182   1.510  -0.057  0.00  0.00    +0.155 HD
ATOM      3  C   LIG    1       -1.256   3.412   0.128  0.00  0.00    +0.250 C 
ATOM      4  O   LIG    1       -0.212   4.037   0.127  0.00  0.00    -0.270 OA
ENDROOT
BRANCH   3   5
ATOM      5  C   LIG    1       -2.541   4.124   0.249  0.00  0.00    +0.053 A 
ATOM      6  C   LIG    1       -3.759   3.402   0.252  0.00  0.00    +0.020 A 
ATOM      7  C   LIG    1       -4.930   4.085   0.365  0.00  0.00    +0.071 A 
ATOM      8  C   LIG    1       -4.906   5.487   0.477  0.00  0.00    +0.249 A 
ATOM      9  N   LIG    1       -3.737   6.153   0.473  0.00  0.00    -0.328 N 
ATOM     10  H   LIG    1       -3.729   7.250   0.557  0.00  0.00    +0.168 HD
ATOM     11  O   LIG    1       -5.954   6.104   0.580  0.00  0.00    -0.268 OA
ATOM     12  C   LIG    1       -2.566   5.499   0.367  0.00  0.00    +0.099 A 
ENDBRANCH   3   5
BRANCH   1  19
ATOM     13  C   LIG    1        1.091   1.954  -0.614  0.00  0.00    +0.025 A 
ATOM     14  C   LIG    1        2.293   1.274  -0.634  0.00  0.00    +0.022 A 
ATOM     15  C   LIG    1        2.395   0.028  -0.042  0.00  0.00    +0.041 A 
ATOM     16 CL   LIG    1        3.907  -0.824  -0.069  0.00  0.00    -0.084 Cl
ATOM     17  C   LIG    1        1.293  -0.541   0.574  0.00  0.00    +0.022 A 
ATOM     18  C   LIG    1        0.089   0.135   0.597  0.00  0.00    +0.025 A 
ATOM     19  C   LIG    1       -0.017   1.385   0.002  0.00  0.00    +0.034 A 
ENDBRANCH   1  19
TORSDOF 2
