REMARK  Name = ZINC54362885
REMARK                            x       y       z     vdW  Elec       q    Type
REMARK                         _______ _______ _______ _____ _____    ______ ____
ROOT
ATOM      1  C   LIG    1       -1.296  -0.729  -0.411  0.00  0.00    +0.080 A 
ATOM      2  C   LIG    1       -1.296  -2.077  -0.639  0.00  0.00    +0.077 A 
ATOM      3  S   LIG    1       -3.042  -2.437  -0.500  0.00  0.00    -0.059 S 
ATOM      4  C   LIG    1       -3.587  -0.770  -0.156  0.00  0.00    +0.178 A 
ATOM      5  N   LIG    1       -2.443  -0.111  -0.170  0.00  0.00    -0.224 NA
ENDROOT
BRANCH   1  12
ATOM      6  C   LIG    1       -0.029   1.406  -0.189  0.00  0.00    +0.013 A 
ATOM      7  C   LIG    1        1.158   2.111  -0.205  0.00  0.00    +0.039 A 
ATOM      8  C   LIG    1        2.352   1.456  -0.458  0.00  0.00    +0.123 A 
ATOM      9  F   LIG    1        3.511   2.150  -0.472  0.00  0.00    -0.205 F 
ATOM     10  C   LIG    1        2.361   0.091  -0.696  0.00  0.00    +0.039 A 
ATOM     11  C   LIG    1        1.180  -0.622  -0.682  0.00  0.00    +0.013 A 
ATOM     12  C   LIG    1       -0.024   0.033  -0.428  0.00  0.00    +0.001 A 
ENDBRANCH   1  12
BRANCH   4  13
ATOM     13  N   LIG    1       -4.870  -0.297   0.070  0.00  0.00    -0.215 N 
ATOM     14  H   LIG    1       -5.014   0.646   0.246  0.00  0.00    +0.176 HD
BRANCH  13  15
ATOM     15  N   LIG    1       -5.957  -1.179   0.045  0.00  0.00    -0.190 NA
ATOM     16  C   LIG    1       -7.151  -0.728   0.151  0.00  0.00    +0.037 C 
ATOM     17  C   LIG    1       -7.420   0.760   0.151  0.00  0.00    +0.052 C 
ATOM     18  C   LIG    1       -8.503   1.059  -0.892  0.00  0.00    +0.006 C 
ATOM     19  C   LIG    1       -9.733   0.196  -0.608  0.00  0.00    +0.001 C 
ATOM     20  C   LIG    1       -9.377  -1.283  -0.768  0.00  0.00    +0.006 C 
ATOM     21  C   LIG    1       -8.328  -1.670   0.273  0.00  0.00    +0.052 C 
ENDBRANCH  13  15
ENDBRANCH   4  13
TORSDOF 3
