REMARK  Name = ZINC19365698
REMARK                            x       y       z     vdW  Elec       q    Type
REMARK                         _______ _______ _______ _____ _____    ______ ____
ROOT
ATOM      1  C   LIG    1        3.846  -1.377  -4.754  0.00  0.00    +0.117 C 
ENDROOT
BRANCH   1   2
ATOM      2  N   LIG    1        5.305  -1.297  -4.913  0.00  0.00    -0.286 NA
ATOM      3  C   LIG    1        5.731  -1.903  -6.182  0.00  0.00    +0.104 C 
ATOM      4  C   LIG    1        7.258  -1.871  -6.272  0.00  0.00    +0.068 C 
ATOM      5  C   LIG    1        7.703  -2.465  -7.610  0.00  0.00    +0.025 C 
ATOM      6  N   LIG    1        7.722  -0.480  -6.175  0.00  0.00    -0.293 NA
ATOM      7  C   LIG    1        7.296   0.127  -4.906  0.00  0.00    +0.103 C 
ATOM      8  C   LIG    1        5.769   0.094  -4.815  0.00  0.00    +0.069 C 
ATOM      9  C   LIG    1        5.324   0.688  -3.477  0.00  0.00    +0.025 C 
BRANCH   6  10
ATOM     10  C   LIG    1        9.180  -0.399  -6.334  0.00  0.00    +0.111 C 
BRANCH  10  11
ATOM     11  C   LIG    1        9.591   1.044  -6.474  0.00  0.00    -0.019 C 
ATOM     12  C   LIG    1       10.489   1.551  -5.666  0.00  0.00    +0.005 C 
ENDBRANCH  10  11
ENDBRANCH   6  10
ENDBRANCH   1   2
BRANCH   1  16
ATOM     13  C   LIG    1        2.839  -0.979  -0.617  0.00  0.00    +0.037 A 
ATOM     14  C   LIG    1        2.051  -0.365  -1.593  0.00  0.00    +0.013 A 
ATOM     15  C   LIG    1        2.382  -0.497  -2.926  0.00  0.00    +0.006 A 
ATOM     16  C   LIG    1        3.491  -1.237  -3.296  0.00  0.00    -0.026 A 
ATOM     17  C   LIG    1        4.276  -1.848  -2.334  0.00  0.00    +0.006 A 
ATOM     18  C   LIG    1        3.959  -1.719  -0.998  0.00  0.00    +0.013 A 
BRANCH  13  20
ATOM     19  N   LIG    1        1.216  -1.018   1.216  0.00  0.00    -0.298 N 
ATOM     20  C   LIG    1        2.490  -0.841   0.813  0.00  0.00    +0.247 C 
ATOM     21  O   LIG    1        3.353  -0.568   1.625  0.00  0.00    -0.270 OA
BRANCH  19  23
ATOM     22  C   LIG    1        0.902  -2.188   3.340  0.00  0.00    +0.024 C 
ATOM     23  C   LIG    1        0.863  -0.836   2.626  0.00  0.00    +0.104 C 
ENDBRANCH  19  23
BRANCH  19  24
ATOM     24  C   LIG    1        0.186  -1.391   0.245  0.00  0.00    +0.104 C 
ATOM     25  C   LIG    1       -0.623  -0.152  -0.143  0.00  0.00    +0.024 C 
ENDBRANCH  19  24
ENDBRANCH  13  20
ENDBRANCH   1  16
BRANCH   1  26
ATOM     26  C   LIG    1        3.358  -2.709  -5.264  0.00  0.00    -0.026 A 
ATOM     27  C   LIG    1        3.963  -3.877  -4.836  0.00  0.00    +0.005 A 
ATOM     28  C   LIG    1        3.515  -5.098  -5.304  0.00  0.00    +0.000 A 
ATOM     29  C   LIG    1        2.463  -5.152  -6.199  0.00  0.00    +0.000 A 
ATOM     30  C   LIG    1        1.858  -3.985  -6.625  0.00  0.00    +0.000 A 
ATOM     31  C   LIG    1        2.303  -2.764  -6.155  0.00  0.00    +0.005 A 
ENDBRANCH   1  26
TORSDOF 8
