REMARK  Name = ZINC36159921
REMARK                            x       y       z     vdW  Elec       q    Type
REMARK                         _______ _______ _______ _____ _____    ______ ____
ROOT
ATOM      1  C   LIG    1       -1.262  -0.761   0.011  0.00  0.00    +0.008 C 
ATOM      2  C   LIG    1       -1.240  -2.104   0.003  0.00  0.00    +0.008 C 
ENDROOT
BRANCH   2   3
ATOM      3  C   LIG    1       -2.505  -2.861   0.012  0.00  0.00    -0.022 A 
ATOM      4  C   LIG    1       -3.728  -2.186   0.021  0.00  0.00    +0.028 A 
ATOM      5  C   LIG    1       -4.908  -2.901   0.029  0.00  0.00    +0.043 A 
ATOM      6 CL   LIG    1       -6.429  -2.063   0.041  0.00  0.00    -0.083 Cl
ATOM      7  C   LIG    1       -4.882  -4.286   0.027  0.00  0.00    +0.040 A 
ATOM      8  C   LIG    1       -3.674  -4.962   0.017  0.00  0.00    +0.043 A 
ATOM      9 CL   LIG    1       -3.652  -6.697   0.015  0.00  0.00    -0.083 Cl
ATOM     10  C   LIG    1       -2.486  -4.258   0.004  0.00  0.00    +0.028 A 
ENDBRANCH   2   3
BRANCH   1  17
ATOM     11  C   LIG    1       -0.017   1.393   0.010  0.00  0.00    +0.009 A 
ATOM     12  C   LIG    1        1.170   2.096   0.002  0.00  0.00    +0.020 A 
ATOM     13  C   LIG    1        2.378   1.420  -0.013  0.00  0.00    +0.041 A 
ATOM     14 CL   LIG    1        3.867   2.312  -0.024  0.00  0.00    -0.084 Cl
ATOM     15  C   LIG    1        2.404   0.035  -0.021  0.00  0.00    +0.020 A 
ATOM     16  C   LIG    1        1.225  -0.680  -0.013  0.00  0.00    +0.009 A 
ATOM     17  C   LIG    1        0.002  -0.004   0.002  0.00  0.00    -0.025 A 
ENDBRANCH   1  17
TORSDOF 2
