REMARK  Name = ZINC13800497
REMARK                            x       y       z     vdW  Elec       q    Type
REMARK                         _______ _______ _______ _____ _____    ______ ____
ROOT
ATOM      1  C   LIG    1        2.050  -6.110  -3.510  0.00  0.00    -0.046 A 
ATOM      2  C   LIG    1        3.098  -6.790  -2.920  0.00  0.00    +0.005 A 
ATOM      3  C   LIG    1        3.117  -8.173  -2.928  0.00  0.00    +0.029 A 
ATOM      4  C   LIG    1        2.087  -8.875  -3.525  0.00  0.00    +0.105 A 
ATOM      5  C   LIG    1        1.038  -8.194  -4.114  0.00  0.00    +0.029 A 
ATOM      6  C   LIG    1        1.017  -6.812  -4.103  0.00  0.00    +0.005 A 
ENDROOT
BRANCH   4   7
ATOM      7  S   LIG    1        2.111 -10.636  -3.535  0.00  0.00    +0.056 S 
ATOM      8  O   LIG    1        3.471 -11.024  -3.400  0.00  0.00    -0.153 OA
ATOM      9  O   LIG    1        1.308 -11.047  -4.633  0.00  0.00    -0.153 OA
BRANCH   7  10
ATOM     10  N   LIG    1        1.335 -11.145  -2.164  0.00  0.00    -0.204 NA
ATOM     11  H   LIG    1        1.242 -12.094  -1.983  0.00  0.00    +0.144 HD
ATOM     12  H   LIG    1        0.973 -10.495  -1.542  0.00  0.00    +0.144 HD
ENDBRANCH   7  10
ENDBRANCH   4   7
BRANCH   1  13
ATOM     13  C   LIG    1        2.029  -4.603  -3.502  0.00  0.00    +0.054 C 
BRANCH  13  14
ATOM     14  C   LIG    1        1.313  -4.110  -2.243  0.00  0.00    +0.109 C 
BRANCH  14  16
ATOM     15  C   LIG    1        0.710  -1.985  -1.215  0.00  0.00    +0.196 C 
ATOM     16  N   LIG    1        1.293  -2.645  -2.235  0.00  0.00    -0.317 N 
ATOM     17  H   LIG    1        1.700  -2.151  -2.964  0.00  0.00    +0.149 HD
ATOM     18  O   LIG    1        0.202  -2.603  -0.304  0.00  0.00    -0.278 OA
BRANCH  15  19
ATOM     19  C   LIG    1        0.690  -0.478  -1.207  0.00  0.00    +0.014 C 
BRANCH  19  21
ATOM     20  C   LIG    1       -0.018   1.465   0.010  0.00  0.00    -0.100 C 
ATOM     21  N   LIG    1        0.002  -0.004   0.002  0.00  0.00    +0.383 N 
ATOM     22  H   LIG    1       -0.945  -0.353   0.009  0.00  0.00    -0.086 HD
ATOM     23  H   LIG    1        0.490  -0.338   0.820  0.00  0.00    -0.086 HD
ENDBRANCH  19  21
ENDBRANCH  15  19
ENDBRANCH  14  16
ENDBRANCH  13  14
ENDBRANCH   1  13
TORSDOF 7
