REMARK  Name = ZINC22197809
REMARK                            x       y       z     vdW  Elec       q    Type
REMARK                         _______ _______ _______ _____ _____    ______ ____
ROOT
ATOM      1  C   LIG    1        6.792  -4.005   4.666  0.00  0.00    +0.077 C 
ENDROOT
BRANCH   1   2
ATOM      2  C   LIG    1        7.257  -4.378   6.050  0.00  0.00    +0.215 C 
ATOM      3  N   LIG    1        8.405  -5.065   6.213  0.00  0.00    -0.286 N 
ATOM      4  H   LIG    1        8.896  -5.379   5.438  0.00  0.00    +0.155 HD
ATOM      5  O   LIG    1        6.599  -4.059   7.018  0.00  0.00    -0.276 OA
BRANCH   3   6
ATOM      6  C   LIG    1        8.887  -5.327   7.500  0.00  0.00    +0.033 A 
ATOM      7  C   LIG    1       10.254  -5.333   7.743  0.00  0.00    +0.025 A 
ATOM      8  C   LIG    1       10.727  -5.592   9.015  0.00  0.00    +0.030 A 
ATOM      9  C   LIG    1        9.840  -5.846  10.045  0.00  0.00    +0.105 A 
ATOM     10  C   LIG    1        8.478  -5.841   9.806  0.00  0.00    +0.030 A 
ATOM     11  C   LIG    1        7.999  -5.576   8.538  0.00  0.00    +0.025 A 
BRANCH   9  12
ATOM     12  S   LIG    1       10.447  -6.176  11.666  0.00  0.00    +0.056 S 
ATOM     13  O   LIG    1       11.774  -6.661  11.512  0.00  0.00    -0.153 OA
ATOM     14  O   LIG    1        9.437  -6.918  12.335  0.00  0.00    -0.153 OA
BRANCH  12  15
ATOM     15  N   LIG    1       10.563  -4.722  12.451  0.00  0.00    -0.204 NA
ATOM     16  H   LIG    1       10.745  -3.912  11.948  0.00  0.00    +0.144 HD
ATOM     17  H   LIG    1       10.450  -4.680  13.413  0.00  0.00    +0.144 HD
ENDBRANCH  12  15
ENDBRANCH   9  12
ENDBRANCH   3   6
ENDBRANCH   1   2
BRANCH   1  18
ATOM     18  C   LIG    1        5.473  -3.235   4.761  0.00  0.00    -0.070 C 
BRANCH  18  22
ATOM     19  C   LIG    1        4.163  -0.984   1.389  0.00  0.00    -0.010 C 
ATOM     20  C   LIG    1        3.184  -1.933   2.087  0.00  0.00    -0.015 C 
ATOM     21  C   LIG    1        3.697  -2.240   3.496  0.00  0.00    -0.079 C 
ATOM     22  N   LIG    1        5.019  -2.872   3.412  0.00  0.00    +0.380 N 
ATOM     23  H   LIG    1        4.957  -3.704   2.845  0.00  0.00    -0.082 HD
ATOM     24  C   LIG    1        5.980  -1.940   2.809  0.00  0.00    -0.079 C 
ATOM     25  C   LIG    1        5.555  -1.622   1.374  0.00  0.00    -0.015 C 
BRANCH  19  26
ATOM     26  C   LIG    1        3.698  -0.735  -0.047  0.00  0.00    +0.038 C 
BRANCH  26  30
ATOM     27  C   LIG    1       -0.025   1.359   0.001  0.00  0.00    +0.000 A 
ATOM     28  C   LIG    1        1.164   2.063  -0.015  0.00  0.00    +0.000 A 
ATOM     29  C   LIG    1        2.369   1.386  -0.031  0.00  0.00    +0.003 A 
ATOM     30  C   LIG    1        2.385   0.004  -0.029  0.00  0.00    -0.047 A 
ATOM     31  C   LIG    1        1.195  -0.701  -0.012  0.00  0.00    +0.003 A 
ATOM     32  C   LIG    1       -0.009  -0.024   0.002  0.00  0.00    +0.000 A 
ENDBRANCH  26  30
ENDBRANCH  19  26
ENDBRANCH  18  22
ENDBRANCH   1  18
TORSDOF 8
