REMARK  Name = ZINC22916765
REMARK                            x       y       z     vdW  Elec       q    Type
REMARK                         _______ _______ _______ _____ _____    ______ ____
ROOT
ATOM      1  N   LIG    1       -0.833  -6.851   0.746  0.00  0.00    -0.209 N 
ATOM      2  H   LIG    1       -0.796  -7.466   1.496  0.00  0.00    +0.177 HD
ATOM      3  C   LIG    1       -1.418  -7.229  -0.408  0.00  0.00    +0.216 C 
ATOM      4  O   LIG    1       -1.464  -6.460  -1.345  0.00  0.00    -0.276 OA
ENDROOT
BRANCH   1   6
ATOM      5  C   LIG    1        0.285  -5.206   1.975  0.00  0.00    +0.142 C 
ATOM      6  N   LIG    1       -0.279  -5.570   0.863  0.00  0.00    -0.188 NA
BRANCH   5  11
ATOM      7  C   LIG    1        1.369  -1.702   1.144  0.00  0.00    -0.002 A 
ATOM      8  C   LIG    1        1.967  -1.322   2.331  0.00  0.00    +0.007 A 
ATOM      9  C   LIG    1        2.019  -2.200   3.400  0.00  0.00    +0.001 A 
ATOM     10  C   LIG    1        1.475  -3.462   3.292  0.00  0.00    +0.013 A 
ATOM     11  C   LIG    1        0.868  -3.858   2.098  0.00  0.00    +0.036 A 
ATOM     12  C   LIG    1        0.812  -2.965   1.019  0.00  0.00    +0.129 A 
BRANCH  12  13
ATOM     13  O   LIG    1        0.220  -3.337  -0.145  0.00  0.00    -0.506 OA
ATOM     14  H   LIG    1        0.821  -3.756  -0.776  0.00  0.00    +0.292 HD
ENDBRANCH  12  13
BRANCH   7  15
ATOM     15  C   LIG    1        1.317  -0.740  -0.015  0.00  0.00    +0.065 C 
BRANCH  15  17
ATOM     16  C   LIG    1       -0.016   1.306   0.009  0.00  0.00    +0.004 C 
ATOM     17  C   LIG    1        0.002  -0.004   0.002  0.00  0.00    -0.030 C 
ENDBRANCH  15  17
ENDBRANCH   7  15
ENDBRANCH   5  11
ENDBRANCH   1   6
BRANCH   3  18
ATOM     18  C   LIG    1       -2.015  -8.607  -0.534  0.00  0.00    +0.020 C 
BRANCH  18  19
ATOM     19  N   LIG    1       -2.586  -8.773  -1.877  0.00  0.00    +0.387 N 
ATOM     20  H   LIG    1       -1.879  -8.576  -2.570  0.00  0.00    -0.081 HD
ATOM     21  C   LIG    1       -3.711  -7.843  -2.048  0.00  0.00    -0.063 C 
ATOM     22  C   LIG    1       -4.295  -8.002  -3.454  0.00  0.00    +0.066 C 
ATOM     23  N   LIG    1       -4.749  -9.387  -3.639  0.00  0.00    -0.302 NA
ATOM     24  C   LIG    1       -3.639 -10.331  -3.446  0.00  0.00    +0.066 C 
ATOM     25  C   LIG    1       -3.061 -10.153  -2.041  0.00  0.00    -0.063 C 
BRANCH  23  26
ATOM     26  C   LIG    1       -5.368  -9.566  -4.959  0.00  0.00    +0.119 C 
BRANCH  26  27
ATOM     27  C   LIG    1       -6.037 -10.915  -5.022  0.00  0.00    -0.033 A 
ATOM     28  C   LIG    1       -5.327 -12.019  -5.456  0.00  0.00    +0.005 A 
ATOM     29  C   LIG    1       -5.940 -13.256  -5.513  0.00  0.00    +0.000 A 
ATOM     30  C   LIG    1       -7.263 -13.390  -5.136  0.00  0.00    +0.000 A 
ATOM     31  C   LIG    1       -7.973 -12.287  -4.701  0.00  0.00    +0.000 A 
ATOM     32  C   LIG    1       -7.359 -11.050  -4.639  0.00  0.00    +0.005 A 
ENDBRANCH  26  27
ENDBRANCH  23  26
ENDBRANCH  18  19
ENDBRANCH   3  18
TORSDOF 9
