REMARK  Name = ZINC34327129
REMARK                            x       y       z     vdW  Elec       q    Type
REMARK                         _______ _______ _______ _____ _____    ______ ____
ROOT
ATOM      1  C   LIG    1        5.002  -2.740  -0.061  0.00  0.00    +0.066 A 
ATOM      2  C   LIG    1        5.018  -4.135  -0.074  0.00  0.00    +0.028 A 
ATOM      3  C   LIG    1        6.235  -4.797  -0.090  0.00  0.00    +0.005 A 
ATOM      4  C   LIG    1        7.399  -4.046  -0.092  0.00  0.00    +0.043 A 
ATOM      5  C   LIG    1        7.315  -2.656  -0.078  0.00  0.00    +0.117 A 
ATOM      6  N   LIG    1        6.140  -2.050  -0.069  0.00  0.00    -0.233 NA
ENDROOT
BRANCH   5   7
ATOM      7  N   LIG    1        8.480  -1.898  -0.079  0.00  0.00    -0.343 N 
ATOM      8  H   LIG    1        8.428  -0.929  -0.070  0.00  0.00    +0.144 HD
ATOM      9  H   LIG    1        9.345  -2.337  -0.090  0.00  0.00    +0.144 HD
ENDBRANCH   5   7
BRANCH   1  11
ATOM     10  C   LIG    1        3.692  -0.681  -0.037  0.00  0.00    +0.010 C 
ATOM     11  C   LIG    1        3.715  -2.024  -0.045  0.00  0.00    +0.028 C 
BRANCH  10  15
ATOM     12  C   LIG    1       -0.017   1.380   0.010  0.00  0.00    +0.000 A 
ATOM     13  C   LIG    1        1.168   2.095   0.002  0.00  0.00    +0.001 A 
ATOM     14  C   LIG    1        2.377   1.432  -0.013  0.00  0.00    +0.008 A 
ATOM     15  C   LIG    1        2.404   0.034  -0.021  0.00  0.00    -0.025 A 
ATOM     16  C   LIG    1        1.204  -0.681  -0.013  0.00  0.00    +0.008 A 
ATOM     17  C   LIG    1        0.002  -0.004   0.002  0.00  0.00    +0.001 A 
ENDBRANCH  10  15
ENDBRANCH   1  11
TORSDOF 3
