REMARK  Name = ZINC57476216
REMARK                            x       y       z     vdW  Elec       q    Type
REMARK                         _______ _______ _______ _____ _____    ______ ____
ROOT
ATOM      1  C   LIG    1        0.054  -2.844   2.489  0.00  0.00    +0.158 C 
ENDROOT
BRANCH   1   2
ATOM      2  N   LIG    1        1.440  -3.073   2.903  0.00  0.00    -0.326 N 
ATOM      3  C   LIG    1        2.184  -4.184   2.653  0.00  0.00    +0.200 A 
ATOM      4  N   LIG    1        3.373  -4.052   3.165  0.00  0.00    -0.236 NA
ATOM      5  C   LIG    1        3.473  -2.845   3.779  0.00  0.00    +0.089 A 
ATOM      6  C   LIG    1        4.499  -2.200   4.473  0.00  0.00    +0.030 A 
ATOM      7  C   LIG    1        4.296  -0.947   4.980  0.00  0.00    +0.002 A 
ATOM      8  C   LIG    1        3.074  -0.309   4.821  0.00  0.00    +0.002 A 
ATOM      9  C   LIG    1        2.046  -0.928   4.142  0.00  0.00    +0.028 A 
ATOM     10  C   LIG    1        2.236  -2.198   3.615  0.00  0.00    +0.069 A 
ENDBRANCH   1   2
BRANCH   1  17
ATOM     11  C   LIG    1       -0.018   1.503   0.010  0.00  0.00    +0.044 C 
ATOM     12  C   LIG    1        0.002  -0.004   0.002  0.00  0.00    -0.050 A 
ATOM     13  C   LIG    1        0.006  -0.689  -1.199  0.00  0.00    +0.006 A 
ATOM     14  C   LIG    1        0.025  -2.071  -1.206  0.00  0.00    -0.050 A 
ATOM     15  C   LIG    1        0.027  -2.817  -2.516  0.00  0.00    +0.044 C 
ATOM     16  C   LIG    1        0.040  -2.768  -0.013  0.00  0.00    +0.008 A 
ATOM     17  C   LIG    1        0.037  -2.084   1.188  0.00  0.00    -0.027 A 
ATOM     18  C   LIG    1        0.023  -0.702   1.195  0.00  0.00    +0.008 A 
ENDBRANCH   1  17
TORSDOF 2
