REMARK  Name = ZINC22064471
REMARK                            x       y       z     vdW  Elec       q    Type
REMARK                         _______ _______ _______ _____ _____    ______ ____
ROOT
ATOM      1  C   LIG    1       -1.413  -2.063   0.004  0.00  0.00    +0.267 C 
ENDROOT
BRANCH   1   2
ATOM      2  P   LIG    1       -3.123  -2.695   0.017  0.00  0.00    +0.371 P 
ATOM      3  O   LIG    1       -3.846  -2.196   1.289  0.00  0.00    -0.255 OA
BRANCH   2   4
ATOM      4  O   LIG    1       -3.101  -4.304   0.009  0.00  0.00    -0.322 OA
ATOM      5  H   LIG    1       -3.979  -4.710   0.015  0.00  0.00    +0.220 HD
ENDBRANCH   2   4
BRANCH   2   6
ATOM      6  O   LIG    1       -3.870  -2.183  -1.234  0.00  0.00    -0.322 OA
ATOM      7  H   LIG    1       -3.883  -1.213  -1.229  0.00  0.00    +0.220 HD
ENDBRANCH   2   6
ENDBRANCH   1   2
BRANCH   1   8
ATOM      8  P   LIG    1       -0.531  -2.667   1.481  0.00  0.00    +0.371 P 
ATOM      9  O   LIG    1        0.972  -2.232   1.407  0.00  0.00    -0.255 OA
BRANCH   8  10
ATOM     10  O   LIG    1       -0.620  -4.230   1.540  0.00  0.00    -0.322 OA
ATOM     11  H   LIG    1       -0.213  -4.607   0.744  0.00  0.00    +0.220 HD
ENDBRANCH   8  10
BRANCH   8  12
ATOM     12  O   LIG    1       -1.188  -2.059   2.767  0.00  0.00    -0.322 OA
ATOM     13  H   LIG    1       -1.133  -1.091   2.731  0.00  0.00    +0.220 HD
ENDBRANCH   8  12
ENDBRANCH   1   8
BRANCH   1  14
ATOM     14  O   LIG    1       -0.744  -2.524  -1.171  0.00  0.00    -0.367 OA
ATOM     15  H   LIG    1       -1.159  -2.240  -1.997  0.00  0.00    +0.212 HD
ENDBRANCH   1  14
BRANCH   1  16
ATOM     16  C   LIG    1       -1.433  -0.534   0.013  0.00  0.00    +0.060 C 
BRANCH  16  17
ATOM     17  C   LIG    1        0.002  -0.004   0.002  0.00  0.00    +0.004 C 
BRANCH  17  18
ATOM     18  C   LIG    1       -0.019   1.526   0.010  0.00  0.00    -0.002 C 
BRANCH  18  19
ATOM     19  C   LIG    1        1.417   2.055  -0.000  0.00  0.00    -0.020 C 
BRANCH  19  20
ATOM     20  C   LIG    1        1.396   3.585   0.008  0.00  0.00    -0.086 C 
BRANCH  20  21
ATOM     21  N   LIG    1        2.774   4.094  -0.002  0.00  0.00    +0.378 N 
ATOM     22  H   LIG    1        3.262   3.759   0.815  0.00  0.00    -0.090 HD
ATOM     23  H   LIG    1        2.760   5.103   0.003  0.00  0.00    -0.090 HD
ATOM     24  H   LIG    1        3.246   3.768  -0.833  0.00  0.00    -0.090 HD
ENDBRANCH  20  21
ENDBRANCH  19  20
ENDBRANCH  18  19
ENDBRANCH  17  18
ENDBRANCH  16  17
ENDBRANCH   1  16
TORSDOF 13
