REMARK  Name = ZINC34866049
REMARK                            x       y       z     vdW  Elec       q    Type
REMARK                         _______ _______ _______ _____ _____    ______ ____
ROOT
ATOM      1  N   LIG    1       -4.238  -0.148   2.541  0.00  0.00    +0.380 N 
ATOM      2  H   LIG    1       -3.692  -0.335   3.369  0.00  0.00    -0.082 HD
ATOM      3  C   LIG    1       -4.419   1.301   2.394  0.00  0.00    -0.076 C 
ATOM      4  C   LIG    1       -5.078   1.867   3.654  0.00  0.00    +0.023 C 
ATOM      5  C   LIG    1       -6.441   1.199   3.854  0.00  0.00    +0.124 C 
ATOM      6  F   LIG    1       -7.277   1.510   2.777  0.00  0.00    -0.240 F 
ATOM      7  C   LIG    1       -6.249  -0.319   3.932  0.00  0.00    +0.023 C 
ATOM      8  C   LIG    1       -5.546  -0.804   2.662  0.00  0.00    -0.076 C 
ENDROOT
BRANCH   1   9
ATOM      9  C   LIG    1       -3.536  -0.674   1.363  0.00  0.00    -0.075 C 
BRANCH   9  14
ATOM     10  C   LIG    1       -0.019   1.526   0.010  0.00  0.00    +0.041 C 
ATOM     11  C   LIG    1        0.002  -0.004   0.002  0.00  0.00    +0.064 C 
ATOM     12  C   LIG    1        0.718  -0.498  -1.257  0.00  0.00    +0.041 C 
ATOM     13  C   LIG    1       -1.434  -0.534   0.014  0.00  0.00    +0.036 C 
ATOM     14  C   LIG    1       -2.124  -0.086   1.306  0.00  0.00    -0.023 C 
ATOM     15  C   LIG    1       -1.311  -0.582   2.506  0.00  0.00    +0.030 C 
ATOM     16  C   LIG    1        0.120  -0.050   2.397  0.00  0.00    +0.161 C 
ATOM     17  O   LIG    1        0.693  -0.478   1.160  0.00  0.00    -0.374 OA
ENDBRANCH   9  14
ENDBRANCH   1   9
BRANCH   5  18
ATOM     18  C   LIG    1       -7.071   1.701   5.155  0.00  0.00    +0.144 C 
BRANCH  18  19
ATOM     19  N   LIG    1       -8.375   1.061   5.345  0.00  0.00    -0.308 N 
ATOM     20  H   LIG    1       -8.704   0.427   4.689  0.00  0.00    +0.149 HD
ATOM     21  C   LIG    1       -9.117   1.354   6.431  0.00  0.00    +0.244 C 
ATOM     22  O   LIG    1       -8.705   2.149   7.253  0.00  0.00    -0.270 OA
BRANCH  21  23
ATOM     23  C   LIG    1      -10.434   0.708   6.623  0.00  0.00    +0.039 A 
ATOM     24  C   LIG    1      -10.907  -0.209   5.684  0.00  0.00    +0.033 A 
ATOM     25  C   LIG    1      -12.137  -0.809   5.869  0.00  0.00    +0.043 A 
ATOM     26 CL   LIG    1      -12.729  -1.950   4.702  0.00  0.00    -0.083 Cl
ATOM     27  C   LIG    1      -12.900  -0.502   6.983  0.00  0.00    +0.040 A 
ATOM     28  C   LIG    1      -12.436   0.407   7.918  0.00  0.00    +0.043 A 
ATOM     29 CL   LIG    1      -13.400   0.787   9.310  0.00  0.00    -0.083 Cl
ATOM     30  C   LIG    1      -11.204   1.009   7.747  0.00  0.00    +0.033 A 
ENDBRANCH  21  23
ENDBRANCH  18  19
ENDBRANCH   5  18
TORSDOF 5
