REMARK  Name = ZINC20411962
REMARK                            x       y       z     vdW  Elec       q    Type
REMARK                         _______ _______ _______ _____ _____    ______ ____
ROOT
ATOM      1  C   LIG    1        4.134  -1.676  -2.267  0.00  0.00    +0.104 A 
ATOM      2  C   LIG    1        4.843  -2.371  -3.279  0.00  0.00    +0.042 A 
ATOM      3  C   LIG    1        6.048  -2.747  -2.682  0.00  0.00    +0.151 A 
ATOM      4  N   LIG    1        6.000  -2.277  -1.396  0.00  0.00    -0.270 N 
ATOM      5  H   LIG    1        6.703  -2.389  -0.737  0.00  0.00    +0.189 HD
ATOM      6  N   LIG    1        4.892  -1.663  -1.192  0.00  0.00    -0.172 NA
ENDROOT
BRANCH   2   7
ATOM      7  C   LIG    1        4.401  -2.639  -4.666  0.00  0.00    -0.010 A 
ATOM      8  C   LIG    1        3.325  -3.495  -4.904  0.00  0.00    +0.012 A 
ATOM      9  C   LIG    1        2.914  -3.744  -6.197  0.00  0.00    +0.050 A 
ATOM     10  C   LIG    1        3.569  -3.146  -7.264  0.00  0.00    +0.166 A 
ATOM     11  C   LIG    1        4.646  -2.290  -7.033  0.00  0.00    +0.167 A 
ATOM     12  O   LIG    1        5.110  -1.839  -8.235  0.00  0.00    -0.453 OA
ATOM     13  C   LIG    1        4.572  -2.742  -9.218  0.00  0.00    +0.466 C 
ATOM     14  O   LIG    1        3.361  -3.229  -8.611  0.00  0.00    -0.453 OA
ATOM     15  C   LIG    1        5.057  -2.033  -5.738  0.00  0.00    +0.058 A 
ENDBRANCH   2   7
BRANCH   1  18
ATOM     16  C   LIG    1        1.228   0.280  -3.626  0.00  0.00    -0.005 A 
ATOM     17  C   LIG    1        2.481  -0.283  -3.506  0.00  0.00    +0.021 A 
ATOM     18  C   LIG    1        2.788  -1.069  -2.398  0.00  0.00    +0.045 A 
ATOM     19  C   LIG    1        1.822  -1.286  -1.409  0.00  0.00    +0.130 A 
ATOM     20  C   LIG    1        0.567  -0.717  -1.538  0.00  0.00    +0.091 A 
ATOM     21  C   LIG    1        0.271   0.070  -2.641  0.00  0.00    +0.124 A 
BRANCH  16  23
ATOM     22  C   LIG    1        0.097   0.303  -5.832  0.00  0.00    +0.009 C 
ATOM     23  C   LIG    1        0.897   1.131  -4.825  0.00  0.00    +0.035 C 
ENDBRANCH  16  23
BRANCH  19  24
ATOM     24  O   LIG    1        2.115  -2.052  -0.327  0.00  0.00    -0.506 OA
ATOM     25  H   LIG    1        2.409  -1.548   0.445  0.00  0.00    +0.292 HD
ENDBRANCH  19  24
BRANCH  21  26
ATOM     26  O   LIG    1       -0.960   0.632  -2.762  0.00  0.00    -0.506 OA
ATOM     27  H   LIG    1       -1.602   0.078  -3.227  0.00  0.00    +0.292 HD
ENDBRANCH  21  26
ENDBRANCH   1  18
BRANCH   3  28
ATOM     28  C   LIG    1        7.142  -3.493  -3.304  0.00  0.00    +0.355 C 
ATOM     29  O   LIG    1        8.149  -3.756  -2.658  0.00  0.00    -0.243 OA
BRANCH  28  30
ATOM     30  O   LIG    1        7.051  -3.855  -4.470  0.00  0.00    -0.476 OA
ATOM     31  H   LIG    1        6.281  -3.653  -4.964  0.00  0.00    +0.295 HD
ENDBRANCH  28  30
ENDBRANCH   3  28
TORSDOF 7
