REMARK  Name = ZINC26177754
REMARK                            x       y       z     vdW  Elec       q    Type
REMARK                         _______ _______ _______ _____ _____    ______ ____
ROOT
ATOM      1  C   LIG    1        3.035   2.604  -1.250  0.00  0.00    -0.038 A 
ATOM      2  C   LIG    1        3.786   2.548  -0.090  0.00  0.00    +0.004 A 
ATOM      3  C   LIG    1        3.189   2.201   1.107  0.00  0.00    +0.008 A 
ATOM      4  C   LIG    1        1.838   1.914   1.149  0.00  0.00    -0.003 A 
ATOM      5  C   LIG    1        1.083   1.965  -0.013  0.00  0.00    +0.121 A 
ATOM      6  C   LIG    1        1.685   2.314  -1.214  0.00  0.00    +0.049 A 
ENDROOT
BRANCH   4   7
ATOM      7  C   LIG    1        1.187   1.541   2.456  0.00  0.00    +0.028 C 
ATOM      8  C   LIG    1        2.004   0.442   3.138  0.00  0.00    +0.040 C 
ATOM      9  C   LIG    1        1.342   0.064   4.465  0.00  0.00    +0.115 C 
ATOM     10  C   LIG    1        1.282   1.293   5.373  0.00  0.00    +0.031 C 
ATOM     11  C   LIG    1        0.465   2.392   4.691  0.00  0.00    +0.006 C 
ATOM     12  C   LIG    1        1.127   2.771   3.365  0.00  0.00    -0.003 C 
BRANCH   9  13
ATOM     13  O   LIG    1        2.106  -0.963   5.102  0.00  0.00    -0.392 OA
ATOM     14  H   LIG    1        1.783  -1.366   6.073  0.00  0.00    +0.210 HD
ENDBRANCH   9  13
BRANCH  12  15
ATOM     15  C   LIG    1        2.545   3.279   3.629  0.00  0.00    +0.006 C 
BRANCH  15  16
ATOM     16  C   LIG    1        2.482   4.544   4.488  0.00  0.00    +0.028 C 
BRANCH  16  17
ATOM     17  C   LIG    1        3.900   5.053   4.752  0.00  0.00    +0.156 C 
BRANCH  17  18
ATOM     18  O   LIG    1        3.841   6.234   5.554  0.00  0.00    -0.395 OA
ATOM     19  H   LIG    1        4.769   6.746   5.848  0.00  0.00    +0.209 HD
ENDBRANCH  17  18
ENDBRANCH  16  17
ENDBRANCH  15  16
ENDBRANCH  12  15
ENDBRANCH   4   7
BRANCH   1  20
ATOM     20  C   LIG    1        3.689   2.983  -2.554  0.00  0.00    -0.010 C 
ATOM     21  C   LIG    1        3.024   4.244  -3.110  0.00  0.00    +0.016 C 
ATOM     22  C   LIG    1        3.530   1.838  -3.556  0.00  0.00    +0.016 C 
BRANCH  20  23
ATOM     23  C   LIG    1        5.177   3.252  -2.318  0.00  0.00    +0.011 C 
BRANCH  23  24
ATOM     24  C   LIG    1        5.841   3.637  -3.642  0.00  0.00    +0.001 C 
BRANCH  24  25
ATOM     25  C   LIG    1        7.328   3.907  -3.407  0.00  0.00    +0.000 C 
BRANCH  25  26
ATOM     26  C   LIG    1        7.992   4.292  -4.730  0.00  0.00    -0.000 C 
BRANCH  26  28
ATOM     27  C   LIG    1       10.144   4.946  -5.818  0.00  0.00    +0.004 C 
ATOM     28  C   LIG    1        9.480   4.561  -4.495  0.00  0.00    -0.003 C 
ENDBRANCH  26  28
ENDBRANCH  25  26
ENDBRANCH  24  25
ENDBRANCH  23  24
ENDBRANCH  20  23
ENDBRANCH   1  20
BRANCH   5  29
ATOM     29  O   LIG    1       -0.245   1.678   0.024  0.00  0.00    -0.506 OA
ATOM     30  H   LIG    1       -0.843   1.719  -0.898  0.00  0.00    +0.292 HD
ENDBRANCH   5  29
TORSDOF 13
