REMARK  Name = ZINC19365778
REMARK                            x       y       z     vdW  Elec       q    Type
REMARK                         _______ _______ _______ _____ _____    ______ ____
ROOT
ATOM      1  C   LIG    1       -1.349   7.849  -0.834  0.00  0.00    -0.096 C 
ATOM      2  N   LIG    1       -0.096   7.338  -1.404  0.00  0.00    +0.377 N 
ATOM      3  H   LIG    1        0.731   7.681  -0.765  0.00  0.00    -0.082 HD
ENDROOT
BRANCH   2   4
ATOM      4  C   LIG    1        0.125   7.873  -2.755  0.00  0.00    -0.098 C 
BRANCH   4   5
ATOM      5  C   LIG    1        0.352   9.384  -2.674  0.00  0.00    -0.098 C 
BRANCH   5   6
ATOM      6  N   LIG    1        0.573   9.919  -4.024  0.00  0.00    +0.379 N 
ATOM      7  H   LIG    1        1.549   9.526  -4.345  0.00  0.00    -0.082 HD
ATOM      8  C   LIG    1       -0.518   9.508  -4.944  0.00  0.00    -0.079 C 
ATOM      9  C   LIG    1       -0.421  10.542  -6.094  0.00  0.00    -0.020 C 
ATOM     10  C   LIG    1       -0.061  11.850  -5.352  0.00  0.00    -0.020 C 
ATOM     11  C   LIG    1        0.558  11.398  -4.017  0.00  0.00    -0.079 C 
ENDBRANCH   5   6
ENDBRANCH   4   5
ENDBRANCH   2   4
BRANCH   2  12
ATOM     12  C   LIG    1       -0.082   5.869  -1.411  0.00  0.00    -0.075 C 
BRANCH  12  13
ATOM     13  C   LIG    1       -0.064   5.352   0.029  0.00  0.00    +0.016 C 
BRANCH  13  14
ATOM     14  C   LIG    1       -0.049   3.845   0.021  0.00  0.00    -0.047 A 
ATOM     15  C   LIG    1        1.156   3.166   0.007  0.00  0.00    +0.004 A 
ATOM     16  C   LIG    1        1.174   1.783   0.000  0.00  0.00    +0.002 A 
ATOM     17  C   LIG    1       -0.013   1.076   0.008  0.00  0.00    +0.023 A 
ATOM     18  C   LIG    1       -1.224   1.755   0.017  0.00  0.00    +0.025 A 
ATOM     19  C   LIG    1       -1.238   3.144   0.029  0.00  0.00    +0.026 A 
BRANCH  18  20
ATOM     20  N   LIG    1       -2.426   1.042   0.020  0.00  0.00    -0.358 N 
ATOM     21  H   LIG    1       -2.413  -0.058   0.014  0.00  0.00    +0.142 HD
ATOM     22  H   LIG    1       -3.385   1.581   0.027  0.00  0.00    +0.142 HD
ENDBRANCH  18  20
ENDBRANCH  13  14
ENDBRANCH  12  13
ENDBRANCH   2  12
TORSDOF 7
