REMARK  Name = ZINC68244543
REMARK                            x       y       z     vdW  Elec       q    Type
REMARK                         _______ _______ _______ _____ _____    ______ ____
ROOT
ATOM      1  C   LIG    1        2.940  -1.484  -5.095  0.00  0.00    +0.090 A 
ATOM      2  C   LIG    1        2.237  -1.303  -6.291  0.00  0.00    +0.141 A 
ATOM      3  N   LIG    1        2.715  -1.786  -7.421  0.00  0.00    -0.236 NA
ATOM      4  C   LIG    1        3.867  -2.448  -7.428  0.00  0.00    +0.147 A 
ATOM      5  C   LIG    1        4.576  -2.632  -6.229  0.00  0.00    +0.166 A 
ATOM      6  N   LIG    1        4.093  -2.138  -5.094  0.00  0.00    -0.237 NA
ENDROOT
BRANCH   1  10
ATOM      7  C   LIG    1        1.383   0.079  -1.460  0.00  0.00    +0.088 A 
ATOM      8  C   LIG    1        0.637   0.164  -2.622  0.00  0.00    +0.027 A 
ATOM      9  C   LIG    1        1.138  -0.342  -3.805  0.00  0.00    +0.012 A 
ATOM     10  C   LIG    1        2.397  -0.939  -3.827  0.00  0.00    +0.002 A 
ATOM     11  C   LIG    1        3.145  -1.020  -2.654  0.00  0.00    +0.012 A 
ATOM     12  C   LIG    1        2.637  -0.507  -1.478  0.00  0.00    +0.027 A 
BRANCH   7  14
ATOM     13  C   LIG    1        1.290   2.454   0.085  0.00  0.00    +0.200 C 
ATOM     14  S   LIG    1        0.738   0.726   0.046  0.00  0.00    -0.006 S 
ATOM     15  O   LIG    1       -0.673   0.667  -0.109  0.00  0.00    -0.170 OA
ATOM     16  O   LIG    1        1.387  -0.018   1.068  0.00  0.00    -0.170 OA
ENDBRANCH   7  14
ENDBRANCH   1  10
BRANCH   5  17
ATOM     17  C   LIG    1        5.858  -3.366  -6.232  0.00  0.00    +0.270 C 
ATOM     18  N   LIG    1        6.484  -3.633  -5.069  0.00  0.00    -0.280 N 
ATOM     19  H   LIG    1        6.057  -3.411  -4.226  0.00  0.00    +0.155 HD
ATOM     20  O   LIG    1        6.348  -3.730  -7.283  0.00  0.00    -0.268 OA
BRANCH  18  21
ATOM     21  C   LIG    1        7.748  -4.230  -5.076  0.00  0.00    +0.034 A 
ATOM     22  C   LIG    1        8.111  -5.105  -4.060  0.00  0.00    +0.023 A 
ATOM     23  C   LIG    1        9.360  -5.693  -4.071  0.00  0.00    +0.002 A 
ATOM     24  C   LIG    1       10.250  -5.411  -5.091  0.00  0.00    +0.000 A 
ATOM     25  C   LIG    1        9.893  -4.540  -6.104  0.00  0.00    +0.002 A 
ATOM     26  C   LIG    1        8.643  -3.953  -6.102  0.00  0.00    +0.023 A 
ENDBRANCH  18  21
ENDBRANCH   5  17
BRANCH   4  27
ATOM     27  N   LIG    1        4.367  -2.954  -8.613  0.00  0.00    -0.341 N 
ATOM     28  H   LIG    1        5.321  -3.100  -8.714  0.00  0.00    +0.144 HD
ATOM     29  H   LIG    1        3.765  -3.164  -9.344  0.00  0.00    +0.144 HD
ENDBRANCH   4  27
TORSDOF 5
