REMARK  Name = ZINC36294378
REMARK                            x       y       z     vdW  Elec       q    Type
REMARK                         _______ _______ _______ _____ _____    ______ ____
ROOT
ATOM      1  C   LIG    1       -0.017   1.389   0.010  0.00  0.00    +0.009 A 
ATOM      2  C   LIG    1        1.171   2.087   0.002  0.00  0.00    +0.005 A 
ATOM      3  C   LIG    1        2.388   1.416  -0.011  0.00  0.00    -0.037 A 
ATOM      4  C   LIG    1        2.413   0.038  -0.014  0.00  0.00    -0.043 A 
ATOM      5  C   LIG    1        3.697  -0.750  -0.011  0.00  0.00    +0.035 C 
ATOM      6  C   LIG    1        4.868   0.129  -0.444  0.00  0.00    +0.006 C 
ATOM      7  C   LIG    1        4.848   1.410   0.399  0.00  0.00    +0.013 C 
ATOM      8  C   LIG    1        1.222  -0.673  -0.010  0.00  0.00    +0.012 A 
ATOM      9  C   LIG    1        3.644   2.248  -0.026  0.00  0.00    +0.049 C 
ATOM     10  C   LIG    1        0.002  -0.004   0.002  0.00  0.00    -0.017 A 
ENDROOT
BRANCH   9  11
ATOM     11  C   LIG    1        3.485   3.406   0.924  0.00  0.00    -0.037 A 
ATOM     12  C   LIG    1        3.256   3.190   2.275  0.00  0.00    +0.024 A 
ATOM     13  C   LIG    1        3.115   4.277   3.117  0.00  0.00    +0.111 A 
ATOM     14  N   LIG    1        3.194   5.507   2.649  0.00  0.00    -0.263 NA
ATOM     15  C   LIG    1        3.411   5.750   1.371  0.00  0.00    +0.111 A 
ATOM     16  C   LIG    1        3.568   4.713   0.471  0.00  0.00    +0.024 A 
ENDBRANCH   9  11
BRANCH  10  17
ATOM     17  C   LIG    1       -1.269  -0.769   0.006  0.00  0.00    -0.014 A 
ATOM     18  C   LIG    1       -1.246  -2.162   0.004  0.00  0.00    +0.012 A 
ATOM     19  C   LIG    1       -2.429  -2.873   0.009  0.00  0.00    +0.050 A 
ATOM     20  C   LIG    1       -3.643  -2.203   0.015  0.00  0.00    +0.158 A 
ATOM     21  C   LIG    1       -3.672  -0.811   0.017  0.00  0.00    +0.159 A 
ATOM     22  C   LIG    1       -2.489  -0.095   0.018  0.00  0.00    +0.057 A 
BRANCH  20  23
ATOM     23  O   LIG    1       -4.806  -2.907   0.019  0.00  0.00    -0.503 OA
ATOM     24  H   LIG    1       -5.139  -3.112   0.904  0.00  0.00    +0.292 HD
ENDBRANCH  20  23
BRANCH  21  25
ATOM     25  O   LIG    1       -4.864  -0.156   0.024  0.00  0.00    -0.503 OA
ATOM     26  H   LIG    1       -5.205   0.032   0.909  0.00  0.00    +0.292 HD
ENDBRANCH  21  25
ENDBRANCH  10  17
TORSDOF 4
