REMARK  Name = ZINC40379588
REMARK                            x       y       z     vdW  Elec       q    Type
REMARK                         _______ _______ _______ _____ _____    ______ ____
ROOT
ATOM      1  C   LIG    1       -3.316  -0.075  -3.681  0.00  0.00    +0.164 C 
ATOM      2  C   LIG    1       -4.553  -0.992  -3.578  0.00  0.00    +0.033 C 
ATOM      3  C   LIG    1       -5.728   0.019  -3.498  0.00  0.00    +0.021 C 
ATOM      4  C   LIG    1       -5.229   1.151  -4.430  0.00  0.00    +0.110 C 
ATOM      5  N   LIG    1       -3.773   1.226  -4.191  0.00  0.00    -0.274 N 
ATOM      6  C   LIG    1       -2.993   2.304  -4.402  0.00  0.00    +0.307 C 
ATOM      7  N   LIG    1       -3.534   3.445  -4.875  0.00  0.00    -0.269 N 
ATOM      8  H   LIG    1       -4.495   3.515  -4.988  0.00  0.00    +0.156 HD
ATOM      9  O   LIG    1       -1.802   2.249  -4.166  0.00  0.00    -0.252 OA
ENDROOT
BRANCH   7  10
ATOM     10  C   LIG    1       -2.709   4.528  -5.202  0.00  0.00    +0.035 A 
ATOM     11  C   LIG    1       -3.156   5.827  -5.002  0.00  0.00    +0.025 A 
ATOM     12  C   LIG    1       -2.340   6.894  -5.325  0.00  0.00    +0.022 A 
ATOM     13  C   LIG    1       -1.079   6.668  -5.848  0.00  0.00    +0.041 A 
ATOM     14 CL   LIG    1       -0.057   8.011  -6.254  0.00  0.00    -0.084 Cl
ATOM     15  C   LIG    1       -0.632   5.374  -6.049  0.00  0.00    +0.022 A 
ATOM     16  C   LIG    1       -1.441   4.304  -5.721  0.00  0.00    +0.025 A 
ENDBRANCH   7  10
BRANCH   1  18
ATOM     17  N   LIG    1       -1.648  -0.671  -1.954  0.00  0.00    -0.293 N 
ATOM     18  C   LIG    1       -2.692   0.098  -2.320  0.00  0.00    +0.237 C 
ATOM     19  O   LIG    1       -3.131   0.930  -1.554  0.00  0.00    -0.274 OA
BRANCH  17  20
ATOM     20  C   LIG    1       -1.187  -1.748  -2.834  0.00  0.00    +0.143 C 
BRANCH  20  27
ATOM     21  C   LIG    1       -2.949  -3.515  -3.025  0.00  0.00    +0.006 A 
ATOM     22  C   LIG    1       -3.517  -4.711  -2.627  0.00  0.00    +0.020 A 
ATOM     23  C   LIG    1       -2.941  -5.444  -1.606  0.00  0.00    +0.041 A 
ATOM     24 CL   LIG    1       -3.653  -6.947  -1.106  0.00  0.00    -0.084 Cl
ATOM     25  C   LIG    1       -1.796  -4.980  -0.982  0.00  0.00    +0.020 A 
ATOM     26  C   LIG    1       -1.229  -3.784  -1.380  0.00  0.00    +0.006 A 
ATOM     27  C   LIG    1       -1.806  -3.051  -2.401  0.00  0.00    -0.030 A 
ENDBRANCH  20  27
ENDBRANCH  17  20
BRANCH  17  28
ATOM     28  C   LIG    1       -0.974  -0.432  -0.675  0.00  0.00    +0.136 C 
BRANCH  28  29
ATOM     29  C   LIG    1        0.100   0.642  -0.858  0.00  0.00    +0.174 C 
BRANCH  29  30
ATOM     30  O   LIG    1       -0.521   1.885  -1.194  0.00  0.00    -0.393 OA
ATOM     31  H   LIG    1        0.102   2.613  -1.325  0.00  0.00    +0.209 HD
ENDBRANCH  29  30
ENDBRANCH  28  29
ENDBRANCH  17  28
ENDBRANCH   1  18
TORSDOF 7
