REMARK  Name = ZINC20233084
REMARK                            x       y       z     vdW  Elec       q    Type
REMARK                         _______ _______ _______ _____ _____    ______ ____
ROOT
ATOM      1  C   LIG    1       -1.167  -0.886   0.008  0.00  0.00    +0.253 C 
ATOM      2  C   LIG    1       -1.531  -1.287   1.455  0.00  0.00    +0.195 C 
ATOM      3  C   LIG    1       -3.076  -1.315   1.461  0.00  0.00    +0.178 C 
ATOM      4  C   LIG    1       -3.463  -0.928   0.016  0.00  0.00    +0.178 C 
ATOM      5  O   LIG    1       -2.329  -0.185  -0.485  0.00  0.00    -0.346 OA
ENDROOT
BRANCH   1  16
ATOM      6  C   LIG    1       -0.016   1.360   0.009  0.00  0.00    +0.203 A 
ATOM      7  N   LIG    1        1.202   1.818   0.000  0.00  0.00    -0.229 NA
ATOM      8  C   LIG    1        2.071   0.778  -0.013  0.00  0.00    +0.172 A 
ATOM      9  C   LIG    1        1.312  -0.398  -0.013  0.00  0.00    +0.173 A 
ATOM     10  N   LIG    1        1.931  -1.585  -0.025  0.00  0.00    -0.177 NA
ATOM     11  C   LIG    1        3.240  -1.668  -0.039  0.00  0.00    +0.298 A 
ATOM     12  N   LIG    1        4.032  -0.561  -0.041  0.00  0.00    -0.275 N 
ATOM     13  H   LIG    1        4.997  -0.659  -0.051  0.00  0.00    +0.173 HD
ATOM     14  C   LIG    1        3.482   0.673  -0.027  0.00  0.00    +0.282 A 
ATOM     15  O   LIG    1        4.183   1.670  -0.029  0.00  0.00    -0.265 OA
ATOM     16  N   LIG    1        0.002  -0.004   0.002  0.00  0.00    -0.285 N 
BRANCH  11  17
ATOM     17  O   LIG    1        3.819  -2.888  -0.051  0.00  0.00    -0.480 OA
ATOM     18  H   LIG    1        3.287  -3.659  -0.050  0.00  0.00    +0.295 HD
ENDBRANCH  11  17
ENDBRANCH   1  16
BRANCH   2  19
ATOM     19  O   LIG    1       -1.003  -2.579   1.765  0.00  0.00    -0.385 OA
ATOM     20  H   LIG    1       -1.202  -2.880   2.662  0.00  0.00    +0.210 HD
ENDBRANCH   2  19
BRANCH   3  21
ATOM     21  O   LIG    1       -3.552  -2.625   1.776  0.00  0.00    -0.386 OA
ATOM     22  H   LIG    1       -3.285  -2.941   2.650  0.00  0.00    +0.210 HD
ENDBRANCH   3  21
BRANCH   4  23
ATOM     23  C   LIG    1       -4.718  -0.053   0.018  0.00  0.00    +0.206 C 
BRANCH  23  24
ATOM     24  O   LIG    1       -5.126   0.197  -1.329  0.00  0.00    -0.284 OA
BRANCH  24  25
ATOM     25  P   LIG    1       -6.415   1.085  -1.704  0.00  0.00    +0.472 P 
ATOM     26  O   LIG    1       -7.677   0.508  -0.977  0.00  0.00    -0.228 OA
BRANCH  25  27
ATOM     27  O   LIG    1       -6.642   1.048  -3.254  0.00  0.00    -0.303 OA
ATOM     28  H   LIG    1       -6.788   0.131  -3.537  0.00  0.00    +0.222 HD
ENDBRANCH  25  27
BRANCH  25  29
ATOM     29  O   LIG    1       -6.180   2.565  -1.247  0.00  0.00    -0.303 OA
ATOM     30  H   LIG    1       -6.040   2.589  -0.287  0.00  0.00    +0.222 HD
ENDBRANCH  25  29
ENDBRANCH  24  25
ENDBRANCH  23  24
ENDBRANCH   4  23
TORSDOF 9
