REMARK  Name = ZINC33424013
REMARK                            x       y       z     vdW  Elec       q    Type
REMARK                         _______ _______ _______ _____ _____    ______ ____
ROOT
ATOM      1  C   LIG    1        2.375   3.351   0.186  0.00  0.00    +0.028 C 
ATOM      2  C   LIG    1        1.765   2.143   0.075  0.00  0.00    +0.078 C 
ATOM      3  C   LIG    1        2.350   0.815  -0.192  0.00  0.00    +0.263 C 
ATOM      4  N   LIG    1        1.508  -0.204  -0.247  0.00  0.00    -0.224 N 
ATOM      5  C   LIG    1        0.183  -0.032  -0.068  0.00  0.00    +0.125 C 
ATOM      6  S   LIG    1       -1.056  -1.214  -0.102  0.00  0.00    -0.027 S 
ATOM      7  O   LIG    1        3.547   0.664  -0.352  0.00  0.00    -0.269 OA
ATOM      8  S   LIG    1        0.033   1.724   0.213  0.00  0.00    -0.061 S 
ENDROOT
BRANCH   1  11
ATOM      9  C   LIG    1        1.341   6.868   0.984  0.00  0.00    +0.166 A 
ATOM     10  C   LIG    1        2.103   5.719   0.890  0.00  0.00    +0.057 A 
ATOM     11  C   LIG    1        1.568   4.574   0.288  0.00  0.00    -0.017 A 
ATOM     12  C   LIG    1        0.265   4.600  -0.221  0.00  0.00    +0.057 A 
ATOM     13  C   LIG    1       -0.493   5.751  -0.118  0.00  0.00    +0.166 A 
ATOM     14  C   LIG    1        0.043   6.888   0.481  0.00  0.00    +0.201 A 
BRANCH   9  16
ATOM     15  C   LIG    1        3.198   7.891   2.063  0.00  0.00    +0.277 C 
ATOM     16  O   LIG    1        1.860   7.981   1.569  0.00  0.00    -0.491 OA
ENDBRANCH   9  16
BRANCH  13  17
ATOM     17  O   LIG    1       -1.762   5.775  -0.608  0.00  0.00    -0.491 OA
ATOM     18  C   LIG    1       -2.248   4.574  -1.210  0.00  0.00    +0.277 C 
ENDBRANCH  13  17
BRANCH  14  19
ATOM     19  O   LIG    1       -0.703   8.020   0.576  0.00  0.00    -0.501 OA
ATOM     20  H   LIG    1       -1.729   8.038   0.178  0.00  0.00    +0.292 HD
ENDBRANCH  14  19
ENDBRANCH   1  11
BRANCH   4  21
ATOM     21  C   LIG    1        2.005  -1.490  -0.497  0.00  0.00    +0.043 A 
ATOM     22  C   LIG    1        1.993  -2.448   0.508  0.00  0.00    +0.026 A 
ATOM     23  C   LIG    1        2.479  -3.716   0.258  0.00  0.00    +0.034 A 
ATOM     24  C   LIG    1        2.986  -4.029  -0.990  0.00  0.00    +0.122 A 
ATOM     25  C   LIG    1        3.004  -3.076  -1.992  0.00  0.00    +0.034 A 
ATOM     26  C   LIG    1        2.515  -1.808  -1.749  0.00  0.00    +0.026 A 
BRANCH  24  27
ATOM     27  N   LIG    1        3.511  -5.388  -1.254  0.00  0.00    +0.006 N 
ATOM     28  O   LIG    1        3.958  -5.666  -2.353  0.00  0.00    -0.130 OA
BRANCH  27  29
ATOM     29  O   LIG    1        3.496  -6.229  -0.373  0.00  0.00    -0.396 OA
ATOM     30  H   LIG    1        3.152  -6.015   0.472  0.00  0.00    +0.329 HD
ENDBRANCH  27  29
ENDBRANCH  24  27
ENDBRANCH   4  21
TORSDOF 7
