REMARK  Name = ZINC27861796
REMARK                            x       y       z     vdW  Elec       q    Type
REMARK                         _______ _______ _______ _____ _____    ______ ____
ROOT
ATOM      1  C   LIG    1        1.166   2.857   2.049  0.00  0.00    +0.229 C 
ATOM      2  N   LIG    1        0.129   2.049   2.347  0.00  0.00    -0.287 N 
ATOM      3  O   LIG    1        2.056   3.025   2.855  0.00  0.00    -0.274 OA
ENDROOT
BRANCH   2   4
ATOM      4  C   LIG    1       -0.890   1.761   1.335  0.00  0.00    +0.077 C 
ATOM      5  C   LIG    1       -2.250   2.355   1.754  0.00  0.00    +0.022 C 
ATOM      6  C   LIG    1       -3.326   1.343   1.321  0.00  0.00    +0.002 C 
ATOM      7  C   LIG    1       -2.582   0.168   0.654  0.00  0.00    +0.002 C 
ATOM      8  C   LIG    1       -1.153   0.236   1.249  0.00  0.00    +0.022 C 
ENDBRANCH   2   4
BRANCH   1  10
ATOM      9  C   LIG    1        1.958   4.884   0.860  0.00  0.00    +0.028 C 
ATOM     10  C   LIG    1        1.218   3.553   0.713  0.00  0.00    +0.126 C 
BRANCH  10  11
ATOM     11  S   LIG    1        2.092   2.504  -0.481  0.00  0.00    -0.166 S 
ATOM     12  H   LIG    1        1.706   1.502  -0.719  0.00  0.00    +0.102 HD
ENDBRANCH  10  11
ENDBRANCH   1  10
BRANCH   2  13
ATOM     13  C   LIG    1        0.022   1.460   3.684  0.00  0.00    +0.228 C 
BRANCH  13  14
ATOM     14  C   LIG    1        0.736   0.133   3.707  0.00  0.00    +0.322 C 
ATOM     15  O   LIG    1        1.279  -0.278   2.709  0.00  0.00    -0.249 OA
BRANCH  14  16
ATOM     16  O   LIG    1        0.769  -0.592   4.836  0.00  0.00    -0.480 OA
ATOM     17  H   LIG    1        0.348  -0.274   5.610  0.00  0.00    +0.295 HD
ENDBRANCH  14  16
ENDBRANCH  13  14
ENDBRANCH   2  13
TORSDOF 6
