REMARK  Name = ZINC24773728
REMARK                            x       y       z     vdW  Elec       q    Type
REMARK                         _______ _______ _______ _____ _____    ______ ____
ROOT
ATOM      1  C   LIG    1        0.013   0.001  -0.233  0.00  0.00    -0.012 C 
ENDROOT
BRANCH   1   2
ATOM      2  C   LIG    1       -0.012   1.529  -0.147  0.00  0.00    +0.035 C 
BRANCH   2   3
ATOM      3  C   LIG    1        1.422   2.062  -0.142  0.00  0.00    +0.196 C 
BRANCH   3   4
ATOM      4  N   LIG    1        1.398   3.525  -0.059  0.00  0.00    -0.274 N 
ATOM      5  H   LIG    1        0.551   3.995  -0.018  0.00  0.00    +0.258 HD
BRANCH   4   6
ATOM      6  C   LIG    1        2.555   4.218  -0.040  0.00  0.00    +0.411 C 
ATOM      7  N   LIG    1        2.534   5.563   0.036  0.00  0.00    +0.094 NA
BRANCH   6   8
ATOM      8  N   LIG    1        3.734   3.565  -0.097  0.00  0.00    -0.287 N 
ATOM      9  H   LIG    1        4.562   4.064  -0.177  0.00  0.00    +0.255 HD
ATOM     10  H   LIG    1        3.754   2.596  -0.059  0.00  0.00    +0.255 HD
ENDBRANCH   6   8
BRANCH   7  11
ATOM     11  N   LIG    1        3.634   6.231  -0.041  0.00  0.00    +0.176 N 
ATOM     12  O   LIG    1        4.048   6.685  -1.206  0.00  0.00    -0.095 OA
BRANCH  11  13
ATOM     13  O   LIG    1        4.344   6.459   1.045  0.00  0.00    -0.370 OA
ATOM     14  H   LIG    1        4.049   6.136   1.873  0.00  0.00    +0.332 HD
ENDBRANCH  11  13
ENDBRANCH   7  11
ENDBRANCH   4   6
ENDBRANCH   3   4
ENDBRANCH   2   3
ENDBRANCH   1   2
BRANCH   1  15
ATOM     15  C   LIG    1       -1.421  -0.532  -0.238  0.00  0.00    -0.061 C 
BRANCH  15  16
ATOM     16  N   LIG    1       -2.062  -0.226   1.048  0.00  0.00    +0.381 N 
ATOM     17  H   LIG    1       -2.075   0.773   1.187  0.00  0.00    -0.090 HD
ATOM     18  H   LIG    1       -1.543  -0.663   1.795  0.00  0.00    -0.090 HD
ATOM     19  H   LIG    1       -3.007  -0.579   1.044  0.00  0.00    -0.090 HD
ENDBRANCH  15  16
BRANCH  15  20
ATOM     20  C   LIG    1       -1.400  -2.048  -0.450  0.00  0.00    +0.064 C 
BRANCH  20  21
ATOM     21  N   LIG    1       -2.766  -2.577  -0.336  0.00  0.00    -0.319 NA
ATOM     22  H   LIG    1       -3.177  -2.327   0.551  0.00  0.00    +0.122 HD
BRANCH  21  23
ATOM     23  C   LIG    1       -2.785  -4.032  -0.533  0.00  0.00    +0.061 C 
BRANCH  23  24
ATOM     24  C   LIG    1       -4.221  -4.545  -0.407  0.00  0.00    -0.071 C 
BRANCH  24  25
ATOM     25  N   LIG    1       -4.240  -6.001  -0.605  0.00  0.00    +0.379 N 
ATOM     26  H   LIG    1       -3.662  -6.443   0.094  0.00  0.00    -0.090 HD
ATOM     27  H   LIG    1       -3.884  -6.220  -1.524  0.00  0.00    -0.090 HD
ATOM     28  H   LIG    1       -5.187  -6.339  -0.522  0.00  0.00    -0.090 HD
ENDBRANCH  24  25
ENDBRANCH  23  24
ENDBRANCH  21  23
ENDBRANCH  20  21
ENDBRANCH  15  20
ENDBRANCH   1  15
TORSDOF 14
