REMARK  Name = ZINC35337462
REMARK                            x       y       z     vdW  Elec       q    Type
REMARK                         _______ _______ _______ _____ _____    ______ ____
ROOT
ATOM      1  C   LIG    1        0.061  -6.744   1.045  0.00  0.00    +0.123 A 
ATOM      2  C   LIG    1        1.163  -7.508   1.367  0.00  0.00    +0.043 A 
ATOM      3  C   LIG    1        1.182  -8.868   1.050  0.00  0.00    +0.039 A 
ATOM      4  C   LIG    1        0.084  -9.445   0.409  0.00  0.00    +0.014 A 
ATOM      5  C   LIG    1       -1.012  -8.670   0.093  0.00  0.00    +0.018 A 
ATOM      6  C   LIG    1       -1.027  -7.323   0.414  0.00  0.00    +0.044 A 
ATOM      7 BR   LIG    1       -2.537  -6.269  -0.016  0.00  0.00    -0.048 Br
ENDROOT
BRANCH   3   8
ATOM      8  C   LIG    1        2.360  -9.692   1.391  0.00  0.00    +0.248 C 
ATOM      9  N   LIG    1        2.375 -11.004   1.084  0.00  0.00    -0.281 N 
ATOM     10  H   LIG    1        1.589 -11.422   0.698  0.00  0.00    +0.155 HD
ATOM     11  O   LIG    1        3.314  -9.187   1.949  0.00  0.00    -0.270 OA
BRANCH   9  12
ATOM     12  C   LIG    1        3.518 -11.760   1.321  0.00  0.00    +0.048 A 
ATOM     13  C   LIG    1        4.313 -11.497   2.429  0.00  0.00    +0.024 A 
ATOM     14  C   LIG    1        5.446 -12.248   2.662  0.00  0.00    +0.002 A 
ATOM     15  C   LIG    1        5.803 -13.269   1.795  0.00  0.00    +0.001 A 
ATOM     16  C   LIG    1        5.028 -13.546   0.690  0.00  0.00    +0.017 A 
ATOM     17  C   LIG    1        3.873 -12.798   0.443  0.00  0.00    +0.080 A 
BRANCH  17  18
ATOM     18  C   LIG    1        3.037 -13.092  -0.732  0.00  0.00    +0.339 C 
ATOM     19  O   LIG    1        3.294 -14.057  -1.439  0.00  0.00    -0.245 OA
BRANCH  18  20
ATOM     20  O   LIG    1        2.086 -12.371  -1.002  0.00  0.00    -0.477 OA
ATOM     21  H   LIG    1        1.890 -11.632  -0.461  0.00  0.00    +0.295 HD
ENDBRANCH  18  20
ENDBRANCH  17  18
ENDBRANCH   9  12
ENDBRANCH   3   8
BRANCH   1  22
ATOM     22  S   LIG    1        0.034  -5.028   1.445  0.00  0.00    +0.073 S 
ATOM     23  O   LIG    1       -1.205  -4.781   2.095  0.00  0.00    -0.150 OA
ATOM     24  O   LIG    1        1.285  -4.732   2.051  0.00  0.00    -0.150 OA
BRANCH  22  25
ATOM     25  N   LIG    1       -0.008  -4.193   0.015  0.00  0.00    -0.216 N 
ATOM     26  H   LIG    1       -0.014  -4.681  -0.840  0.00  0.00    +0.174 HD
BRANCH  25  31
ATOM     27  C   LIG    1       -0.120   1.477   0.045  0.00  0.00    +0.044 C 
ATOM     28  C   LIG    1       -0.090  -0.030   0.037  0.00  0.00    -0.050 A 
ATOM     29  C   LIG    1       -0.098  -0.714  -1.165  0.00  0.00    +0.005 A 
ATOM     30  C   LIG    1       -0.070  -2.094  -1.176  0.00  0.00    +0.025 A 
ATOM     31  C   LIG    1       -0.035  -2.796   0.022  0.00  0.00    +0.048 A 
ATOM     32  C   LIG    1       -0.028  -2.106   1.228  0.00  0.00    +0.025 A 
ATOM     33  C   LIG    1       -0.049  -0.725   1.232  0.00  0.00    +0.005 A 
ENDBRANCH  25  31
ENDBRANCH  22  25
ENDBRANCH   1  22
TORSDOF 7
