REMARK  Name = ZINC13781097
REMARK                            x       y       z     vdW  Elec       q    Type
REMARK                         _______ _______ _______ _____ _____    ______ ____
ROOT
ATOM      1  C   LIG    1       -6.286   5.733   4.325  0.00  0.00    +0.118 C 
ENDROOT
BRANCH   1   2
ATOM      2  O   LIG    1       -6.167   6.933   3.558  0.00  0.00    -0.392 OA
ATOM      3  H   LIG    1       -5.495   7.545   3.888  0.00  0.00    +0.210 HD
ENDBRANCH   1   2
BRANCH   1   4
ATOM      4  C   LIG    1       -4.951   4.986   4.314  0.00  0.00    +0.031 C 
BRANCH   4   5
ATOM      5  C   LIG    1       -4.635   4.526   2.890  0.00  0.00    +0.002 C 
BRANCH   5   6
ATOM      6  C   LIG    1       -3.300   3.780   2.879  0.00  0.00    +0.000 C 
BRANCH   6   7
ATOM      7  C   LIG    1       -2.983   3.320   1.455  0.00  0.00    +0.000 C 
BRANCH   7   8
ATOM      8  C   LIG    1       -1.648   2.573   1.444  0.00  0.00    +0.005 C 
BRANCH   8   9
ATOM      9  C   LIG    1       -1.332   2.113   0.020  0.00  0.00    +0.036 C 
BRANCH   9  12
ATOM     10  C   LIG    1        1.208  -0.679  -0.013  0.00  0.00    +0.020 A 
ATOM     11  C   LIG    1        0.002  -0.004   0.002  0.00  0.00    +0.006 A 
ATOM     12  C   LIG    1       -0.017   1.378   0.010  0.00  0.00    -0.029 A 
ATOM     13  C   LIG    1        1.172   2.086   0.002  0.00  0.00    +0.046 A 
ATOM     14 CL   LIG    1        1.148   3.822   0.011  0.00  0.00    -0.083 Cl
ATOM     15  C   LIG    1        2.379   1.411  -0.013  0.00  0.00    +0.040 A 
ATOM     16  C   LIG    1        2.397   0.028  -0.021  0.00  0.00    +0.042 A 
ATOM     17 CL   LIG    1        3.912  -0.821  -0.039  0.00  0.00    -0.083 Cl
ENDBRANCH   9  12
ENDBRANCH   8   9
ENDBRANCH   7   8
ENDBRANCH   6   7
ENDBRANCH   5   6
ENDBRANCH   4   5
ENDBRANCH   1   4
BRANCH   1  18
ATOM     18  C   LIG    1       -6.663   6.084   5.766  0.00  0.00    +0.078 C 
BRANCH  18  19
ATOM     19  C   LIG    1       -8.055   6.719   5.788  0.00  0.00    +0.174 C 
BRANCH  19  20
ATOM     20  C   LIG    1       -9.061   5.746   5.229  0.00  0.00    +0.337 C 
ATOM     21  O   LIG    1       -9.706   6.039   4.251  0.00  0.00    -0.248 OA
BRANCH  20  22
ATOM     22  O   LIG    1       -9.239   4.552   5.817  0.00  0.00    -0.479 OA
ATOM     23  H   LIG    1       -8.738   4.324   6.576  0.00  0.00    +0.295 HD
ENDBRANCH  20  22
ENDBRANCH  19  20
BRANCH  19  24
ATOM     24  O   LIG    1       -8.050   7.907   4.995  0.00  0.00    -0.377 OA
ATOM     25  H   LIG    1       -7.424   8.579   5.297  0.00  0.00    +0.211 HD
ENDBRANCH  19  24
BRANCH  19  26
ATOM     26  C   LIG    1       -8.432   7.070   7.229  0.00  0.00    +0.166 C 
BRANCH  26  27
ATOM     27  C   LIG    1       -9.849   7.581   7.267  0.00  0.00    +0.308 C 
ATOM     28  O   LIG    1      -10.492   7.657   6.247  0.00  0.00    -0.251 OA
BRANCH  27  29
ATOM     29  O   LIG    1      -10.398   7.952   8.435  0.00  0.00    -0.481 OA
ATOM     30  H   LIG    1       -9.899   7.893   9.226  0.00  0.00    +0.295 HD
ENDBRANCH  27  29
ENDBRANCH  26  27
ENDBRANCH  19  26
ENDBRANCH  18  19
ENDBRANCH   1  18
TORSDOF 16
