REMARK  Name = ZINC53190892
REMARK                            x       y       z     vdW  Elec       q    Type
REMARK                         _______ _______ _______ _____ _____    ______ ____
ROOT
ATOM      1  C   LIG    1       -1.998  -2.407   0.925  0.00  0.00    +0.195 C 
ATOM      2  C   LIG    1       -1.959  -3.333  -0.275  0.00  0.00    +0.190 C 
ATOM      3  O   LIG    1       -2.417  -3.000  -1.342  0.00  0.00    -0.293 OA
ATOM      4  C   LIG    1       -1.323  -4.693  -0.078  0.00  0.00    +0.185 C 
ATOM      5  C   LIG    1       -1.908  -5.320   1.160  0.00  0.00    +0.140 C 
ATOM      6  C   LIG    1       -2.451  -4.582   2.139  0.00  0.00    +0.040 C 
ATOM      7  C   LIG    1       -2.542  -3.186   2.096  0.00  0.00    +0.180 C 
ATOM      8  O   LIG    1       -3.068  -2.592   3.017  0.00  0.00    -0.291 OA
ENDROOT
BRANCH   1   9
ATOM      9  C   LIG    1       -0.606  -1.922   1.238  0.00  0.00    +0.151 C 
ATOM     10  O   LIG    1        0.015  -2.415   2.150  0.00  0.00    -0.296 OA
BRANCH   9  11
ATOM     11  C   LIG    1        0.012  -0.822   0.414  0.00  0.00    +0.078 C 
BRANCH  11  13
ATOM     12  C   LIG    1        2.092   0.507   0.026  0.00  0.00    +0.007 C 
ATOM     13  C   LIG    1        1.418  -0.521   0.937  0.00  0.00    -0.010 C 
ATOM     14  C   LIG    1        1.324   0.041   2.357  0.00  0.00    +0.007 C 
ENDBRANCH  11  13
ENDBRANCH   9  11
ENDBRANCH   1   9
BRANCH   4  15
ATOM     15  O   LIG    1       -1.597  -5.519  -1.211  0.00  0.00    -0.373 OA
ATOM     16  H   LIG    1       -2.539  -5.667  -1.371  0.00  0.00    +0.211 HD
ENDBRANCH   4  15
BRANCH   5  17
ATOM     17  O   LIG    1       -1.885  -6.660   1.288  0.00  0.00    -0.507 OA
ATOM     18  H   LIG    1       -1.509  -7.189   0.612  0.00  0.00    +0.292 HD
ENDBRANCH   5  17
BRANCH   4  19
ATOM     19  C   LIG    1        0.189  -4.533   0.092  0.00  0.00    +0.077 C 
BRANCH  19  20
ATOM     20  C   LIG    1        0.823  -5.890   0.252  0.00  0.00    -0.024 C 
ATOM     21  C   LIG    1        1.689  -6.318  -0.633  0.00  0.00    -0.080 C 
ATOM     22  C   LIG    1        2.376  -7.645  -0.436  0.00  0.00    +0.038 C 
ATOM     23  C   LIG    1        1.999  -5.482  -1.849  0.00  0.00    +0.038 C 
ENDBRANCH  19  20
ENDBRANCH   4  19
BRANCH   6  24
ATOM     24  C   LIG    1       -2.991  -5.294   3.353  0.00  0.00    +0.069 C 
BRANCH  24  25
ATOM     25  C   LIG    1       -1.939  -5.320   4.431  0.00  0.00    -0.023 C 
ATOM     26  C   LIG    1       -2.162  -4.729   5.578  0.00  0.00    -0.079 C 
ATOM     27  C   LIG    1       -1.108  -4.753   6.655  0.00  0.00    +0.038 C 
ATOM     28  C   LIG    1       -3.472  -4.026   5.822  0.00  0.00    +0.038 C 
ENDBRANCH  24  25
ENDBRANCH   6  24
TORSDOF 9
