REMARK  Name = ZINC19549642
REMARK                            x       y       z     vdW  Elec       q    Type
REMARK                         _______ _______ _______ _____ _____    ______ ____
ROOT
ATOM      1  C   LIG    1        2.914   0.804  -1.441  0.00  0.00    +0.220 C 
ATOM      2  N   LIG    1        4.066   0.156  -1.701  0.00  0.00    -0.296 N 
ATOM      3  C   LIG    1        4.926  -0.328  -0.609  0.00  0.00    +0.136 C 
ATOM      4  C   LIG    1        5.256  -1.802  -0.870  0.00  0.00    +0.179 C 
ATOM      5  O   LIG    1        5.774  -1.942  -2.195  0.00  0.00    -0.372 OA
ATOM      6  C   LIG    1        4.852  -1.576  -3.225  0.00  0.00    +0.155 C 
ATOM      7  C   LIG    1        4.499  -0.095  -3.085  0.00  0.00    +0.141 C 
ATOM      8  O   LIG    1        2.218   1.195  -2.355  0.00  0.00    -0.275 OA
ENDROOT
BRANCH   1   9
ATOM      9  C   LIG    1        2.489   1.044  -0.015  0.00  0.00    +0.131 C 
BRANCH   9  12
ATOM     10  C   LIG    1       -1.223   1.752   0.017  0.00  0.00    +0.165 A 
ATOM     11  C   LIG    1       -0.013   1.076   0.008  0.00  0.00    +0.053 A 
ATOM     12  C   LIG    1        1.175   1.782   0.000  0.00  0.00    -0.031 A 
ATOM     13  C   LIG    1        1.162   3.164   0.007  0.00  0.00    +0.053 A 
ATOM     14  C   LIG    1       -0.044   3.848   0.022  0.00  0.00    +0.165 A 
ATOM     15  C   LIG    1       -1.241   3.141   0.029  0.00  0.00    +0.204 A 
BRANCH  10  17
ATOM     16  C   LIG    1       -2.298  -0.370   0.011  0.00  0.00    +0.277 C 
ATOM     17  O   LIG    1       -2.392   1.056   0.019  0.00  0.00    -0.491 OA
ENDBRANCH  10  17
BRANCH  14  18
ATOM     18  O   LIG    1       -0.056   5.208   0.029  0.00  0.00    -0.491 OA
ATOM     19  C   LIG    1        1.211   5.868   0.021  0.00  0.00    +0.277 C 
ENDBRANCH  14  18
BRANCH  15  20
ATOM     20  O   LIG    1       -2.427   3.809   0.043  0.00  0.00    -0.488 OA
ATOM     21  C   LIG    1       -3.004   4.133  -1.223  0.00  0.00    +0.277 C 
ENDBRANCH  15  20
ENDBRANCH   9  12
ENDBRANCH   1   9
BRANCH   6  22
ATOM     22  C   LIG    1        5.489  -1.826  -4.593  0.00  0.00    +0.155 C 
BRANCH  22  23
ATOM     23  N   LIG    1        5.719  -3.262  -4.771  0.00  0.00    -0.334 N 
ATOM     24  C   LIG    1        6.849  -3.952  -4.426  0.00  0.00    +0.107 A 
ATOM     25  C   LIG    1        6.636  -5.240  -4.758  0.00  0.00    +0.130 A 
ATOM     26  N   LIG    1        5.412  -5.331  -5.299  0.00  0.00    -0.244 NA
ATOM     27  C   LIG    1        4.856  -4.150  -5.309  0.00  0.00    +0.199 A 
ENDBRANCH  22  23
ENDBRANCH   6  22
TORSDOF 7
