REMARK  Name = ZINC60328033
REMARK                            x       y       z     vdW  Elec       q    Type
REMARK                         _______ _______ _______ _____ _____    ______ ____
ROOT
ATOM      1  C   LIG    1        0.040  -3.293  -1.543  0.00  0.00    +0.049 A 
ATOM      2  C   LIG    1       -0.820  -3.551  -2.614  0.00  0.00    +0.145 A 
ATOM      3  N   LIG    1       -0.506  -4.711  -3.139  0.00  0.00    -0.171 NA
ATOM      4  N   LIG    1        0.571  -5.258  -2.435  0.00  0.00    -0.199 N 
ATOM      5  C   LIG    1        1.269  -6.430  -2.575  0.00  0.00    +0.136 A 
ATOM      6  C   LIG    1        2.309  -6.687  -1.723  0.00  0.00    +0.079 A 
ATOM      7 BR   LIG    1        3.303  -8.287  -1.885  0.00  0.00    -0.045 Br
ATOM      8  C   LIG    1        2.623  -5.761  -0.727  0.00  0.00    +0.062 A 
ATOM      9  N   LIG    1        1.932  -4.647  -0.614  0.00  0.00    -0.231 NA
ATOM     10  C   LIG    1        0.918  -4.376  -1.444  0.00  0.00    +0.166 A 
ENDROOT
BRANCH   8  11
ATOM     11  C   LIG    1        3.760  -6.038   0.223  0.00  0.00    +0.022 C 
ATOM     12  C   LIG    1        5.080  -6.063  -0.553  0.00  0.00    +0.006 C 
ATOM     13  C   LIG    1        6.235  -6.267   0.431  0.00  0.00    -0.018 C 
ATOM     14  C   LIG    1        6.203  -5.157   1.484  0.00  0.00    -0.083 C 
ATOM     15  N   LIG    1        4.927  -5.202   2.209  0.00  0.00    +0.379 N 
ATOM     16  H   LIG    1        4.931  -4.505   2.937  0.00  0.00    -0.086 HD
ATOM     17  H   LIG    1        4.808  -6.116   2.621  0.00  0.00    -0.086 HD
ATOM     18  C   LIG    1        3.818  -4.937   1.284  0.00  0.00    -0.073 C 
ENDBRANCH   8  11
BRANCH   1  22
ATOM     19  C   LIG    1       -0.018   1.461   0.010  0.00  0.00    +0.172 C 
ATOM     20  N   LIG    1        0.002  -0.004   0.002  0.00  0.00    -0.274 N 
ATOM     21  C   LIG    1        0.008  -0.791  -1.097  0.00  0.00    +0.116 A 
ATOM     22  C   LIG    1        0.028  -2.088  -0.675  0.00  0.00    +0.025 A 
ATOM     23  C   LIG    1        0.034  -2.077   0.734  0.00  0.00    +0.143 A 
ATOM     24  N   LIG    1        0.025  -0.832   1.131  0.00  0.00    -0.179 NA
ENDBRANCH   1  22
BRANCH   5  25
ATOM     25  N   LIG    1        0.939  -7.327  -3.569  0.00  0.00    -0.342 N 
ATOM     26  H   LIG    1        1.438  -8.154  -3.661  0.00  0.00    +0.144 HD
ATOM     27  H   LIG    1        0.208  -7.131  -4.176  0.00  0.00    +0.144 HD
ENDBRANCH   5  25
TORSDOF 3
