REMARK  Name = ZINC14007939
REMARK                            x       y       z     vdW  Elec       q    Type
REMARK                         _______ _______ _______ _____ _____    ______ ____
ROOT
ATOM      1  C   LIG    1        1.161   1.776   0.001  0.00  0.00    +0.003 A 
ATOM      2  C   LIG    1       -0.013   1.076   0.008  0.00  0.00    +0.028 A 
ATOM      3  C   LIG    1       -1.227   1.757   0.017  0.00  0.00    +0.067 A 
ATOM      4  C   LIG    1       -1.230   3.165   0.030  0.00  0.00    +0.033 A 
ATOM      5  C   LIG    1       -0.016   3.861   0.022  0.00  0.00    +0.029 A 
ATOM      6 BR   LIG    1       -0.002   5.752   0.032  0.00  0.00    -0.050 Br
ATOM      7  C   LIG    1       -2.632   3.572   0.045  0.00  0.00    +0.143 A 
ATOM      8  N   LIG    1       -3.360   2.492   0.046  0.00  0.00    -0.181 NA
ATOM      9  N   LIG    1       -2.538   1.359   0.033  0.00  0.00    -0.277 N 
ATOM     10  H   LIG    1       -2.857   0.412   0.035  0.00  0.00    +0.189 HD
ATOM     11  C   LIG    1        1.160   3.165   0.007  0.00  0.00    +0.016 A 
ENDROOT
TORSDOF 0
