REMARK  Name = ZINC38315919
REMARK                            x       y       z     vdW  Elec       q    Type
REMARK                         _______ _______ _______ _____ _____    ______ ____
ROOT
ATOM      1  C   LIG    1       -0.016   1.357   0.009  0.00  0.00    +0.001 A 
ATOM      2  C   LIG    1        1.169   2.091   0.002  0.00  0.00    +0.001 A 
ATOM      3  C   LIG    1        2.378   1.468  -0.013  0.00  0.00    +0.008 A 
ATOM      4  C   LIG    1        2.438   0.063  -0.021  0.00  0.00    -0.018 A 
ATOM      5  C   LIG    1        3.668  -0.615  -0.036  0.00  0.00    +0.010 A 
ATOM      6  C   LIG    1        3.687  -1.976  -0.043  0.00  0.00    -0.064 A 
ATOM      7  C   LIG    1        2.502  -2.710  -0.036  0.00  0.00    +0.002 A 
ATOM      8  C   LIG    1        1.292  -2.087  -0.021  0.00  0.00    +0.009 A 
ATOM      9  C   LIG    1        1.233  -0.683  -0.013  0.00  0.00    -0.018 A 
ATOM     10  C   LIG    1        0.002  -0.004   0.002  0.00  0.00    +0.008 A 
ENDROOT
BRANCH   6  11
ATOM     11  C   LIG    1        5.008  -2.700  -0.060  0.00  0.00    -0.047 C 
BRANCH  11  12
ATOM     12  N   LIG    1        5.451  -2.943   1.319  0.00  0.00    +0.381 N 
ATOM     13  H   LIG    1        4.765  -3.506   1.799  0.00  0.00    -0.086 HD
ATOM     14  H   LIG    1        5.557  -2.061   1.798  0.00  0.00    -0.086 HD
BRANCH  12  15
ATOM     15  C   LIG    1        6.739  -3.649   1.303  0.00  0.00    -0.102 C 
BRANCH  15  16
ATOM     16  C   LIG    1        7.201  -3.901   2.740  0.00  0.00    -0.106 C 
BRANCH  16  17
ATOM     17  N   LIG    1        8.489  -4.607   2.723  0.00  0.00    +0.377 N 
ATOM     18  H   LIG    1        8.793  -4.774   3.671  0.00  0.00    -0.090 HD
ATOM     19  H   LIG    1        9.175  -4.044   2.243  0.00  0.00    -0.090 HD
ATOM     20  H   LIG    1        8.383  -5.489   2.244  0.00  0.00    -0.090 HD
ENDBRANCH  16  17
ENDBRANCH  15  16
ENDBRANCH  12  15
ENDBRANCH  11  12
ENDBRANCH   6  11
TORSDOF 5
