REMARK  Name = ZINC22058213
REMARK                            x       y       z     vdW  Elec       q    Type
REMARK                         _______ _______ _______ _____ _____    ______ ____
ROOT
ATOM      1  N   LIG    1        0.762  -1.976   1.234  0.00  0.00    -0.276 N 
ATOM      2  C   LIG    1       -0.266  -2.685   1.835  0.00  0.00    +0.169 A 
ATOM      3  C   LIG    1       -0.223  -4.076   1.813  0.00  0.00    +0.149 A 
ATOM      4  N   LIG    1       -1.354  -4.513   2.475  0.00  0.00    -0.332 N 
ATOM      5  C   LIG    1       -2.034  -3.401   2.869  0.00  0.00    +0.141 A 
ATOM      6  H   LIG    1       -1.614  -5.434   2.629  0.00  0.00    +0.168 HD
ATOM      7  C   LIG    1        0.862  -4.720   1.181  0.00  0.00    +0.282 A 
ATOM      8  N   LIG    1        1.832  -3.974   0.614  0.00  0.00    -0.259 N 
ATOM      9  O   LIG    1        0.921  -5.936   1.148  0.00  0.00    -0.265 OA
ATOM     10  N   LIG    1       -1.375  -2.327   2.482  0.00  0.00    -0.210 NA
ATOM     11  C   LIG    1        1.776  -2.631   0.637  0.00  0.00    +0.334 A 
ATOM     12  O   LIG    1        2.666  -1.991   0.111  0.00  0.00    -0.246 OA
ENDROOT
BRANCH   5  13
ATOM     13  C   LIG    1       -3.310  -3.399   3.615  0.00  0.00    +0.017 A 
ATOM     14  C   LIG    1       -3.913  -4.604   3.976  0.00  0.00    +0.013 A 
ATOM     15  C   LIG    1       -5.104  -4.595   4.672  0.00  0.00    +0.030 A 
ATOM     16  C   LIG    1       -5.701  -3.394   5.012  0.00  0.00    +0.117 A 
ATOM     17  C   LIG    1       -5.109  -2.195   4.657  0.00  0.00    +0.030 A 
ATOM     18  C   LIG    1       -3.915  -2.190   3.966  0.00  0.00    +0.013 A 
BRANCH  16  19
ATOM     19  S   LIG    1       -7.223  -3.391   5.900  0.00  0.00    +0.110 S 
ATOM     20  O   LIG    1       -7.937  -4.600   5.519  0.00  0.00    -0.142 OA
ATOM     21  O   LIG    1       -7.941  -2.189   5.504  0.00  0.00    -0.142 OA
BRANCH  19  22
ATOM     22  O   LIG    1       -6.887  -3.382   7.315  0.00  0.00    -0.250 OA
ATOM     23  H   LIG    1       -6.413  -2.563   7.529  0.00  0.00    +0.245 HD
ENDBRANCH  19  22
ENDBRANCH  16  19
ENDBRANCH   5  13
BRANCH   1  24
ATOM     24  C   LIG    1        0.742  -0.511   1.242  0.00  0.00    +0.128 C 
BRANCH  24  26
ATOM     25  C   LIG    1       -0.019   1.526   0.010  0.00  0.00    +0.005 C 
ATOM     26  C   LIG    1        0.002  -0.004   0.002  0.00  0.00    +0.018 C 
ENDBRANCH  24  26
ENDBRANCH   1  24
BRANCH   8  27
ATOM     27  C   LIG    1        2.961  -4.637  -0.043  0.00  0.00    +0.130 C 
BRANCH  27  28
ATOM     28  C   LIG    1        2.627  -4.871  -1.518  0.00  0.00    +0.018 C 
ATOM     29  C   LIG    1        3.806  -5.563  -2.204  0.00  0.00    +0.005 C 
ENDBRANCH  27  28
ENDBRANCH   8  27
TORSDOF 7
