REMARK  Name = ZINC21986186
REMARK                            x       y       z     vdW  Elec       q    Type
REMARK                         _______ _______ _______ _____ _____    ______ ____
ROOT
ATOM      1  C   LIG    1        5.468  -2.782   4.976  0.00  0.00    +0.075 C 
ATOM      2  C   LIG    1        4.426  -3.587   5.760  0.00  0.00    +0.030 C 
ATOM      3  C   LIG    1        4.387  -5.012   5.198  0.00  0.00    +0.097 C 
ATOM      4  C   LIG    1        5.771  -5.602   5.251  0.00  0.00    +0.219 C 
ATOM      5  N   LIG    1        6.863  -4.827   5.165  0.00  0.00    -0.256 N 
ATOM      6  H   LIG    1        7.737  -5.248   5.196  0.00  0.00    +0.157 HD
ATOM      7  O   LIG    1        5.902  -6.801   5.372  0.00  0.00    -0.275 OA
ATOM      8  C   LIG    1        6.794  -3.493   5.040  0.00  0.00    +0.230 C 
ATOM      9  O   LIG    1        7.818  -2.848   4.978  0.00  0.00    -0.274 OA
ENDROOT
BRANCH   1  14
ATOM     10  N   LIG    1        4.182  -0.951   1.332  0.00  0.00    +0.382 N 
ATOM     11  H   LIG    1        4.224  -0.075   1.832  0.00  0.00    -0.081 HD
ATOM     12  C   LIG    1        3.223  -1.843   1.994  0.00  0.00    -0.078 C 
ATOM     13  C   LIG    1        3.626  -2.038   3.457  0.00  0.00    -0.014 C 
ATOM     14  C   LIG    1        5.026  -2.657   3.516  0.00  0.00    +0.005 C 
ATOM     15  C   LIG    1        6.005  -1.755   2.759  0.00  0.00    -0.014 C 
ATOM     16  C   LIG    1        5.513  -1.570   1.322  0.00  0.00    -0.078 C 
BRANCH  10  17
ATOM     17  C   LIG    1        3.748  -0.705  -0.049  0.00  0.00    -0.043 C 
BRANCH  17  21
ATOM     18  C   LIG    1        0.036   1.410  -0.022  0.00  0.00    +0.000 A 
ATOM     19  C   LIG    1        1.230   2.108  -0.026  0.00  0.00    +0.000 A 
ATOM     20  C   LIG    1        2.431   1.424  -0.035  0.00  0.00    +0.002 A 
ATOM     21  C   LIG    1        2.439   0.041  -0.039  0.00  0.00    -0.064 A 
ATOM     22  C   LIG    1        1.246  -0.657  -0.034  0.00  0.00    +0.002 A 
ATOM     23  C   LIG    1        0.044   0.028  -0.026  0.00  0.00    +0.000 A 
ENDBRANCH  17  21
ENDBRANCH  10  17
ENDBRANCH   1  14
BRANCH   1  24
ATOM     24  C   LIG    1        5.604  -1.408   5.580  0.00  0.00    -0.032 A 
ATOM     25  C   LIG    1        5.228  -0.293   4.854  0.00  0.00    +0.004 A 
ATOM     26  C   LIG    1        5.353   0.967   5.408  0.00  0.00    +0.000 A 
ATOM     27  C   LIG    1        5.853   1.113   6.688  0.00  0.00    +0.000 A 
ATOM     28  C   LIG    1        6.229  -0.002   7.414  0.00  0.00    +0.000 A 
ATOM     29  C   LIG    1        6.100  -1.263   6.862  0.00  0.00    +0.004 A 
ENDBRANCH   1  24
TORSDOF 4
