REMARK  Name = ZINC17986749
REMARK                            x       y       z     vdW  Elec       q    Type
REMARK                         _______ _______ _______ _____ _____    ______ ____
ROOT
ATOM      1  C   LIG    1        0.108  -8.676  -1.965  0.00  0.00    +0.059 A 
ATOM      2  C   LIG    1        0.086  -9.220  -0.677  0.00  0.00    +0.017 A 
ATOM      3  C   LIG    1        0.105 -10.586  -0.509  0.00  0.00    +0.025 A 
ATOM      4  C   LIG    1        0.146 -11.425  -1.617  0.00  0.00    +0.044 A 
ATOM      5  C   LIG    1        0.169 -10.888  -2.900  0.00  0.00    +0.025 A 
ATOM      6  C   LIG    1        0.144  -9.523  -3.077  0.00  0.00    +0.017 A 
ENDROOT
BRANCH   4   7
ATOM      7  N   LIG    1        0.166 -12.812  -1.442  0.00  0.00    -0.210 N 
ATOM      8  C   LIG    1        0.086 -13.682  -2.466  0.00  0.00    +0.230 C 
ATOM      9  C   LIG    1        0.347 -15.061  -1.905  0.00  0.00    +0.088 C 
ATOM     10  C   LIG    1       -0.358 -16.154  -2.634  0.00  0.00    +0.014 C 
ATOM     11  C   LIG    1       -1.780 -16.434  -2.195  0.00  0.00    +0.004 C 
ATOM     12  C   LIG    1       -1.869 -16.492  -0.671  0.00  0.00    -0.013 C 
ATOM     13  C   LIG    1       -3.309 -16.792  -0.250  0.00  0.00    +0.007 C 
ATOM     14  C   LIG    1       -1.440 -15.136  -0.112  0.00  0.00    +0.016 C 
ATOM     15  C   LIG    1        0.024 -14.894  -0.419  0.00  0.00    +0.088 C 
ATOM     16  O   LIG    1       -0.152 -13.411  -3.624  0.00  0.00    -0.275 OA
ATOM     17  C   LIG    1        0.273 -13.396  -0.235  0.00  0.00    +0.230 C 
ATOM     18  O   LIG    1        0.521 -12.835   0.811  0.00  0.00    -0.275 OA
ENDBRANCH   4   7
BRANCH   1  19
ATOM     19  C   LIG    1        0.088  -7.213  -2.150  0.00  0.00    +0.340 C 
ATOM     20  O   LIG    1        0.102  -6.742  -3.270  0.00  0.00    -0.245 OA
BRANCH  19  21
ATOM     21  O   LIG    1        0.053  -6.398  -1.077  0.00  0.00    -0.453 OA
BRANCH  21  22
ATOM     22  C   LIG    1        0.035  -4.992  -1.331  0.00  0.00    +0.311 C 
BRANCH  22  23
ATOM     23  C   LIG    1       -0.003  -4.246  -0.022  0.00  0.00    +0.200 C 
ATOM     24  O   LIG    1       -0.014  -4.859   1.025  0.00  0.00    -0.288 OA
BRANCH  23  29
ATOM     25  C   LIG    1       -0.099   1.502   0.010  0.00  0.00    +0.044 C 
ATOM     26  C   LIG    1       -0.074  -0.005   0.002  0.00  0.00    -0.047 A 
ATOM     27  C   LIG    1       -0.038  -0.687  -1.203  0.00  0.00    +0.004 A 
ATOM     28  C   LIG    1       -0.015  -2.065  -1.219  0.00  0.00    +0.012 A 
ATOM     29  C   LIG    1       -0.027  -2.775  -0.014  0.00  0.00    +0.021 A 
ATOM     30  C   LIG    1       -0.063  -2.079   1.199  0.00  0.00    +0.015 A 
ATOM     31  C   LIG    1       -0.081  -0.700   1.198  0.00  0.00    -0.047 A 
ATOM     32  C   LIG    1       -0.113   0.052   2.504  0.00  0.00    +0.044 C 
ENDBRANCH  23  29
ENDBRANCH  22  23
ENDBRANCH  21  22
ENDBRANCH  19  21
ENDBRANCH   1  19
TORSDOF 6
