REMARK  Name = ZINC37868688
REMARK                            x       y       z     vdW  Elec       q    Type
REMARK                         _______ _______ _______ _____ _____    ______ ____
ROOT
ATOM      1  C   LIG    1       -0.018   1.461   0.010  0.00  0.00    +0.154 C 
ATOM      2  N   LIG    1        0.002  -0.004   0.002  0.00  0.00    -0.291 N 
ATOM      3  C   LIG    1        0.008  -0.824  -1.116  0.00  0.00    +0.154 A 
ATOM      4  C   LIG    1        0.029  -2.131  -0.642  0.00  0.00    +0.172 A 
ATOM      5  N   LIG    1        0.040  -3.173  -1.554  0.00  0.00    -0.279 N 
ATOM      6  C   LIG    1        0.062  -4.560  -1.082  0.00  0.00    +0.155 C 
ATOM      7  C   LIG    1        0.031  -2.913  -2.875  0.00  0.00    +0.333 A 
ATOM      8  N   LIG    1        0.010  -1.654  -3.345  0.00  0.00    -0.262 N 
ATOM      9  C   LIG    1        0.001  -1.424  -4.792  0.00  0.00    +0.157 C 
ATOM     10  O   LIG    1        0.040  -3.840  -3.662  0.00  0.00    -0.246 OA
ATOM     11  N   LIG    1        0.035  -2.071   0.692  0.00  0.00    -0.177 NA
ATOM     12  C   LIG    1       -0.001  -0.598  -2.505  0.00  0.00    +0.282 A 
ATOM     13  O   LIG    1       -0.019   0.538  -2.944  0.00  0.00    -0.265 OA
ATOM     14  C   LIG    1        0.024  -0.815   1.083  0.00  0.00    +0.300 A 
ENDROOT
BRANCH  14  15
ATOM     15  O   LIG    1        0.030  -0.400   2.370  0.00  0.00    -0.463 OA
BRANCH  15  16
ATOM     16  C   LIG    1        0.054  -1.412   3.378  0.00  0.00    +0.237 C 
BRANCH  16  17
ATOM     17  C   LIG    1        0.058  -0.755   4.760  0.00  0.00    +0.076 C 
BRANCH  17  18
ATOM     18  C   LIG    1        0.083  -1.823   5.824  0.00  0.00    -0.044 A 
ATOM     19  C   LIG    1       -1.102  -2.333   6.319  0.00  0.00    +0.004 A 
ATOM     20  C   LIG    1       -1.079  -3.312   7.294  0.00  0.00    +0.000 A 
ATOM     21  C   LIG    1        0.130  -3.781   7.774  0.00  0.00    +0.000 A 
ATOM     22  C   LIG    1        1.315  -3.271   7.279  0.00  0.00    +0.000 A 
ATOM     23  C   LIG    1        1.292  -2.295   6.300  0.00  0.00    +0.004 A 
ENDBRANCH  17  18
ENDBRANCH  16  17
ENDBRANCH  15  16
ENDBRANCH  14  15
TORSDOF 4
