REMARK  Name = ZINC40973094
REMARK                            x       y       z     vdW  Elec       q    Type
REMARK                         _______ _______ _______ _____ _____    ______ ____
ROOT
ATOM      1  C   LIG    1       -1.182  -2.096  -0.102  0.00  0.00    +0.060 A 
ATOM      2  C   LIG    1       -2.332  -2.810  -0.518  0.00  0.00    +0.026 A 
ATOM      3  C   LIG    1       -3.524  -2.143  -0.831  0.00  0.00    +0.035 A 
ATOM      4  C   LIG    1       -4.624  -2.871  -1.234  0.00  0.00    +0.030 A 
ATOM      5  C   LIG    1       -4.555  -4.264  -1.331  0.00  0.00    +0.045 A 
ATOM      6  C   LIG    1       -3.407  -4.932  -1.032  0.00  0.00    +0.069 A 
ATOM      7 CL   LIG    1       -3.350  -6.662  -1.162  0.00  0.00    -0.081 Cl
ATOM      8  C   LIG    1       -2.267  -4.220  -0.618  0.00  0.00    +0.091 A 
ATOM      9  N   LIG    1       -1.130  -4.866  -0.322  0.00  0.00    -0.252 NA
ATOM     10  C   LIG    1       -0.053  -4.232   0.065  0.00  0.00    +0.132 A 
ATOM     11  C   LIG    1       -0.025  -2.833   0.188  0.00  0.00    +0.091 A 
ENDROOT
BRANCH   1  12
ATOM     12  N   LIG    1       -1.199  -0.721   0.010  0.00  0.00    -0.313 N 
ATOM     13  H   LIG    1       -1.451  -0.305   0.850  0.00  0.00    +0.152 HD
BRANCH  12  21
ATOM     14  C   LIG    1       -0.749   1.452  -0.943  0.00  0.00    +0.026 A 
ATOM     15  C   LIG    1       -0.405   2.235  -2.027  0.00  0.00    +0.041 A 
ATOM     16  C   LIG    1       -0.163   1.649  -3.257  0.00  0.00    +0.142 A 
ATOM     17  F   LIG    1        0.173   2.417  -4.317  0.00  0.00    -0.204 F 
ATOM     18  C   LIG    1       -0.265   0.274  -3.404  0.00  0.00    +0.078 A 
ATOM     19 CL   LIG    1        0.039  -0.458  -4.949  0.00  0.00    -0.081 Cl
ATOM     20  C   LIG    1       -0.608  -0.513  -2.322  0.00  0.00    +0.046 A 
ATOM     21  C   LIG    1       -0.851   0.074  -1.087  0.00  0.00    +0.033 A 
ENDBRANCH  12  21
ENDBRANCH   1  12
BRANCH   4  22
ATOM     22  N   LIG    1       -5.816  -2.212  -1.547  0.00  0.00    -0.338 N 
ATOM     23  H   LIG    1       -5.867  -1.246  -1.480  0.00  0.00    +0.146 HD
BRANCH  22  24
ATOM     24  C   LIG    1       -6.987  -2.980  -1.976  0.00  0.00    +0.160 C 
BRANCH  24  25
ATOM     25  C   LIG    1       -8.132  -2.039  -2.250  0.00  0.00    +0.100 A 
ATOM     26  C   LIG    1       -8.487  -1.523  -3.450  0.00  0.00    +0.135 A 
ATOM     27  N   LIG    1       -9.563  -0.737  -3.219  0.00  0.00    -0.248 N 
ATOM     28  N   LIG    1       -9.833  -0.781  -1.961  0.00  0.00    -0.065 NA
ATOM     29  N   LIG    1       -9.001  -1.554  -1.356  0.00  0.00    -0.133 NA
BRANCH  27  30
ATOM     30  C   LIG    1      -10.296   0.034  -4.226  0.00  0.00    +0.105 C 
ATOM     31  C   LIG    1      -10.310  -0.738  -5.549  0.00  0.00    +0.008 C 
ATOM     32  C   LIG    1      -11.008   0.107  -6.618  0.00  0.00    -0.081 C 
ATOM     33  N   LIG    1      -10.285   1.372  -6.796  0.00  0.00    +0.379 N 
ATOM     34  H   LIG    1      -10.715   1.903  -7.538  0.00  0.00    -0.086 HD
ATOM     35  H   LIG    1       -9.324   1.179  -7.037  0.00  0.00    -0.086 HD
ATOM     36  C   LIG    1      -10.328   2.149  -5.551  0.00  0.00    -0.081 C 
ATOM     37  C   LIG    1       -9.605   1.383  -4.441  0.00  0.00    +0.008 C 
ENDBRANCH  27  30
ENDBRANCH  24  25
ENDBRANCH  22  24
ENDBRANCH   4  22
BRANCH  11  38
ATOM     38  C   LIG    1        1.171  -2.167   0.609  0.00  0.00    +0.103 C 
ATOM     39  N   LIG    1        2.119  -1.638   0.943  0.00  0.00    -0.191 NA
ENDBRANCH  11  38
TORSDOF 7
