REMARK  Name = ZINC00040238
REMARK                            x       y       z     vdW  Elec       q    Type
REMARK                         _______ _______ _______ _____ _____    ______ ____
ROOT
ATOM      1  C   LIG    1        3.085   3.795  -0.054  0.00  0.00    +0.000 A 
ATOM      2  C   LIG    1        3.468   2.466  -0.053  0.00  0.00    +0.002 A 
ATOM      3  C   LIG    1        2.518   1.466  -0.028  0.00  0.00    +0.023 A 
ATOM      4  C   LIG    1        1.162   1.790  -0.002  0.00  0.00    +0.037 A 
ATOM      5  C   LIG    1        0.791   3.129  -0.004  0.00  0.00    -0.013 A 
ATOM      6  C   LIG    1       -0.720   3.150   0.027  0.00  0.00    +0.135 C 
ATOM      7  C   LIG    1       -1.109   1.687   0.039  0.00  0.00    +0.226 C 
ATOM      8  O   LIG    1       -2.237   1.242   0.060  0.00  0.00    -0.275 OA
ATOM      9  N   LIG    1        0.030   0.975   0.026  0.00  0.00    -0.285 N 
ATOM     10  H   LIG    1        0.062   0.006   0.031  0.00  0.00    +0.155 HD
ATOM     11  C   LIG    1        1.741   4.124  -0.029  0.00  0.00    +0.006 A 
ENDROOT
BRANCH   6  12
ATOM     12  C   LIG    1       -1.221   3.856   1.288  0.00  0.00    +0.216 C 
BRANCH  12  13
ATOM     13  C   LIG    1       -2.719   4.003   1.221  0.00  0.00    +0.323 C 
ATOM     14  O   LIG    1       -3.334   3.510   0.305  0.00  0.00    -0.250 OA
BRANCH  13  15
ATOM     15  O   LIG    1       -3.371   4.682   2.179  0.00  0.00    -0.480 OA
ATOM     16  H   LIG    1       -2.894   5.064   2.889  0.00  0.00    +0.295 HD
ENDBRANCH  13  15
ENDBRANCH  12  13
BRANCH  12  17
ATOM     17  C   LIG    1       -0.859   3.060   2.473  0.00  0.00    +0.078 C 
ATOM     18  N   LIG    1       -0.579   2.446   3.386  0.00  0.00    -0.196 NA
ENDBRANCH  12  17
ENDBRANCH   6  12
TORSDOF 4
