REMARK  Name = ZINC48926254
REMARK                            x       y       z     vdW  Elec       q    Type
REMARK                         _______ _______ _______ _____ _____    ______ ____
ROOT
ATOM      1  N   LIG    1       -0.615  -5.389   3.066  0.00  0.00    -0.296 N 
ATOM      2  H   LIG    1       -1.581  -5.301   3.039  0.00  0.00    +0.151 HD
ATOM      3  C   LIG    1       -0.049  -6.405   3.746  0.00  0.00    +0.300 C 
ATOM      4  N   LIG    1       -0.825  -7.299   4.391  0.00  0.00    -0.297 N 
ATOM      5  H   LIG    1       -1.790  -7.212   4.364  0.00  0.00    +0.151 HD
ATOM      6  O   LIG    1        1.161  -6.515   3.779  0.00  0.00    -0.253 OA
ENDROOT
BRANCH   1  11
ATOM      7  C   LIG    1        0.731  -0.503   1.223  0.00  0.00    +0.215 C 
ATOM      8  N   LIG    1        0.874  -1.828   1.428  0.00  0.00    -0.301 N 
ATOM      9  C   LIG    1        0.330  -2.797   0.467  0.00  0.00    +0.109 C 
ATOM     10  C   LIG    1       -0.565  -3.787   1.218  0.00  0.00    +0.041 C 
ATOM     11  C   LIG    1        0.228  -4.417   2.365  0.00  0.00    +0.077 C 
ATOM     12  C   LIG    1        0.668  -3.325   3.343  0.00  0.00    +0.041 C 
ATOM     13  C   LIG    1        1.582  -2.330   2.613  0.00  0.00    +0.109 C 
ATOM     14  O   LIG    1        1.189   0.287   2.021  0.00  0.00    -0.276 OA
BRANCH   7  16
ATOM     15  C   LIG    1       -0.019   1.526   0.010  0.00  0.00    +0.013 C 
ATOM     16  C   LIG    1        0.002  -0.004   0.002  0.00  0.00    +0.092 C 
ENDBRANCH   7  16
ENDBRANCH   1  11
BRANCH   4  17
ATOM     17  C   LIG    1       -0.210  -8.404   5.130  0.00  0.00    +0.074 C 
ATOM     18  C   LIG    1        0.076  -9.562   4.173  0.00  0.00    +0.022 C 
ATOM     19  C   LIG    1        0.719 -10.716   4.946  0.00  0.00    +0.002 C 
ATOM     20  C   LIG    1       -0.235 -11.187   6.045  0.00  0.00    +0.000 C 
ATOM     21  C   LIG    1       -0.521 -10.029   7.003  0.00  0.00    +0.002 C 
ATOM     22  C   LIG    1       -1.163  -8.875   6.230  0.00  0.00    +0.022 C 
ENDBRANCH   4  17
TORSDOF 3
