REMARK  Name = ZINC22454243
REMARK                            x       y       z     vdW  Elec       q    Type
REMARK                         _______ _______ _______ _____ _____    ______ ____
ROOT
ATOM      1  C   LIG    1        2.510  -1.794   5.580  0.00  0.00    +0.117 C 
ENDROOT
BRANCH   1   2
ATOM      2  N   LIG    1        1.967  -1.754   6.945  0.00  0.00    -0.292 NA
ATOM      3  C   LIG    1        2.849  -2.460   7.884  0.00  0.00    +0.070 C 
ATOM      4  C   LIG    1        2.220  -2.446   9.279  0.00  0.00    -0.057 C 
ATOM      5  C   LIG    1        3.147  -3.163  10.263  0.00  0.00    -0.012 C 
ATOM      6  N   LIG    1        2.024  -1.057   9.714  0.00  0.00    +0.385 N 
ATOM      7  H   LIG    1        2.914  -0.582   9.731  0.00  0.00    -0.081 HD
ATOM      8  C   LIG    1        1.121  -0.372   8.780  0.00  0.00    -0.059 C 
ATOM      9  C   LIG    1        1.741  -0.369   7.381  0.00  0.00    +0.038 C 
ATOM     10  C   LIG    1        0.791   0.326   6.404  0.00  0.00    +0.022 C 
BRANCH   6  11
ATOM     11  C   LIG    1        1.437  -1.044  11.061  0.00  0.00    -0.051 C 
BRANCH  11  12
ATOM     12  C   LIG    1        1.349   0.376  11.557  0.00  0.00    -0.053 C 
ATOM     13  C   LIG    1        0.200   0.859  11.959  0.00  0.00    +0.002 C 
ENDBRANCH  11  12
ENDBRANCH   6  11
ENDBRANCH   1   2
BRANCH   1  17
ATOM     14  C   LIG    1       -0.624  -1.021   2.775  0.00  0.00    +0.037 A 
ATOM     15  C   LIG    1        0.644  -0.471   2.579  0.00  0.00    +0.013 A 
ATOM     16  C   LIG    1        1.650  -0.724   3.488  0.00  0.00    +0.006 A 
ATOM     17  C   LIG    1        1.405  -1.522   4.592  0.00  0.00    -0.026 A 
ATOM     18  C   LIG    1        0.151  -2.070   4.792  0.00  0.00    +0.006 A 
ATOM     19  C   LIG    1       -0.866  -1.820   3.894  0.00  0.00    +0.013 A 
BRANCH  14  21
ATOM     20  N   LIG    1       -1.469  -0.858   0.483  0.00  0.00    -0.298 N 
ATOM     21  C   LIG    1       -1.708  -0.754   1.806  0.00  0.00    +0.247 C 
ATOM     22  O   LIG    1       -2.813  -0.440   2.201  0.00  0.00    -0.270 OA
BRANCH  20  24
ATOM     23  C   LIG    1       -3.272  -1.812  -0.866  0.00  0.00    +0.024 C 
ATOM     24  C   LIG    1       -2.525  -0.534  -0.479  0.00  0.00    +0.104 C 
ENDBRANCH  20  24
BRANCH  20  25
ATOM     25  C   LIG    1       -0.154  -1.295   0.008  0.00  0.00    +0.104 C 
ATOM     26  C   LIG    1        0.667  -0.075  -0.415  0.00  0.00    +0.024 C 
ENDBRANCH  20  25
ENDBRANCH  14  21
ENDBRANCH   1  17
BRANCH   1  27
ATOM     27  C   LIG    1        3.098  -3.156   5.314  0.00  0.00    -0.022 A 
ATOM     28  C   LIG    1        2.363  -4.293   5.596  0.00  0.00    +0.006 A 
ATOM     29  C   LIG    1        2.900  -5.544   5.353  0.00  0.00    +0.004 A 
ATOM     30  C   LIG    1        4.172  -5.660   4.827  0.00  0.00    +0.045 A 
ATOM     31  C   LIG    1        4.910  -4.521   4.543  0.00  0.00    +0.117 A 
ATOM     32  C   LIG    1        4.367  -3.267   4.782  0.00  0.00    +0.051 A 
BRANCH  31  33
ATOM     33  O   LIG    1        6.162  -4.634   4.025  0.00  0.00    -0.507 OA
ATOM     34  H   LIG    1        6.188  -4.652   3.058  0.00  0.00    +0.292 HD
ENDBRANCH  31  33
ENDBRANCH   1  27
TORSDOF 9
