REMARK  Name = ZINC45261493
REMARK                            x       y       z     vdW  Elec       q    Type
REMARK                         _______ _______ _______ _____ _____    ______ ____
ROOT
ATOM      1  C   LIG    1        0.052  -5.101  -3.606  0.00  0.00    +0.092 C 
ENDROOT
BRANCH   1   9
ATOM      2  C   LIG    1       -0.018   1.503   0.010  0.00  0.00    +0.044 C 
ATOM      3  C   LIG    1        0.002  -0.004   0.002  0.00  0.00    -0.047 A 
ATOM      4  C   LIG    1        0.006  -0.684  -1.197  0.00  0.00    +0.019 A 
ATOM      5  C   LIG    1        0.025  -2.077  -1.197  0.00  0.00    +0.065 A 
ATOM      6  C   LIG    1        0.040  -2.783   0.015  0.00  0.00    +0.143 A 
ATOM      7  O   LIG    1        0.057  -4.133   0.004  0.00  0.00    -0.425 OA
ATOM      8  C   LIG    1        0.061  -4.839  -1.134  0.00  0.00    +0.292 A 
ATOM      9  C   LIG    1        0.047  -4.253  -2.360  0.00  0.00    +0.084 A 
ATOM     10  C   LIG    1        0.036  -2.080   1.213  0.00  0.00    +0.050 A 
ATOM     11  C   LIG    1        0.029  -2.845  -2.459  0.00  0.00    +0.200 A 
ATOM     12  O   LIG    1        0.015  -2.286  -3.543  0.00  0.00    -0.287 OA
ATOM     13  C   LIG    1        0.023  -0.701   1.201  0.00  0.00    -0.044 A 
ATOM     14  C   LIG    1        0.025   0.056   2.504  0.00  0.00    +0.044 C 
BRANCH   8  15
ATOM     15  O   LIG    1        0.079  -6.186  -1.060  0.00  0.00    -0.480 OA
ATOM     16  H   LIG    1        0.088  -6.531  -0.157  0.00  0.00    +0.295 HD
ENDBRANCH   8  15
ENDBRANCH   1   9
BRANCH   1  17
ATOM     17  C   LIG    1       -1.363  -5.300  -4.084  0.00  0.00    +0.084 A 
ATOM     18  C   LIG    1       -2.157  -6.333  -3.542  0.00  0.00    +0.200 A 
ATOM     19  C   LIG    1       -3.535  -6.470  -4.056  0.00  0.00    +0.065 A 
ATOM     20  C   LIG    1       -4.391  -7.461  -3.580  0.00  0.00    +0.019 A 
ATOM     21  C   LIG    1       -5.670  -7.555  -4.086  0.00  0.00    -0.047 A 
ATOM     22  C   LIG    1       -6.601  -8.624  -3.576  0.00  0.00    +0.044 C 
ATOM     23  C   LIG    1       -6.102  -6.670  -5.063  0.00  0.00    -0.044 A 
ATOM     24  C   LIG    1       -7.503  -6.786  -5.606  0.00  0.00    +0.044 C 
ATOM     25  C   LIG    1       -5.263  -5.686  -5.542  0.00  0.00    +0.050 A 
ATOM     26  C   LIG    1       -3.971  -5.574  -5.044  0.00  0.00    +0.143 A 
ATOM     27  O   LIG    1       -3.134  -4.618  -5.497  0.00  0.00    -0.425 OA
ATOM     28  O   LIG    1       -1.722  -7.083  -2.683  0.00  0.00    -0.287 OA
ATOM     29  C   LIG    1       -1.885  -4.482  -5.035  0.00  0.00    +0.292 A 
BRANCH  29  30
ATOM     30  O   LIG    1       -1.112  -3.496  -5.536  0.00  0.00    -0.480 OA
ATOM     31  H   LIG    1       -1.550  -2.955  -6.208  0.00  0.00    +0.295 HD
ENDBRANCH  29  30
ENDBRANCH   1  17
TORSDOF 4
