REMARK  Name = ZINC21658941
REMARK                            x       y       z     vdW  Elec       q    Type
REMARK                         _______ _______ _______ _____ _____    ______ ____
ROOT
ATOM      1  C   LIG    1        3.724  -1.183   0.372  0.00  0.00    +0.154 C 
ATOM      2  N   LIG    1        2.521  -0.354   0.476  0.00  0.00    -0.294 N 
ATOM      3  C   LIG    1        2.550   1.016   0.177  0.00  0.00    +0.082 A 
ATOM      4  C   LIG    1        1.298   1.803   0.306  0.00  0.00    +0.089 A 
ATOM      5  C   LIG    1        0.069   1.129   0.737  0.00  0.00    +0.266 A 
ATOM      6  N   LIG    1        0.192  -0.200   0.988  0.00  0.00    -0.263 N 
ATOM      7  C   LIG    1       -1.001  -0.934   1.420  0.00  0.00    +0.157 C 
ATOM      8  O   LIG    1       -0.988   1.718   0.856  0.00  0.00    -0.267 OA
ATOM      9  C   LIG    1        1.611   3.094  -0.041  0.00  0.00    +0.069 A 
ATOM     10  N   LIG    1        2.934   3.127  -0.351  0.00  0.00    -0.306 N 
ATOM     11  C   LIG    1        3.711   4.221  -0.757  0.00  0.00    +0.068 A 
ATOM     12  C   LIG    1        3.135   5.423  -1.121  0.00  0.00    +0.028 A 
ATOM     13  C   LIG    1        3.938   6.471  -1.536  0.00  0.00    +0.002 A 
ATOM     14  C   LIG    1        5.311   6.317  -1.587  0.00  0.00    +0.002 A 
ATOM     15  C   LIG    1        5.895   5.119  -1.217  0.00  0.00    +0.025 A 
ATOM     16  C   LIG    1        5.101   4.065  -0.792  0.00  0.00    +0.052 A 
ATOM     17  N   LIG    1        5.679   2.854  -0.396  0.00  0.00    -0.330 N 
ATOM     18  H   LIG    1        6.688   2.845   0.041  0.00  0.00    +0.147 HD
ATOM     19  C   LIG    1        4.939   1.593  -0.564  0.00  0.00    +0.150 C 
ATOM     20  C   LIG    1        3.487   1.859  -0.233  0.00  0.00    +0.073 A 
ATOM     21  C   LIG    1        1.337  -0.878   0.863  0.00  0.00    +0.332 A 
ATOM     22  O   LIG    1        1.311  -2.066   1.120  0.00  0.00    -0.246 OA
ENDROOT
BRANCH   9  23
ATOM     23  C   LIG    1        0.679   4.238  -0.072  0.00  0.00    -0.000 A 
ATOM     24  C   LIG    1       -0.465   4.190  -0.872  0.00  0.00    +0.010 A 
ATOM     25  C   LIG    1       -1.334   5.261  -0.893  0.00  0.00    +0.001 A 
ATOM     26  C   LIG    1       -1.069   6.386  -0.132  0.00  0.00    +0.000 A 
ATOM     27  C   LIG    1        0.066   6.443   0.659  0.00  0.00    +0.001 A 
ATOM     28  C   LIG    1        0.941   5.377   0.693  0.00  0.00    +0.010 A 
ENDBRANCH   9  23
BRANCH  19  29
ATOM     29  C   LIG    1        5.059   1.118  -1.989  0.00  0.00    -0.021 A 
ATOM     30  C   LIG    1        4.779   1.982  -3.032  0.00  0.00    +0.006 A 
ATOM     31  C   LIG    1        4.893   1.548  -4.339  0.00  0.00    +0.000 A 
ATOM     32  C   LIG    1        5.278   0.247  -4.604  0.00  0.00    +0.000 A 
ATOM     33  C   LIG    1        5.552  -0.619  -3.562  0.00  0.00    +0.000 A 
ATOM     34  C   LIG    1        5.442  -0.183  -2.254  0.00  0.00    +0.006 A 
ENDBRANCH  19  29
TORSDOF 2
