REMARK  Name = ZINC21658956
REMARK                            x       y       z     vdW  Elec       q    Type
REMARK                         _______ _______ _______ _____ _____    ______ ____
ROOT
ATOM      1  C   LIG    1        0.488  10.328   0.931  0.00  0.00    +0.154 C 
ATOM      2  N   LIG    1        0.985   8.979   1.212  0.00  0.00    -0.294 N 
ATOM      3  C   LIG    1        0.392   7.847   0.633  0.00  0.00    +0.082 A 
ATOM      4  C   LIG    1        0.942   6.506   0.959  0.00  0.00    +0.089 A 
ATOM      5  C   LIG    1        2.086   6.404   1.869  0.00  0.00    +0.266 A 
ATOM      6  N   LIG    1        2.554   7.583   2.352  0.00  0.00    -0.263 N 
ATOM      7  C   LIG    1        3.696   7.549   3.270  0.00  0.00    +0.157 C 
ATOM      8  O   LIG    1        2.582   5.335   2.171  0.00  0.00    -0.267 OA
ATOM      9  C   LIG    1        0.183   5.595   0.266  0.00  0.00    +0.069 A 
ATOM     10  N   LIG    1       -0.764   6.287  -0.421  0.00  0.00    -0.306 N 
ATOM     11  C   LIG    1       -1.773   5.793  -1.260  0.00  0.00    +0.068 A 
ATOM     12  C   LIG    1       -1.785   4.477  -1.681  0.00  0.00    +0.028 A 
ATOM     13  C   LIG    1       -2.792   4.033  -2.521  0.00  0.00    +0.002 A 
ATOM     14  C   LIG    1       -3.782   4.904  -2.938  0.00  0.00    +0.002 A 
ATOM     15  C   LIG    1       -3.779   6.221  -2.516  0.00  0.00    +0.025 A 
ATOM     16  C   LIG    1       -2.780   6.673  -1.669  0.00  0.00    +0.052 A 
ATOM     17  N   LIG    1       -2.780   7.996  -1.214  0.00  0.00    -0.330 N 
ATOM     18  H   LIG    1       -3.732   8.537  -1.108  0.00  0.00    +0.147 HD
ATOM     19  C   LIG    1       -1.516   8.662  -0.878  0.00  0.00    +0.150 C 
ATOM     20  C   LIG    1       -0.619   7.650  -0.201  0.00  0.00    +0.073 A 
ATOM     21  C   LIG    1        2.034   8.774   2.039  0.00  0.00    +0.332 A 
ATOM     22  O   LIG    1        2.546   9.755   2.542  0.00  0.00    -0.246 OA
ENDROOT
BRANCH   9  23
ATOM     23  C   LIG    1        0.367   4.131   0.264  0.00  0.00    -0.000 A 
ATOM     24  C   LIG    1       -0.678   3.292   0.657  0.00  0.00    +0.010 A 
ATOM     25  C   LIG    1       -0.499   1.924   0.652  0.00  0.00    +0.001 A 
ATOM     26  C   LIG    1        0.713   1.383   0.260  0.00  0.00    +0.000 A 
ATOM     27  C   LIG    1        1.754   2.208  -0.125  0.00  0.00    +0.001 A 
ATOM     28  C   LIG    1        1.588   3.577  -0.131  0.00  0.00    +0.010 A 
ENDBRANCH   9  23
BRANCH  19  29
ATOM     29  C   LIG    1       -0.863   9.156  -2.143  0.00  0.00    -0.018 A 
ATOM     30  C   LIG    1       -0.368  10.446  -2.207  0.00  0.00    +0.006 A 
ATOM     31  C   LIG    1        0.233  10.902  -3.366  0.00  0.00    +0.004 A 
ATOM     32  C   LIG    1        0.339  10.070  -4.464  0.00  0.00    +0.045 A 
ATOM     33  C   LIG    1       -0.158   8.776  -4.402  0.00  0.00    +0.120 A 
ATOM     34  C   LIG    1       -0.755   8.319  -3.236  0.00  0.00    +0.051 A 
BRANCH  33  35
ATOM     35  O   LIG    1       -0.054   7.955  -5.481  0.00  0.00    -0.495 OA
ATOM     36  C   LIG    1        0.578   8.491  -6.645  0.00  0.00    +0.277 C 
ENDBRANCH  33  35
ENDBRANCH  19  29
TORSDOF 3
