REMARK  Name = ZINC35212821
REMARK                            x       y       z     vdW  Elec       q    Type
REMARK                         _______ _______ _______ _____ _____    ______ ____
ROOT
ATOM      1  C   LIG    1       -0.017   1.410   0.010  0.00  0.00    +0.049 A 
ATOM      2  C   LIG    1        1.166   2.127   0.002  0.00  0.00    +0.056 A 
ATOM      3  C   LIG    1        2.410   1.478  -0.013  0.00  0.00    +0.052 A 
ATOM      4  C   LIG    1        2.455   0.112  -0.021  0.00  0.00    +0.139 A 
ATOM      5  C   LIG    1        1.284  -0.613  -0.013  0.00  0.00    +0.071 A 
ATOM      6  S   LIG    1        0.877  -2.343  -0.019  0.00  0.00    -0.059 S 
ATOM      7  C   LIG    1       -0.900  -2.152  -0.002  0.00  0.00    +0.180 A 
ATOM      8  N   LIG    1       -1.040  -0.844   0.007  0.00  0.00    -0.173 N 
ATOM      9  C   LIG    1        0.002  -0.004   0.002  0.00  0.00    +0.099 A 
ENDROOT
BRANCH   7  10
ATOM     10  C   LIG    1       -1.942  -3.194   0.001  0.00  0.00    +0.268 C 
ATOM     11  N   LIG    1       -1.594  -4.495  -0.010  0.00  0.00    -0.324 N 
ATOM     12  H   LIG    1       -2.280  -5.181  -0.008  0.00  0.00    +0.145 HD
ATOM     13  H   LIG    1       -0.657  -4.747  -0.020  0.00  0.00    +0.145 HD
ATOM     14  O   LIG    1       -3.117  -2.879   0.014  0.00  0.00    -0.268 OA
ENDBRANCH   7  10
BRANCH   2  15
ATOM     15  C   LIG    1        1.121   3.558   0.010  0.00  0.00    +0.099 C 
ATOM     16  N   LIG    1        1.085   4.694   0.017  0.00  0.00    -0.191 NA
ENDBRANCH   2  15
BRANCH   4  17
ATOM     17  N   LIG    1        3.760  -0.587  -0.038  0.00  0.00    +0.007 N 
ATOM     18  O   LIG    1        4.787   0.050  -0.045  0.00  0.00    -0.130 OA
BRANCH  17  19
ATOM     19  O   LIG    1        3.798  -1.796  -0.045  0.00  0.00    -0.396 OA
ATOM     20  H   LIG    1        3.002  -2.290  -0.040  0.00  0.00    +0.329 HD
ENDBRANCH  17  19
ENDBRANCH   4  17
BRANCH   8  21
ATOM     21  O   LIG    1       -2.348  -0.302   0.022  0.00  0.00    -0.425 OA
ATOM     22  H   LIG    1       -2.470   0.626   0.029  0.00  0.00    +0.326 HD
ENDBRANCH   8  21
TORSDOF 5
