REMARK  Name = ZINC00071704
REMARK                            x       y       z     vdW  Elec       q    Type
REMARK                         _______ _______ _______ _____ _____    ______ ____
ROOT
ATOM      1  C   LIG    1        1.173   1.671  -0.000  0.00  0.00    +0.130 A 
ATOM      2  C   LIG    1        2.421   0.998  -0.016  0.00  0.00    +0.040 A 
ATOM      3  C   LIG    1        2.510  -0.398  -0.025  0.00  0.00    +0.013 A 
ATOM      4  C   LIG    1        3.737  -0.994  -0.040  0.00  0.00    +0.001 A 
ATOM      5  C   LIG    1        4.902  -0.232  -0.047  0.00  0.00    +0.002 A 
ATOM      6  C   LIG    1        4.849   1.131  -0.039  0.00  0.00    +0.028 A 
ATOM      7  C   LIG    1        3.605   1.776  -0.023  0.00  0.00    +0.077 A 
ATOM      8  N   LIG    1        3.499   3.111  -0.015  0.00  0.00    -0.227 NA
ATOM      9  C   LIG    1        2.312   3.688  -0.000  0.00  0.00    +0.162 A 
ATOM     10  N   LIG    1        1.175   2.996   0.001  0.00  0.00    -0.212 NA
ENDROOT
BRANCH   9  11
ATOM     11  C   LIG    1        2.242   5.170   0.008  0.00  0.00    +0.019 A 
ATOM     12  C   LIG    1        1.005   5.811   0.017  0.00  0.00    +0.011 A 
ATOM     13  C   LIG    1        0.946   7.190   0.030  0.00  0.00    +0.001 A 
ATOM     14  C   LIG    1        2.112   7.935   0.023  0.00  0.00    +0.000 A 
ATOM     15  C   LIG    1        3.342   7.303   0.008  0.00  0.00    +0.001 A 
ATOM     16  C   LIG    1        3.414   5.925   0.001  0.00  0.00    +0.011 A 
ENDBRANCH   9  11
BRANCH   1  17
ATOM     17  N   LIG    1       -0.011   0.966   0.007  0.00  0.00    -0.328 N 
ATOM     18  H   LIG    1        0.002  -0.004   0.002  0.00  0.00    +0.147 HD
BRANCH  17  19
ATOM     19  C   LIG    1       -1.290   1.681   0.017  0.00  0.00    +0.107 C 
BRANCH  19  20
ATOM     20  C   LIG    1       -2.439   0.671   0.017  0.00  0.00    +0.054 C 
BRANCH  20  24
ATOM     21  C   LIG    1       -6.167   2.756   0.046  0.00  0.00    +0.000 A 
ATOM     22  C   LIG    1       -5.570   2.425  -1.155  0.00  0.00    +0.000 A 
ATOM     23  C   LIG    1       -4.363   1.751  -1.165  0.00  0.00    +0.004 A 
ATOM     24  C   LIG    1       -3.754   1.407   0.028  0.00  0.00    -0.046 A 
ATOM     25  C   LIG    1       -4.354   1.733   1.229  0.00  0.00    +0.004 A 
ATOM     26  C   LIG    1       -5.558   2.412   1.239  0.00  0.00    +0.000 A 
ENDBRANCH  20  24
ENDBRANCH  19  20
ENDBRANCH  17  19
ENDBRANCH   1  17
TORSDOF 5
