REMARK  Name = ZINC13775874
REMARK                            x       y       z     vdW  Elec       q    Type
REMARK                         _______ _______ _______ _____ _____    ______ ____
ROOT
ATOM      1  C   LIG    1        3.663   2.152  -0.122  0.00  0.00    +0.323 C 
ATOM      2  N   LIG    1        3.847   3.351   0.303  0.00  0.00    -0.040 NA
ATOM      3  C   LIG    1        3.047   4.075   1.135  0.00  0.00    +0.197 A 
ATOM      4  C   LIG    1        3.639   4.901   2.094  0.00  0.00    +0.057 A 
ATOM      5  C   LIG    1        2.853   5.710   2.892  0.00  0.00    +0.004 A 
ATOM      6  C   LIG    1        1.479   5.707   2.749  0.00  0.00    +0.002 A 
ATOM      7  C   LIG    1        0.879   4.880   1.814  0.00  0.00    +0.027 A 
ATOM      8  C   LIG    1        1.654   4.053   1.017  0.00  0.00    +0.083 A 
ATOM      9  N   LIG    1        1.025   3.196   0.101  0.00  0.00    -0.310 N 
ATOM     10  H   LIG    1        0.396   3.612  -0.700  0.00  0.00    +0.152 HD
ATOM     11  C   LIG    1        1.216   1.815   0.232  0.00  0.00    +0.047 A 
ATOM     12  C   LIG    1        0.134   0.980   0.447  0.00  0.00    +0.027 A 
ATOM     13  C   LIG    1        0.332  -0.377   0.636  0.00  0.00    +0.047 A 
ATOM     14  C   LIG    1        1.615  -0.904   0.612  0.00  0.00    +0.118 A 
ATOM     15  C   LIG    1        2.704  -0.080   0.385  0.00  0.00    +0.063 A 
ATOM     16  C   LIG    1        2.513   1.288   0.179  0.00  0.00    +0.090 A 
ENDROOT
BRANCH   1  21
ATOM     17  C   LIG    1        6.467   1.103  -4.680  0.00  0.00    +0.105 C 
ATOM     18  N   LIG    1        6.076   1.086  -3.264  0.00  0.00    -0.298 NA
ATOM     19  C   LIG    1        6.135   2.434  -2.685  0.00  0.00    +0.128 C 
ATOM     20  C   LIG    1        5.898   2.348  -1.173  0.00  0.00    +0.241 C 
ATOM     21  N   LIG    1        4.638   1.625  -0.939  0.00  0.00    -0.218 N 
ATOM     22  C   LIG    1        4.451   0.322  -1.595  0.00  0.00    +0.241 C 
ATOM     23  C   LIG    1        4.743   0.491  -3.094  0.00  0.00    +0.128 C 
ENDBRANCH   1  21
BRANCH  14  24
ATOM     24  O   LIG    1        1.803  -2.236   0.811  0.00  0.00    -0.507 OA
ATOM     25  H   LIG    1        0.940  -2.893   0.992  0.00  0.00    +0.292 HD
ENDBRANCH  14  24
TORSDOF 2
