REMARK  Name = ZINC13800632
REMARK                            x       y       z     vdW  Elec       q    Type
REMARK                         _______ _______ _______ _____ _____    ______ ____
ROOT
ATOM      1  C   LIG    1       -1.745  -1.028  -1.429  0.00  0.00    +0.109 C 
ENDROOT
BRANCH   1   2
ATOM      2  N   LIG    1       -3.004  -1.778  -1.420  0.00  0.00    -0.314 N 
ATOM      3  H   LIG    1       -3.412  -2.031  -0.578  0.00  0.00    +0.149 HD
ATOM      4  C   LIG    1       -3.594  -2.117  -2.584  0.00  0.00    +0.230 C 
ATOM      5  O   LIG    1       -3.084  -1.801  -3.637  0.00  0.00    -0.274 OA
BRANCH   4   6
ATOM      6  C   LIG    1       -4.889  -2.888  -2.575  0.00  0.00    +0.200 C 
BRANCH   6   7
ATOM      7  N   LIG    1       -5.322  -3.131  -3.953  0.00  0.00    -0.308 N 
ATOM      8  H   LIG    1       -4.788  -2.804  -4.694  0.00  0.00    +0.149 HD
ATOM      9  C   LIG    1       -6.463  -3.807  -4.192  0.00  0.00    +0.196 C 
ATOM     10  O   LIG    1       -7.131  -4.215  -3.266  0.00  0.00    -0.278 OA
BRANCH   9  11
ATOM     11  C   LIG    1       -6.909  -4.057  -5.610  0.00  0.00    +0.011 C 
BRANCH  11  12
ATOM     12  N   LIG    1       -8.171  -4.808  -5.601  0.00  0.00    +0.384 N 
ATOM     13  H   LIG    1       -8.469  -4.975  -6.551  0.00  0.00    -0.089 HD
ATOM     14  H   LIG    1       -8.876  -4.275  -5.116  0.00  0.00    -0.089 HD
ATOM     15  H   LIG    1       -8.033  -5.691  -5.132  0.00  0.00    -0.089 HD
ENDBRANCH  11  12
ENDBRANCH   9  11
ENDBRANCH   6   7
ENDBRANCH   4   6
ENDBRANCH   1   2
BRANCH   1  16
ATOM     16  C   LIG    1       -1.293  -0.775   0.011  0.00  0.00    +0.054 C 
BRANCH  16  22
ATOM     17  C   LIG    1       -0.017   1.378   0.010  0.00  0.00    +0.005 A 
ATOM     18  C   LIG    1        1.171   2.086   0.002  0.00  0.00    +0.029 A 
ATOM     19  C   LIG    1        2.377   1.411  -0.013  0.00  0.00    +0.105 A 
ATOM     20  C   LIG    1        2.396   0.029  -0.020  0.00  0.00    +0.029 A 
ATOM     21  C   LIG    1        1.208  -0.679  -0.012  0.00  0.00    +0.005 A 
ATOM     22  C   LIG    1        0.002  -0.004   0.002  0.00  0.00    -0.046 A 
BRANCH  19  23
ATOM     23  S   LIG    1        3.891   2.312  -0.024  0.00  0.00    +0.056 S 
ATOM     24  O   LIG    1        3.597   3.593  -0.566  0.00  0.00    -0.153 OA
ATOM     25  O   LIG    1        4.872   1.453  -0.588  0.00  0.00    -0.153 OA
BRANCH  23  26
ATOM     26  N   LIG    1        4.327   2.556   1.555  0.00  0.00    -0.204 NA
ATOM     27  H   LIG    1        5.142   3.039   1.764  0.00  0.00    +0.144 HD
ATOM     28  H   LIG    1        3.768   2.215   2.271  0.00  0.00    +0.144 HD
ENDBRANCH  23  26
ENDBRANCH  19  23
ENDBRANCH  16  22
ENDBRANCH   1  16
TORSDOF 9
