REMARK  Name = ZINC00060919
REMARK                            x       y       z     vdW  Elec       q    Type
REMARK                         _______ _______ _______ _____ _____    ______ ____
ROOT
ATOM      1  C   UNK    1        3.695  -0.685  -0.038  0.00  0.00    +0.136 A 
ATOM      2  C   UNK    1        3.848  -2.032  -0.052  0.00  0.00    +0.065 A 
ATOM      3  C   UNK    1        5.297  -2.270  -0.066  0.00  0.00    +0.101 A 
ATOM      4  C   UNK    1        5.877  -1.031  -0.059  0.00  0.00    +0.129 A 
ATOM      5  O   UNK    1        4.911  -0.108  -0.048  0.00  0.00    -0.458 OA
ENDROOT
BRANCH   1   9
ATOM      6  C   UNK    1       -0.017   1.379   0.010  0.00  0.00    +0.000 A 
ATOM      7  C   UNK    1        1.168   2.093   0.002  0.00  0.00    +0.001 A 
ATOM      8  C   UNK    1        2.377   1.429  -0.013  0.00  0.00    +0.011 A 
ATOM      9  C   UNK    1        2.403   0.034  -0.021  0.00  0.00    +0.017 A 
ATOM     10  C   UNK    1        1.204  -0.681  -0.013  0.00  0.00    +0.011 A 
ATOM     11  C   UNK    1        0.002  -0.004   0.002  0.00  0.00    +0.001 A 
ENDBRANCH   1   9
BRANCH   3  12
ATOM     12  C   UNK    1        5.982  -3.571  -0.084  0.00  0.00    +0.340 C 
ATOM     13  O   UNK    1        5.330  -4.606  -0.089  0.00  0.00    -0.245 OA
BRANCH  12  14
ATOM     14  O   UNK    1        7.205  -3.618  -0.094  0.00  0.00    -0.477 OA
ATOM     15  H   UNK    1        7.704  -2.825  -0.090  0.00  0.00    +0.295 HD
ENDBRANCH  12  14
ENDBRANCH   3  12
BRANCH   4  16
ATOM     16  C   UNK    1        7.358  -0.753  -0.067  0.00  0.00    +0.144 C 
BRANCH  16  17
ATOM     17  S   UNK    1        7.940  -0.626  -1.780  0.00  0.00    -0.154 S 
BRANCH  17  18
ATOM     18  C   UNK    1        9.716  -0.295  -1.617  0.00  0.00    +0.064 C 
BRANCH  18  19
ATOM     19  C   UNK    1       10.340  -0.164  -3.008  0.00  0.00    +0.046 C 
BRANCH  19  20
ATOM     20  N   UNK    1       10.141  -1.413  -3.755  0.00  0.00    +0.387 N 
ATOM     21  H   UNK    1       10.552  -1.326  -4.672  0.00  0.00    -0.089 HD
ATOM     22  H   UNK    1        9.153  -1.597  -3.845  0.00  0.00    -0.089 HD
ATOM     23  H   UNK    1       10.581  -2.174  -3.259  0.00  0.00    -0.089 HD
ENDBRANCH  19  20
BRANCH  19  24
ATOM     24  C   UNK    1       11.815   0.111  -2.873  0.00  0.00    +0.291 C 
ATOM     25  O   UNK    1       12.626  -0.743  -3.188  0.00  0.00    -0.253 OA
BRANCH  24  26
ATOM     26  O   UNK    1       12.198   1.188  -2.448  0.00  0.00    -0.482 OA
ATOM     27  H   UNK    1       11.575   1.844  -2.206  0.00  0.00    +0.295 HD
ENDBRANCH  24  26
ENDBRANCH  19  24
ENDBRANCH  18  19
ENDBRANCH  17  18
ENDBRANCH  16  17
ENDBRANCH   4  16
TORSDOF 10
