REMARK  Name = ZINC19838120
REMARK                            x       y       z     vdW  Elec       q    Type
REMARK                         _______ _______ _______ _____ _____    ______ ____
ROOT
ATOM      1  C   LIG    1        1.173  -0.661  -0.114  0.00  0.00    +0.252 C 
ATOM      2  N   LIG    1        0.002  -0.004   0.002  0.00  0.00    -0.280 N 
ATOM      3  H   LIG    1       -0.938  -0.567   0.100  0.00  0.00    +0.155 HD
ATOM      4  O   LIG    1        2.220  -0.043  -0.121  0.00  0.00    -0.270 OA
ENDROOT
BRANCH   2   5
ATOM      5  C   LIG    1       -0.018   1.392  -0.002  0.00  0.00    +0.060 A 
ATOM      6  C   LIG    1        0.996   2.099  -0.611  0.00  0.00    +0.025 A 
ATOM      7  C   LIG    1        0.987   3.491  -0.622  0.00  0.00    +0.003 A 
ATOM      8  C   LIG    1       -0.021   4.190  -0.032  0.00  0.00    +0.010 A 
ATOM      9  C   LIG    1       -1.072   3.506   0.600  0.00  0.00    +0.002 A 
ATOM     10  C   LIG    1       -2.130   4.200   1.219  0.00  0.00    +0.011 A 
ATOM     11  C   LIG    1       -3.119   3.470   1.814  0.00  0.00    +0.020 A 
ATOM     12  C   LIG    1       -3.062   2.078   1.796  0.00  0.00    +0.111 A 
ATOM     13  N   LIG    1       -2.076   1.435   1.218  0.00  0.00    -0.253 NA
ATOM     14  C   LIG    1       -1.080   2.090   0.614  0.00  0.00    +0.092 A 
ENDBRANCH   2   5
BRANCH   1  20
ATOM     15  C   LIG    1        3.702  -4.947  -0.598  0.00  0.00    +0.047 C 
ATOM     16  C   LIG    1        2.399  -4.202  -0.467  0.00  0.00    -0.008 A 
ATOM     17  C   LIG    1        1.205  -4.896  -0.458  0.00  0.00    +0.007 A 
ATOM     18  C   LIG    1        0.002  -4.220  -0.338  0.00  0.00    +0.001 A 
ATOM     19  C   LIG    1       -0.016  -2.846  -0.226  0.00  0.00    +0.017 A 
ATOM     20  C   LIG    1        1.184  -2.132  -0.234  0.00  0.00    +0.079 A 
ATOM     21  C   LIG    1        2.400  -2.819  -0.361  0.00  0.00    +0.132 A 
BRANCH  21  22
ATOM     22  O   LIG    1        3.571  -2.135  -0.374  0.00  0.00    -0.506 OA
ATOM     23  H   LIG    1        3.569  -1.038  -0.290  0.00  0.00    +0.292 HD
ENDBRANCH  21  22
ENDBRANCH   1  20
TORSDOF 3
