REMARK  Name = ZINC29343783
REMARK                            x       y       z     vdW  Elec       q    Type
REMARK                         _______ _______ _______ _____ _____    ______ ____
ROOT
ATOM      1  N   LIG    1       -0.675   1.545   3.712  0.00  0.00    -0.301 NA
ATOM      2  H   LIG    1       -1.578   2.166   3.623  0.00  0.00    +0.123 HD
ENDROOT
BRANCH   1   3
ATOM      3  C   LIG    1       -0.185   1.210   4.963  0.00  0.00    +0.125 C 
ATOM      4  C   LIG    1       -0.841   1.669   6.127  0.00  0.00    +0.024 C 
ATOM      5  C   LIG    1       -1.997   2.458   6.067  0.00  0.00    +0.006 C 
ATOM      6  C   LIG    1       -2.592   2.866   7.224  0.00  0.00    +0.000 C 
ATOM      7  C   LIG    1       -2.071   2.509   8.465  0.00  0.00    +0.000 C 
ATOM      8  C   LIG    1       -0.950   1.740   8.560  0.00  0.00    +0.004 C 
ATOM      9  C   LIG    1       -0.313   1.302   7.390  0.00  0.00    -0.004 C 
ATOM     10  C   LIG    1        0.848   0.504   7.422  0.00  0.00    +0.019 C 
ATOM     11  C   LIG    1        1.411   0.116   6.246  0.00  0.00    +0.082 C 
ATOM     12  N   LIG    1        0.899   0.466   5.073  0.00  0.00    -0.301 NA
ATOM     13  H   LIG    1        1.415   0.110   4.169  0.00  0.00    +0.123 HD
ENDBRANCH   1   3
BRANCH   1  14
ATOM     14  C   LIG    1        0.011   1.072   2.506  0.00  0.00    +0.082 C 
BRANCH  14  15
ATOM     15  C   LIG    1       -0.729   1.579   1.267  0.00  0.00    +0.020 C 
BRANCH  15  16
ATOM     16  C   LIG    1       -0.013   1.086   0.008  0.00  0.00    +0.036 C 
BRANCH  16  20
ATOM     17  C   LIG    1       -2.079   2.501  -3.453  0.00  0.00    +0.000 A 
ATOM     18  C   LIG    1       -1.066   3.259  -2.894  0.00  0.00    +0.000 A 
ATOM     19  C   LIG    1       -0.398   2.801  -1.774  0.00  0.00    +0.003 A 
ATOM     20  C   LIG    1       -0.742   1.585  -1.213  0.00  0.00    -0.047 A 
ATOM     21  C   LIG    1       -1.750   0.825  -1.775  0.00  0.00    +0.003 A 
ATOM     22  C   LIG    1       -2.422   1.285  -2.892  0.00  0.00    +0.000 A 
ENDBRANCH  16  20
ENDBRANCH  15  16
ENDBRANCH  14  15
ENDBRANCH   1  14
TORSDOF 5
