REMARK  Name = ZINC13782656
REMARK                            x       y       z     vdW  Elec       q    Type
REMARK                         _______ _______ _______ _____ _____    ______ ____
ROOT
ATOM      1  C   LIG    1       -0.198   1.216   2.578  0.00  0.00    +0.017 A 
ATOM      2  C   LIG    1        0.948   0.422   2.697  0.00  0.00    +0.011 A 
ATOM      3  C   LIG    1        1.426   0.100   3.947  0.00  0.00    +0.004 A 
ATOM      4  C   LIG    1        0.774   0.546   5.090  0.00  0.00    -0.042 A 
ATOM      5  C   LIG    1       -0.359   1.327   4.981  0.00  0.00    -0.030 A 
ATOM      6  C   LIG    1       -1.092   1.838   6.194  0.00  0.00    +0.116 C 
ATOM      7  N   LIG    1       -0.708   1.074   7.385  0.00  0.00    -0.312 NA
ATOM      8  H   LIG    1       -1.147   1.543   8.278  0.00  0.00    +0.122 HD
ATOM      9  C   LIG    1        0.757   1.052   7.525  0.00  0.00    +0.086 C 
ATOM     10  C   LIG    1        1.335   0.152   6.433  0.00  0.00    +0.050 C 
ATOM     11  C   LIG    1       -0.847   1.663   3.730  0.00  0.00    +0.016 A 
ENDROOT
BRANCH   1  13
ATOM     12  C   LIG    1       -0.013   1.086   0.008  0.00  0.00    +0.091 C 
ATOM     13  C   LIG    1       -0.718   1.572   1.248  0.00  0.00    +0.160 C 
ATOM     14  O   LIG    1       -1.714   2.256   1.150  0.00  0.00    -0.292 OA
ENDBRANCH   1  13
TORSDOF 1
