REMARK  Name = ZINC13860557
REMARK                            x       y       z     vdW  Elec       q    Type
REMARK                         _______ _______ _______ _____ _____    ______ ____
ROOT
ATOM      1  C   LIG    1       -1.037   3.387   0.989  0.00  0.00    -0.018 A 
ATOM      2  C   LIG    1        0.347   3.252   0.838  0.00  0.00    -0.002 A 
ATOM      3  C   LIG    1        0.848   2.017   0.417  0.00  0.00    +0.010 A 
ATOM      4  C   LIG    1       -0.035   0.986   0.169  0.00  0.00    +0.050 A 
ATOM      5  N   LIG    1       -1.335   1.156   0.319  0.00  0.00    -0.255 NA
ATOM      6  C   LIG    1       -1.848   2.304   0.719  0.00  0.00    +0.048 A 
ENDROOT
BRANCH   2   7
ATOM      7  C   LIG    1        1.257   4.388   1.118  0.00  0.00    +0.024 A 
ATOM      8  C   LIG    1        1.734   5.176   0.071  0.00  0.00    +0.015 A 
ATOM      9  C   LIG    1        2.581   6.232   0.336  0.00  0.00    +0.039 A 
ATOM     10  C   LIG    1        2.961   6.513   1.639  0.00  0.00    +0.127 A 
ATOM     11  F   LIG    1        3.792   7.548   1.890  0.00  0.00    -0.205 F 
ATOM     12  C   LIG    1        2.493   5.736   2.685  0.00  0.00    +0.084 A 
ATOM     13  C   LIG    1        1.637   4.677   2.433  0.00  0.00    +0.127 A 
BRANCH  13  14
ATOM     14  O   LIG    1        1.172   3.917   3.458  0.00  0.00    -0.506 OA
ATOM     15  H   LIG    1        1.733   3.159   3.672  0.00  0.00    +0.292 HD
ENDBRANCH  13  14
ENDBRANCH   2   7
BRANCH   4  16
ATOM     16  C   LIG    1        0.492  -0.351  -0.286  0.00  0.00    +0.032 C 
ATOM     17  C   LIG    1       -0.287  -0.813  -1.520  0.00  0.00    +0.014 C 
ATOM     18  C   LIG    1        0.322  -1.375   0.838  0.00  0.00    +0.014 C 
ENDBRANCH   4  16
BRANCH   6  19
ATOM     19  C   LIG    1       -3.341   2.436   0.877  0.00  0.00    +0.032 C 
ATOM     20  C   LIG    1       -3.813   1.539   2.023  0.00  0.00    +0.014 C 
ATOM     21  C   LIG    1       -4.031   2.011  -0.420  0.00  0.00    +0.014 C 
ENDBRANCH   6  19
BRANCH   1  23
ATOM     22  C   LIG    1       -2.065   5.507   0.218  0.00  0.00    +0.009 C 
ATOM     23  C   LIG    1       -1.633   4.695   1.441  0.00  0.00    +0.034 C 
ENDBRANCH   1  23
BRANCH   3  24
ATOM     24  C   LIG    1        2.330   1.814   0.237  0.00  0.00    +0.144 C 
ATOM     25  C   LIG    1        2.778   2.461  -1.075  0.00  0.00    +0.043 C 
BRANCH  24  26
ATOM     26  O   LIG    1        3.029   2.416   1.328  0.00  0.00    -0.387 OA
ATOM     27  H   LIG    1        3.060   3.382   1.290  0.00  0.00    +0.210 HD
ENDBRANCH  24  26
ENDBRANCH   3  24
TORSDOF 7
