REMARK  Name = ZINC20231389
REMARK                            x       y       z     vdW  Elec       q    Type
REMARK                         _______ _______ _______ _____ _____    ______ ____
ROOT
ATOM      1  C   LIG    1       -0.029  -2.727  -0.318  0.00  0.00    +0.251 C 
ATOM      2  N   LIG    1        1.104  -2.049  -0.588  0.00  0.00    -0.257 N 
ATOM      3  O   LIG    1       -0.966  -2.160   0.210  0.00  0.00    -0.270 OA
ENDROOT
BRANCH   2   4
ATOM      4  C   LIG    1        1.248  -0.727  -0.155  0.00  0.00    +0.037 A 
ATOM      5  C   LIG    1        0.302  -0.165   0.693  0.00  0.00    +0.025 A 
ATOM      6  C   LIG    1        0.446   1.141   1.118  0.00  0.00    +0.022 A 
ATOM      7  C   LIG    1        1.532   1.890   0.700  0.00  0.00    +0.041 A 
ATOM      8 CL   LIG    1        1.710   3.531   1.236  0.00  0.00    -0.084 Cl
ATOM      9  C   LIG    1        2.476   1.333  -0.145  0.00  0.00    +0.022 A 
ATOM     10  C   LIG    1        2.336   0.027  -0.574  0.00  0.00    +0.025 A 
ENDBRANCH   2   4
BRANCH   1  14
ATOM     11  C   LIG    1       -0.328  -6.846  -1.310  0.00  0.00    +0.000 A 
ATOM     12  C   LIG    1       -1.474  -6.077  -1.211  0.00  0.00    +0.001 A 
ATOM     13  C   LIG    1       -1.384  -4.738  -0.889  0.00  0.00    +0.013 A 
ATOM     14  C   LIG    1       -0.133  -4.161  -0.663  0.00  0.00    +0.037 A 
ATOM     15  C   LIG    1        1.019  -4.941  -0.770  0.00  0.00    +0.013 A 
ATOM     16  C   LIG    1        0.914  -6.280  -1.087  0.00  0.00    +0.001 A 
ENDBRANCH   1  14
BRANCH   2  17
ATOM     17  C   LIG    1        2.185  -2.698  -1.334  0.00  0.00    +0.234 C 
BRANCH  17  18
ATOM     18  C   LIG    1        3.321  -3.016  -0.398  0.00  0.00    +0.323 C 
ATOM     19  O   LIG    1        3.237  -2.731   0.773  0.00  0.00    -0.249 OA
BRANCH  18  20
ATOM     20  O   LIG    1        4.428  -3.617  -0.864  0.00  0.00    -0.480 OA
ATOM     21  H   LIG    1        4.493  -3.838  -1.773  0.00  0.00    +0.295 HD
ENDBRANCH  18  20
ENDBRANCH  17  18
ENDBRANCH   2  17
TORSDOF 5
