REMARK  Name = ZINC14951858
REMARK                            x       y       z     vdW  Elec       q    Type
REMARK                         _______ _______ _______ _____ _____    ______ ____
ROOT
ATOM      1  C   LIG    1       -0.149   1.476   0.001  0.00  0.00    +0.070 C 
ATOM      2  C   LIG    1       -0.066  -0.029  -0.021  0.00  0.00    +0.094 C 
ATOM      3  N   LIG    1        0.073  -0.691   1.093  0.00  0.00    -0.115 NA
ENDROOT
BRANCH   2   4
ATOM      4  C   LIG    1       -0.140  -0.723  -1.251  0.00  0.00    +0.178 C 
ATOM      5  N   LIG    1       -0.166  -0.057  -2.378  0.00  0.00    -0.077 NA
BRANCH   5   6
ATOM      6  N   LIG    1        0.035   1.217  -2.379  0.00  0.00    +0.044 NA
ATOM      7  C   LIG    1       -0.083   1.902  -3.500  0.00  0.00    +0.404 C 
BRANCH   7   8
ATOM      8  N   LIG    1        0.234   3.236  -3.525  0.00  0.00    -0.287 N 
ATOM      9  H   LIG    1        0.079   3.757  -4.328  0.00  0.00    +0.255 HD
ATOM     10  H   LIG    1        0.614   3.659  -2.739  0.00  0.00    +0.255 HD
ENDBRANCH   7   8
BRANCH   7  11
ATOM     11  N   LIG    1       -0.523   1.281  -4.641  0.00  0.00    -0.287 N 
ATOM     12  H   LIG    1       -0.610   1.785  -5.465  0.00  0.00    +0.255 HD
ATOM     13  H   LIG    1       -0.747   0.338  -4.623  0.00  0.00    +0.255 HD
ENDBRANCH   7  11
ENDBRANCH   5   6
ENDBRANCH   2   4
BRANCH   3  14
ATOM     14  N   LIG    1        0.279  -2.076   1.065  0.00  0.00    -0.155 N 
ATOM     15  H   LIG    1        0.250  -2.553   0.221  0.00  0.00    +0.292 HD
BRANCH  14  16
ATOM     16  C   LIG    1        0.524  -2.759   2.233  0.00  0.00    +0.400 C 
ATOM     17  N   LIG    1        0.465  -2.137   3.377  0.00  0.00    -0.128 NA
ATOM     18  H   LIG    1        0.248  -1.192   3.405  0.00  0.00    +0.306 HD
BRANCH  16  19
ATOM     19  N   LIG    1        0.832  -4.100   2.195  0.00  0.00    -0.288 N 
ATOM     20  H   LIG    1        0.933  -4.598   3.021  0.00  0.00    +0.255 HD
ATOM     21  H   LIG    1        0.948  -4.546   1.341  0.00  0.00    +0.255 HD
ENDBRANCH  16  19
ENDBRANCH  14  16
ENDBRANCH   3  14
TORSDOF 7
