REMARK  Name = ZINC40979182
REMARK                            x       y       z     vdW  Elec       q    Type
REMARK                         _______ _______ _______ _____ _____    ______ ____
ROOT
ATOM      1  C   LIG    1       -0.018   1.503   0.010  0.00  0.00    +0.044 C 
ATOM      2  C   LIG    1        0.002  -0.004   0.002  0.00  0.00    -0.048 A 
ATOM      3  C   LIG    1        0.006  -0.685  -1.208  0.00  0.00    +0.004 A 
ATOM      4  C   LIG    1        0.024  -2.050  -1.236  0.00  0.00    +0.010 A 
ATOM      5  C   LIG    1        0.039  -2.771  -0.036  0.00  0.00    +0.002 A 
ATOM      6  C   LIG    1        0.059  -4.235  -0.044  0.00  0.00    +0.061 A 
ATOM      7  C   LIG    1        0.074  -4.894   1.145  0.00  0.00    +0.182 A 
ATOM      8  C   LIG    1        0.070  -4.131   2.392  0.00  0.00    +0.291 A 
ATOM      9  N   LIG    1        0.052  -2.787   2.379  0.00  0.00    -0.319 N 
ATOM     10  H   LIG    1        0.050  -2.302   3.219  0.00  0.00    +0.169 HD
ATOM     11  O   LIG    1        0.083  -4.722   3.457  0.00  0.00    -0.264 OA
ATOM     12  C   LIG    1        0.036  -2.085   1.192  0.00  0.00    +0.050 A 
ATOM     13  C   LIG    1        0.023  -0.693   1.195  0.00  0.00    +0.029 A 
ENDROOT
BRANCH   7  14
ATOM     14  O   LIG    1        0.092  -6.253   1.173  0.00  0.00    -0.502 OA
ATOM     15  H   LIG    1        0.102  -6.627   2.065  0.00  0.00    +0.292 HD
ENDBRANCH   7  14
TORSDOF 1
