REMARK  Name = ZINC16951624
REMARK                            x       y       z     vdW  Elec       q    Type
REMARK                         _______ _______ _______ _____ _____    ______ ____
ROOT
ATOM      1  C   LIG    1        0.002  -0.004   0.002  0.00  0.00    +0.055 A 
ATOM      2  C   LIG    1       -1.167  -0.710   0.009  0.00  0.00    +0.074 A 
ATOM      3  S   LIG    1       -0.545  -2.386  -0.005  0.00  0.00    -0.062 S 
ATOM      4  C   LIG    1        1.196  -1.981  -0.020  0.00  0.00    +0.134 A 
ATOM      5  N   LIG    1        1.160  -0.661  -0.018  0.00  0.00    -0.337 N 
ATOM      6  H   LIG    1        2.108  -0.103  -0.034  0.00  0.00    +0.168 HD
ENDROOT
BRANCH   1  12
ATOM      7  C   LIG    1       -1.234   2.161   0.020  0.00  0.00    +0.013 A 
ATOM      8  C   LIG    1       -1.249   3.540   0.033  0.00  0.00    +0.046 A 
ATOM      9  C   LIG    1       -0.056   4.249   0.026  0.00  0.00    +0.117 A 
ATOM     10  C   LIG    1        1.157   3.573   0.010  0.00  0.00    +0.046 A 
ATOM     11  C   LIG    1        1.179   2.194   0.003  0.00  0.00    +0.013 A 
ATOM     12  C   LIG    1       -0.018   1.479   0.010  0.00  0.00    -0.001 A 
BRANCH   9  13
ATOM     13  O   LIG    1       -0.074   5.608   0.034  0.00  0.00    -0.507 OA
ATOM     14  H   LIG    1        0.871   6.171   0.028  0.00  0.00    +0.292 HD
ENDBRANCH   9  13
ENDBRANCH   1  12
BRANCH   4  15
ATOM     15  N   LIG    1        2.292  -2.827  -0.035  0.00  0.00    -0.339 N 
ATOM     16  H   LIG    1        2.145  -3.917  -0.039  0.00  0.00    +0.144 HD
ATOM     17  H   LIG    1        3.310  -2.409  -0.042  0.00  0.00    +0.144 HD
ENDBRANCH   4  15
TORSDOF 3
