REMARK  Name = ZINC40897376
REMARK                            x       y       z     vdW  Elec       q    Type
REMARK                         _______ _______ _______ _____ _____    ______ ____
ROOT
ATOM      1  N   LIG    1        0.274  -5.946   1.763  0.00  0.00    -0.269 N 
ATOM      2  H   LIG    1        0.691  -5.188   1.324  0.00  0.00    +0.156 HD
ATOM      3  C   LIG    1        0.840  -6.482   2.862  0.00  0.00    +0.308 C 
ATOM      4  N   LIG    1        1.925  -5.903   3.412  0.00  0.00    -0.269 N 
ATOM      5  H   LIG    1        2.255  -5.060   3.063  0.00  0.00    +0.156 HD
ATOM      6  O   LIG    1        0.371  -7.489   3.358  0.00  0.00    -0.252 OA
ENDROOT
BRANCH   1  11
ATOM      7  C   LIG    1       -3.032  -7.556   1.612  0.00  0.00    +0.122 A 
ATOM      8  C   LIG    1       -3.265  -7.542   0.243  0.00  0.00    +0.046 A 
ATOM      9  C   LIG    1       -2.328  -7.000  -0.614  0.00  0.00    +0.005 A 
ATOM     10  C   LIG    1       -1.154  -6.470  -0.113  0.00  0.00    +0.023 A 
ATOM     11  C   LIG    1       -0.915  -6.482   1.255  0.00  0.00    +0.038 A 
ATOM     12  C   LIG    1       -1.859  -7.020   2.119  0.00  0.00    +0.069 A 
BRANCH   7  14
ATOM     13  C   LIG    1       -5.141  -8.625   1.862  0.00  0.00    +0.277 C 
ATOM     14  O   LIG    1       -3.955  -8.091   2.454  0.00  0.00    -0.495 OA
ENDBRANCH   7  14
ENDBRANCH   1  11
BRANCH   4  15
ATOM     15  C   LIG    1        2.579  -6.519   4.488  0.00  0.00    +0.035 A 
ATOM     16  C   LIG    1        3.175  -5.744   5.474  0.00  0.00    +0.027 A 
ATOM     17  C   LIG    1        3.818  -6.352   6.534  0.00  0.00    +0.047 A 
ATOM     18  C   LIG    1        3.868  -7.736   6.615  0.00  0.00    +0.121 A 
ATOM     19  C   LIG    1        3.272  -8.511   5.630  0.00  0.00    +0.047 A 
ATOM     20  C   LIG    1        2.624  -7.904   4.572  0.00  0.00    +0.027 A 
BRANCH  18  21
ATOM     21  O   LIG    1        4.502  -8.334   7.659  0.00  0.00    -0.489 OA
BRANCH  21  22
ATOM     22  C   LIG    1        5.730  -8.866   7.438  0.00  0.00    +0.176 C 
ATOM     23  C   LIG    1        6.383  -9.592   8.432  0.00  0.00    +0.059 C 
ATOM     24  C   LIG    1        7.631 -10.117   8.168  0.00  0.00    +0.084 C 
ATOM     25  N   LIG    1        8.206  -9.938   6.994  0.00  0.00    -0.316 NA
ATOM     26  H   LIG    1        9.084 -10.319   6.836  0.00  0.00    +0.122 HD
ATOM     27  C   LIG    1        7.620  -9.256   6.028  0.00  0.00    +0.084 C 
ATOM     28  C   LIG    1        6.369  -8.704   6.211  0.00  0.00    +0.059 C 
ENDBRANCH  21  22
ENDBRANCH  18  21
ENDBRANCH   4  15
TORSDOF 5
