REMARK  Name = ZINC26144132
REMARK                            x       y       z     vdW  Elec       q    Type
REMARK                         _______ _______ _______ _____ _____    ______ ____
ROOT
ATOM      1  C   LIG    1        0.707  -0.490  -1.238  0.00  0.00    +0.023 C 
ATOM      2  C   LIG    1       -0.002  -0.722  -2.403  0.00  0.00    -0.007 C 
ATOM      3  C   LIG    1       -1.491  -0.494  -2.457  0.00  0.00    +0.008 C 
ATOM      4  C   LIG    1        0.689  -1.169  -3.521  0.00  0.00    +0.019 C 
ATOM      5  C   LIG    1        2.052  -1.368  -3.439  0.00  0.00    +0.082 C 
ATOM      6  N   LIG    1        2.703  -1.139  -2.314  0.00  0.00    -0.301 NA
ATOM      7  H   LIG    1        3.661  -1.288  -2.284  0.00  0.00    +0.123 HD
ATOM      8  C   LIG    1        2.081  -0.707  -1.228  0.00  0.00    +0.122 C 
ENDROOT
BRANCH   8   9
ATOM      9  N   LIG    1        2.807  -0.472  -0.066  0.00  0.00    -0.315 NA
ATOM     10  H   LIG    1        3.766  -0.622  -0.055  0.00  0.00    +0.120 HD
ATOM     11  H   LIG    1        2.356  -0.160   0.733  0.00  0.00    +0.120 HD
ENDBRANCH   8   9
BRANCH   1  13
ATOM     12  C   LIG    1       -0.019   1.526   0.010  0.00  0.00    +0.004 C 
ATOM     13  C   LIG    1        0.002  -0.004   0.002  0.00  0.00    +0.003 C 
ENDBRANCH   1  13
TORSDOF 2
