REMARK  Name = ZINC28389967
REMARK                            x       y       z     vdW  Elec       q    Type
REMARK                         _______ _______ _______ _____ _____    ______ ____
ROOT
ATOM      1  C   LIG    1        2.326   3.969   0.001  0.00  0.00    +0.146 A 
ATOM      2  C   LIG    1        3.531   3.305  -0.014  0.00  0.00    +0.048 A 
ATOM      3  C   LIG    1        3.580   1.914  -0.022  0.00  0.00    +0.004 A 
ATOM      4  C   LIG    1        2.437   1.174  -0.015  0.00  0.00    +0.010 A 
ATOM      5  C   LIG    1        1.188   1.815   0.001  0.00  0.00    +0.004 A 
ATOM      6  C   LIG    1       -0.013   1.076   0.008  0.00  0.00    +0.013 A 
ATOM      7  C   LIG    1       -1.191   1.758   0.017  0.00  0.00    +0.044 A 
ATOM      8  C   LIG    1       -1.187   3.161   0.030  0.00  0.00    +0.117 A 
ATOM      9  N   LIG    1       -0.062   3.845   0.023  0.00  0.00    -0.229 NA
ATOM     10  C   LIG    1        1.126   3.229   0.009  0.00  0.00    +0.115 A 
ENDROOT
BRANCH   8  11
ATOM     11  N   LIG    1       -2.395   3.842   0.044  0.00  0.00    -0.343 N 
ATOM     12  H   LIG    1       -2.406   4.942   0.050  0.00  0.00    +0.144 HD
ATOM     13  H   LIG    1       -3.342   3.283   0.050  0.00  0.00    +0.144 HD
ENDBRANCH   8  11
BRANCH   1  14
ATOM     14  O   LIG    1        2.292   5.327   0.008  0.00  0.00    -0.490 OA
BRANCH  14  15
ATOM     15  C   LIG    1        3.549   6.007   0.000  0.00  0.00    +0.229 C 
BRANCH  15  17
ATOM     16  C   LIG    1        4.657   8.246   0.001  0.00  0.00    +0.007 C 
ATOM     17  C   LIG    1        3.312   7.518   0.010  0.00  0.00    +0.038 C 
ENDBRANCH  15  17
ENDBRANCH  14  15
ENDBRANCH   1  14
TORSDOF 4
