REMARK  Name = ZINC29135394
REMARK                            x       y       z     vdW  Elec       q    Type
REMARK                         _______ _______ _______ _____ _____    ______ ____
ROOT
ATOM      1  C   LIG    1        2.451   3.937   0.001  0.00  0.00    +0.132 C 
ATOM      2  C   LIG    1        2.475   4.925   1.171  0.00  0.00    +0.059 C 
ATOM      3  C   LIG    1        1.596   6.110   0.859  0.00  0.00    +0.004 A 
ATOM      4  C   LIG    1        1.144   6.905   1.931  0.00  0.00    -0.011 A 
ATOM      5  C   LIG    1        1.491   6.593   3.257  0.00  0.00    +0.010 A 
ATOM      6  C   LIG    1        1.043   7.379   4.273  0.00  0.00    +0.016 A 
ATOM      7  C   LIG    1        0.241   8.492   4.020  0.00  0.00    +0.018 A 
ATOM      8 BR   LIG    1       -0.359   9.555   5.464  0.00  0.00    -0.050 Br
ATOM      9  C   LIG    1       -0.117   8.823   2.748  0.00  0.00    +0.023 A 
ATOM     10  C   LIG    1        0.328   8.033   1.675  0.00  0.00    -0.016 A 
ATOM     11  C   LIG    1       -0.021   8.341   0.348  0.00  0.00    +0.012 A 
ATOM     12  C   LIG    1        0.424   7.552  -0.662  0.00  0.00    +0.047 A 
ATOM     13  C   LIG    1        1.232   6.430  -0.414  0.00  0.00    +0.135 A 
ATOM     14  O   LIG    1        1.618   5.683  -1.485  0.00  0.00    -0.425 OA
ATOM     15  C   LIG    1        2.563   4.745  -1.277  0.00  0.00    +0.320 C 
ATOM     16  O   LIG    1        3.457   4.558  -2.068  0.00  0.00    -0.250 OA
ENDROOT
BRANCH   1  20
ATOM     17  C   LIG    1       -1.219   1.750   0.025  0.00  0.00    +0.000 A 
ATOM     18  C   LIG    1       -1.237   3.132   0.060  0.00  0.00    +0.000 A 
ATOM     19  C   LIG    1       -0.050   3.840   0.054  0.00  0.00    +0.004 A 
ATOM     20  C   LIG    1        1.156   3.165   0.008  0.00  0.00    -0.033 A 
ATOM     21  C   LIG    1        1.175   1.784  -0.032  0.00  0.00    +0.004 A 
ATOM     22  C   LIG    1       -0.013   1.076  -0.025  0.00  0.00    +0.000 A 
ENDBRANCH   1  20
TORSDOF 1
