REMARK  Name = ZINC15821826
REMARK                            x       y       z     vdW  Elec       q    Type
REMARK                         _______ _______ _______ _____ _____    ______ ____
ROOT
ATOM      1  C   LIG    1        2.492   1.021  -0.016  0.00  0.00    +0.137 C 
ENDROOT
BRANCH   1   2
ATOM      2  C   LIG    1        1.175   1.753  -0.064  0.00  0.00    +0.022 A 
ATOM      3  C   LIG    1       -0.009   1.027  -0.160  0.00  0.00    +0.030 A 
ATOM      4  C   LIG    1       -1.215   1.659  -0.211  0.00  0.00    +0.051 A 
ATOM      5 CL   LIG    1       -2.679   0.735  -0.337  0.00  0.00    -0.083 Cl
ATOM      6  C   LIG    1       -1.269   3.063  -0.156  0.00  0.00    +0.022 A 
ATOM      7  C   LIG    1       -2.495   3.752  -0.200  0.00  0.00    +0.013 A 
ATOM      8  C   LIG    1       -2.471   5.116  -0.147  0.00  0.00    +0.020 A 
ATOM      9  C   LIG    1       -1.253   5.786  -0.051  0.00  0.00    +0.111 A 
ATOM     10  N   LIG    1       -0.113   5.141  -0.010  0.00  0.00    -0.251 NA
ATOM     11  C   LIG    1       -0.067   3.806  -0.058  0.00  0.00    +0.114 A 
ATOM     12  C   LIG    1        1.163   3.117  -0.013  0.00  0.00    +0.148 A 
BRANCH  12  13
ATOM     13  O   LIG    1        2.329   3.808   0.081  0.00  0.00    -0.504 OA
ATOM     14  H   LIG    1        2.718   4.041  -0.773  0.00  0.00    +0.292 HD
ENDBRANCH  12  13
ENDBRANCH   1   2
BRANCH   1  19
ATOM     15  C   LIG    1        4.599   0.492  -5.370  0.00  0.00    +0.044 C 
ATOM     16  C   LIG    1        4.050   0.629  -3.974  0.00  0.00    -0.050 A 
ATOM     17  C   LIG    1        4.530   1.619  -3.137  0.00  0.00    +0.004 A 
ATOM     18  C   LIG    1        4.026   1.746  -1.856  0.00  0.00    +0.006 A 
ATOM     19  C   LIG    1        3.041   0.883  -1.412  0.00  0.00    -0.023 A 
ATOM     20  C   LIG    1        2.565  -0.110  -2.247  0.00  0.00    +0.006 A 
ATOM     21  C   LIG    1        3.066  -0.234  -3.530  0.00  0.00    +0.004 A 
ENDBRANCH   1  19
BRANCH   1  22
ATOM     22  N   LIG    1        2.290  -0.310   0.563  0.00  0.00    -0.302 N 
ATOM     23  H   LIG    1        1.428  -0.747   0.484  0.00  0.00    +0.150 HD
ATOM     24  C   LIG    1        3.302  -0.926   1.206  0.00  0.00    +0.251 C 
ATOM     25  O   LIG    1        4.380  -0.379   1.305  0.00  0.00    -0.272 OA
BRANCH  24  26
ATOM     26  C   LIG    1        3.094  -2.294   1.801  0.00  0.00    +0.324 C 
BRANCH  26  27
ATOM     27  O   LIG    1        4.304  -2.732   2.424  0.00  0.00    -0.483 OA
BRANCH  27  28
ATOM     28  C   LIG    1        4.286  -3.956   3.014  0.00  0.00    +0.121 A 
ATOM     29  C   LIG    1        3.127  -4.718   2.998  0.00  0.00    +0.045 A 
ATOM     30  C   LIG    1        3.114  -5.965   3.593  0.00  0.00    +0.004 A 
ATOM     31  C   LIG    1        4.251  -6.448   4.214  0.00  0.00    +0.000 A 
ATOM     32  C   LIG    1        5.406  -5.688   4.235  0.00  0.00    +0.004 A 
ATOM     33  C   LIG    1        5.426  -4.443   3.637  0.00  0.00    +0.045 A 
ENDBRANCH  27  28
ENDBRANCH  26  27
ENDBRANCH  24  26
ENDBRANCH   1  22
TORSDOF 7
