REMARK  Name = ZINC36382580
REMARK                            x       y       z     vdW  Elec       q    Type
REMARK                         _______ _______ _______ _____ _____    ______ ____
ROOT
ATOM      1  C   LIG    1        2.767  -2.864   0.502  0.00  0.00    +0.198 C 
ATOM      2  N   LIG    1        3.485  -3.495  -0.407  0.00  0.00    -0.286 NA
ATOM      3  H   LIG    1        3.077  -3.754  -1.248  0.00  0.00    +0.125 HD
ATOM      4  C   LIG    1        4.776  -3.781  -0.176  0.00  0.00    +0.065 C 
ATOM      5  C   LIG    1        5.564  -4.450  -1.121  0.00  0.00    +0.053 C 
ATOM      6  C   LIG    1        6.884  -4.719  -0.835  0.00  0.00    +0.148 C 
ATOM      7  C   LIG    1        7.444  -4.332   0.390  0.00  0.00    +0.147 C 
ATOM      8  C   LIG    1        6.694  -3.679   1.326  0.00  0.00    +0.042 C 
ATOM      9  C   LIG    1        5.349  -3.392   1.060  0.00  0.00    +0.040 C 
ATOM     10  C   LIG    1        4.530  -2.717   1.997  0.00  0.00    +0.129 C 
ATOM     11  N   LIG    1        3.268  -2.476   1.671  0.00  0.00    -0.273 NA
ATOM     12  H   LIG    1        2.696  -2.919   2.391  0.00  0.00    +0.126 HD
ENDROOT
BRANCH   1  19
ATOM     13  C   LIG    1       -1.409  -5.742  -0.499  0.00  0.00    -0.096 C 
ATOM     14  N   LIG    1       -0.837  -4.397  -0.351  0.00  0.00    +0.379 N 
ATOM     15  H   LIG    1       -1.492  -3.731  -0.732  0.00  0.00    -0.082 HD
ATOM     16  C   LIG    1       -0.676  -4.119   1.074  0.00  0.00    -0.078 C 
ATOM     17  C   LIG    1       -0.799  -2.629   1.308  0.00  0.00    -0.003 C 
ATOM     18  C   LIG    1        0.601  -1.989   1.283  0.00  0.00    +0.085 C 
ATOM     19  N   LIG    1        1.440  -2.588   0.225  0.00  0.00    -0.277 NA
ATOM     20  C   LIG    1        0.922  -2.897  -1.092  0.00  0.00    +0.068 C 
ATOM     21  C   LIG    1        0.354  -4.334  -1.109  0.00  0.00    -0.064 C 
ENDBRANCH   1  19
BRANCH   7  22
ATOM     22  O   LIG    1        8.750  -4.610   0.650  0.00  0.00    -0.377 OA
ATOM     23  C   LIG    1        9.264  -4.190   1.916  0.00  0.00    +0.194 C 
ENDBRANCH   7  22
BRANCH  10  24
ATOM     24  N   LIG    1        5.035  -2.314   3.216  0.00  0.00    -0.298 NA
ATOM     25  H   LIG    1        5.961  -2.493   3.440  0.00  0.00    +0.124 HD
BRANCH  24  26
ATOM     26  C   LIG    1        4.171  -1.617   4.172  0.00  0.00    +0.052 C 
ATOM     27  C   LIG    1        4.164  -0.118   3.856  0.00  0.00    -0.000 C 
ATOM     28  C   LIG    1        3.325   0.614   4.906  0.00  0.00    -0.078 C 
ATOM     29  N   LIG    1        3.901   0.396   6.238  0.00  0.00    +0.378 N 
ATOM     30  H   LIG    1        4.861   0.705   6.242  0.00  0.00    -0.082 HD
ATOM     31  C   LIG    1        3.138   1.163   7.231  0.00  0.00    -0.096 C 
ATOM     32  C   LIG    1        3.845  -1.031   6.577  0.00  0.00    -0.078 C 
ATOM     33  C   LIG    1        4.705  -1.827   5.592  0.00  0.00    -0.000 C 
ENDBRANCH  24  26
ENDBRANCH  10  24
BRANCH   6  34
ATOM     34  O   LIG    1        7.651  -5.368  -1.749  0.00  0.00    -0.374 OA
BRANCH  34  35
ATOM     35  C   LIG    1        7.021  -5.737  -2.978  0.00  0.00    +0.158 C 
BRANCH  35  36
ATOM     36  C   LIG    1        8.034  -6.452  -3.875  0.00  0.00    +0.009 C 
BRANCH  36  37
ATOM     37  C   LIG    1        7.361  -6.847  -5.191  0.00  0.00    -0.077 C 
BRANCH  37  38
ATOM     38  N   LIG    1        8.333  -7.534  -6.052  0.00  0.00    +0.376 N 
ATOM     39  H   LIG    1        9.145  -6.948  -6.176  0.00  0.00    -0.083 HD
ATOM     40  C   LIG    1        7.722  -7.806  -7.360  0.00  0.00    -0.097 C 
ATOM     41  C   LIG    1        8.734  -8.800  -5.425  0.00  0.00    -0.097 C 
ENDBRANCH  37  38
ENDBRANCH  36  37
ENDBRANCH  35  36
ENDBRANCH  34  35
ENDBRANCH   6  34
TORSDOF 9
