REMARK  Name = ZINC14947179
REMARK                            x       y       z     vdW  Elec       q    Type
REMARK                         _______ _______ _______ _____ _____    ______ ____
ROOT
ATOM      1  N   VAL A  1        2.157  -0.117   2.911  0.00  0.00    -0.302 N 
ATOM      2  H   VAL A  1        2.062  -0.457   2.008  0.00  0.00    +0.150 HD
ATOM      3  C   VAL A  1        1.671   1.100   3.228  0.00  0.00    +0.234 C 
ATOM      4  O   VAL A  1        1.708   1.487   4.376  0.00  0.00    -0.274 OA
ENDROOT
BRANCH   3   5
ATOM      5  CA  VAL A  1        1.082   1.978   2.154  0.00  0.00    +0.159 C 
BRANCH   5   6
ATOM      6  N   VAL A  1        0.628   3.238   2.749  0.00  0.00    -0.302 N 
ATOM      7  H   VAL A  1        1.030   3.558   3.572  0.00  0.00    +0.150 HD
ATOM      8  C   VAL A  1       -0.348   3.951   2.153  0.00  0.00    +0.234 C 
ATOM      9  O   VAL A  1       -0.921   3.502   1.183  0.00  0.00    -0.274 OA
BRANCH   8  10
ATOM     10  CA  VAL A  1       -0.726   5.307   2.692  0.00  0.00    +0.161 C 
BRANCH  10  11
ATOM     11  N   VAL A  1       -1.644   5.965   1.758  0.00  0.00    -0.304 N 
ATOM     12  H   VAL A  1       -2.190   5.432   1.159  0.00  0.00    +0.149 HD
ATOM     13  C   UNK A  0       -1.730   7.309   1.732  0.00  0.00    +0.211 C 
ATOM     14  C   UNK A  0       -2.674   7.986   0.772  0.00  0.00    +0.109 C 
ATOM     15  O   UNK A  0       -1.047   7.975   2.482  0.00  0.00    -0.276 OA
ENDBRANCH  10  11
BRANCH  10  16
ATOM     16  CB  VAL A  1       -1.411   5.143   4.050  0.00  0.00    +0.012 C 
ATOM     17  CG2 VAL A  1       -2.748   4.423   3.863  0.00  0.00    +0.009 C 
ATOM     18  CG1 VAL A  1       -1.656   6.521   4.667  0.00  0.00    +0.009 C 
ENDBRANCH  10  16
ENDBRANCH   8  10
ENDBRANCH   5   6
BRANCH   5  19
ATOM     19  CB  VAL A  1        2.145   2.269   1.093  0.00  0.00    +0.043 C 
BRANCH  19  20
ATOM     20  CG  VAL A  1        1.515   3.056  -0.058  0.00  0.00    +0.123 C 
BRANCH  20  21
ATOM     21  CD  VAL A  1        2.562   3.343  -1.103  0.00  0.00    +0.305 C 
ATOM     22  OE1 VAL A  1        3.696   2.957  -0.944  0.00  0.00    -0.251 OA
BRANCH  21  23
ATOM     23  OE2 VAL A  1        2.234   4.026  -2.211  0.00  0.00    -0.481 OA
ATOM     24  HE2 VAL A  1        1.355   4.325  -2.335  0.00  0.00    +0.295 HD
ENDBRANCH  21  23
ENDBRANCH  20  21
ENDBRANCH  19  20
ENDBRANCH   5  19
ENDBRANCH   3   5
BRANCH   1  25
ATOM     25  CA  VAL A  1        2.829  -0.926   3.931  0.00  0.00    +0.162 C 
BRANCH  25  26
ATOM     26  C   VAL A  1        3.822  -1.845   3.269  0.00  0.00    +0.234 C 
ATOM     27  N   ASP A  2        4.741  -2.492   4.013  0.00  0.00    -0.304 N 
ATOM     28  H   ASP A  2        4.723  -2.416   4.980  0.00  0.00    +0.149 HD
ATOM     29  O   VAL A  1        3.795  -2.004   2.067  0.00  0.00    -0.274 OA
BRANCH  27  30
ATOM     30  CA  ASP A  2        5.767  -3.310   3.362  0.00  0.00    +0.146 C 
BRANCH  30  31
ATOM     31  C   ASP A  2        5.219  -4.689   3.101  0.00  0.00    +0.246 C 
ATOM     32  O   ASP A  2        4.088  -4.961   3.425  0.00  0.00    -0.299 OA
ENDBRANCH  30  31
BRANCH  30  33
ATOM     33  CB  ASP A  2        6.992  -3.413   4.273  0.00  0.00    +0.150 C 
BRANCH  33  34
ATOM     34  CG  ASP A  2        7.613  -2.049   4.435  0.00  0.00    +0.307 C 
ATOM     35  OD1 ASP A  2        7.126  -1.093   3.879  0.00  0.00    -0.251 OA
BRANCH  34  36
ATOM     36  OD2 ASP A  2        8.707  -1.896   5.197  0.00  0.00    -0.481 OA
ATOM     37  HD2 ASP A  2        9.085  -2.637   5.628  0.00  0.00    +0.295 HD
ENDBRANCH  34  36
ENDBRANCH  33  34
ENDBRANCH  30  33
ENDBRANCH  27  30
ENDBRANCH  25  26
BRANCH  25  38
ATOM     38  CB  VAL A  1        1.791  -1.756   4.689  0.00  0.00    +0.015 C 
ATOM     39  CG2 VAL A  1        1.154  -2.769   3.736  0.00  0.00    +0.010 C 
BRANCH  38  41
ATOM     40  CD1 VAL A  1        2.982  -1.486   6.869  0.00  0.00    +0.004 C 
ATOM     41  CG1 VAL A  1        2.473  -2.498   5.840  0.00  0.00    +0.002 C 
ENDBRANCH  38  41
ENDBRANCH  25  38
ENDBRANCH   1  25
TORSDOF 18
