REMARK  Name = ZINC00042568
REMARK                            x       y       z     vdW  Elec       q    Type
REMARK                         _______ _______ _______ _____ _____    ______ ____
ROOT
ATOM      1  C   LIG    1        4.928  -2.705  -0.062  0.00  0.00    +0.085 A 
ATOM      2  C   LIG    1        5.141  -4.075  -0.077  0.00  0.00    +0.068 A 
ATOM      3  C   LIG    1        6.520  -4.532  -0.092  0.00  0.00    -0.023 A 
ATOM      4  C   LIG    1        7.432  -3.536  -0.089  0.00  0.00    -0.004 A 
ATOM      5  C   LIG    1        8.922  -3.681  -0.101  0.00  0.00    +0.043 C 
ATOM      6  C   LIG    1        9.268  -5.132   0.264  0.00  0.00    +0.005 C 
ATOM      7  C   LIG    1        8.400  -6.074  -0.575  0.00  0.00    +0.005 C 
ATOM      8  C   LIG    1        6.944  -5.993  -0.111  0.00  0.00    +0.037 C 
ATOM      9  S   LIG    1        6.474  -2.049  -0.075  0.00  0.00    -0.077 S 
ENDROOT
BRANCH   2  10
ATOM     10  C   LIG    1        4.023  -5.022  -0.077  0.00  0.00    +0.244 C 
ATOM     11  N   LIG    1        3.518  -5.469   1.091  0.00  0.00    -0.325 N 
ATOM     12  H   LIG    1        2.778  -6.096   1.091  0.00  0.00    +0.145 HD
ATOM     13  H   LIG    1        3.895  -5.163   1.931  0.00  0.00    +0.145 HD
ATOM     14  O   LIG    1        3.550  -5.406  -1.131  0.00  0.00    -0.270 OA
ENDBRANCH   2  10
BRANCH   1  16
ATOM     15  C   LIG    1        3.695  -0.684  -0.038  0.00  0.00    +0.249 C 
ATOM     16  N   LIG    1        3.717  -2.032  -0.046  0.00  0.00    -0.275 N 
ATOM     17  H   LIG    1        2.885  -2.530  -0.040  0.00  0.00    +0.156 HD
ATOM     18  O   LIG    1        4.738  -0.059  -0.046  0.00  0.00    -0.270 OA
BRANCH  15  22
ATOM     19  C   LIG    1       -0.017   1.379   0.010  0.00  0.00    +0.000 A 
ATOM     20  C   LIG    1        1.168   2.094   0.002  0.00  0.00    +0.001 A 
ATOM     21  C   LIG    1        2.377   1.430  -0.013  0.00  0.00    +0.013 A 
ATOM     22  C   LIG    1        2.404   0.034  -0.021  0.00  0.00    +0.037 A 
ATOM     23  C   LIG    1        1.204  -0.681  -0.013  0.00  0.00    +0.013 A 
ATOM     24  C   LIG    1        0.002  -0.004   0.002  0.00  0.00    +0.001 A 
ENDBRANCH  15  22
ENDBRANCH   1  16
TORSDOF 3
