REMARK  Name = ZINC40974944
REMARK                            x       y       z     vdW  Elec       q    Type
REMARK                         _______ _______ _______ _____ _____    ______ ____
ROOT
ATOM      1  C   LIG    1        4.348  -1.119  -2.645  0.00  0.00    +0.250 C 
ATOM      2  N   LIG    1        5.056  -0.851  -1.530  0.00  0.00    -0.294 N 
ATOM      3  C   LIG    1        6.524  -0.910  -1.543  0.00  0.00    +0.127 C 
ATOM      4  C   LIG    1        7.074   0.435  -1.052  0.00  0.00    +0.124 C 
ATOM      5  N   LIG    1        6.391   0.792   0.199  0.00  0.00    -0.325 N 
ATOM      6  C   LIG    1        4.922   0.852   0.213  0.00  0.00    +0.124 C 
ATOM      7  C   LIG    1        4.373  -0.488  -0.280  0.00  0.00    +0.127 C 
ATOM      8  O   LIG    1        4.919  -1.492  -3.652  0.00  0.00    -0.270 OA
ENDROOT
BRANCH   5   9
ATOM      9  C   LIG    1        7.122   1.070   1.352  0.00  0.00    +0.066 A 
ATOM     10  C   LIG    1        7.526   2.374   1.621  0.00  0.00    +0.027 A 
ATOM     11  C   LIG    1        8.249   2.652   2.760  0.00  0.00    +0.021 A 
ATOM     12  C   LIG    1        8.577   1.623   3.647  0.00  0.00    +0.055 A 
ATOM     13  C   LIG    1        8.170   0.313   3.375  0.00  0.00    +0.059 A 
ATOM     14  C   LIG    1        7.443   0.042   2.236  0.00  0.00    +0.146 A 
ATOM     15  F   LIG    1        7.044  -1.222   1.975  0.00  0.00    -0.204 F 
BRANCH  12  16
ATOM     16  C   LIG    1        9.329   1.909   4.831  0.00  0.00    +0.099 C 
ATOM     17  N   LIG    1        9.925   2.137   5.771  0.00  0.00    -0.191 NA
ENDBRANCH  12  16
ENDBRANCH   5   9
BRANCH   1  22
ATOM     18  C   LIG    1        0.735  -1.472  -1.695  0.00  0.00    +0.089 A 
ATOM     19  C   LIG    1        0.124  -0.665  -2.641  0.00  0.00    +0.030 A 
ATOM     20  C   LIG    1        0.880  -0.005  -3.588  0.00  0.00    +0.048 A 
ATOM     21  C   LIG    1        2.260  -0.146  -3.599  0.00  0.00    +0.133 A 
ATOM     22  C   LIG    1        2.881  -0.961  -2.644  0.00  0.00    +0.080 A 
ATOM     23  C   LIG    1        2.105  -1.620  -1.687  0.00  0.00    +0.043 A 
BRANCH  18  25
ATOM     24  C   LIG    1       -0.360  -1.151   0.901  0.00  0.00    +0.200 C 
ATOM     25  S   LIG    1       -0.244  -2.308  -0.491  0.00  0.00    -0.006 S 
ATOM     26  O   LIG    1       -1.516  -2.466  -1.105  0.00  0.00    -0.170 OA
ATOM     27  O   LIG    1        0.527  -3.443  -0.121  0.00  0.00    -0.170 OA
ENDBRANCH  18  25
BRANCH  21  28
ATOM     28  O   LIG    1        3.004   0.502  -4.530  0.00  0.00    -0.491 OA
BRANCH  28  29
ATOM     29  C   LIG    1        2.301   1.315  -5.472  0.00  0.00    +0.232 C 
BRANCH  29  30
ATOM     30  C   LIG    1        3.300   1.960  -6.435  0.00  0.00    +0.027 C 
ATOM     31  C   LIG    1        3.410   3.485  -6.420  0.00  0.00    +0.007 C 
ATOM     32  C   LIG    1        2.733   2.779  -7.596  0.00  0.00    +0.007 C 
ENDBRANCH  29  30
ENDBRANCH  28  29
ENDBRANCH  21  28
ENDBRANCH   1  22
TORSDOF 7
