REMARK  Name = ZINC26817456
REMARK                            x       y       z     vdW  Elec       q    Type
REMARK                         _______ _______ _______ _____ _____    ______ ____
ROOT
ATOM      1  C   LIG    1        3.696  -0.685  -0.037  0.00  0.00    +0.116 A 
ATOM      2  N   LIG    1        3.857  -2.035  -0.148  0.00  0.00    -0.342 N 
ATOM      3  C   LIG    1        5.204  -2.281  -0.122  0.00  0.00    +0.048 A 
ATOM      4  C   LIG    1        5.821  -1.088   0.003  0.00  0.00    +0.106 A 
ATOM      5  H   LIG    1        3.152  -2.696  -0.230  0.00  0.00    +0.167 HD
ATOM      6  N   LIG    1        4.885  -0.132   0.046  0.00  0.00    -0.346 N 
ATOM      7  H   LIG    1        5.058   0.819   0.129  0.00  0.00    +0.167 HD
ENDROOT
BRANCH   1  11
ATOM      8  C   LIG    1       -0.017   1.379   0.010  0.00  0.00    +0.000 A 
ATOM      9  C   LIG    1        1.168   2.093   0.002  0.00  0.00    +0.001 A 
ATOM     10  C   LIG    1        2.377   1.429  -0.013  0.00  0.00    +0.011 A 
ATOM     11  C   LIG    1        2.403   0.034  -0.021  0.00  0.00    +0.015 A 
ATOM     12  C   LIG    1        1.204  -0.680  -0.013  0.00  0.00    +0.011 A 
ATOM     13  C   LIG    1        0.002  -0.004   0.002  0.00  0.00    +0.001 A 
ENDBRANCH   1  11
BRANCH   3  14
ATOM     14  C   LIG    1        5.871  -3.629  -0.214  0.00  0.00    +0.139 C 
BRANCH  14  15
ATOM     15  N   LIG    1        6.028  -4.002  -1.626  0.00  0.00    -0.294 NA
ATOM     16  C   LIG    1        4.721  -4.207  -2.264  0.00  0.00    +0.104 C 
ATOM     17  C   LIG    1        4.918  -4.415  -3.770  0.00  0.00    +0.123 C 
ATOM     18  N   LIG    1        5.885  -5.506  -3.967  0.00  0.00    -0.297 N 
ATOM     19  C   LIG    1        7.166  -5.439  -3.249  0.00  0.00    +0.123 C 
ATOM     20  C   LIG    1        6.880  -5.191  -1.765  0.00  0.00    +0.104 C 
BRANCH  18  21
ATOM     21  C   LIG    1        5.595  -6.568  -4.807  0.00  0.00    +0.218 A 
ATOM     22  N   LIG    1        4.433  -6.592  -5.442  0.00  0.00    -0.223 NA
ATOM     23  C   LIG    1        4.125  -7.591  -6.252  0.00  0.00    +0.116 A 
ATOM     24  C   LIG    1        5.037  -8.620  -6.432  0.00  0.00    +0.039 A 
ATOM     25  C   LIG    1        6.243  -8.564  -5.753  0.00  0.00    +0.116 A 
ATOM     26  N   LIG    1        6.490  -7.533  -4.961  0.00  0.00    -0.223 NA
ENDBRANCH  18  21
ENDBRANCH  14  15
ENDBRANCH   3  14
TORSDOF 4
