REMARK  Name = ZINC27880224
REMARK                            x       y       z     vdW  Elec       q    Type
REMARK                         _______ _______ _______ _____ _____    ______ ____
ROOT
ATOM      1  C   LIG    1       -0.118   4.205   0.025  0.00  0.00    +0.067 C 
ATOM      2  C   LIG    1       -0.638   4.356  -1.408  0.00  0.00    +0.003 C 
ATOM      3  C   LIG    1       -1.940   5.160  -1.391  0.00  0.00    -0.077 C 
ATOM      4  N   LIG    1       -1.694   6.480  -0.797  0.00  0.00    +0.380 N 
ATOM      5  H   LIG    1       -0.890   6.962  -1.371  0.00  0.00    -0.082 HD
ATOM      6  C   LIG    1       -1.241   6.361   0.595  0.00  0.00    -0.077 C 
ATOM      7  C   LIG    1        0.083   5.594   0.637  0.00  0.00    +0.003 C 
ENDROOT
BRANCH   1   8
ATOM      8  N   LIG    1        1.159   3.487   0.009  0.00  0.00    -0.338 N 
ATOM      9  H   LIG    1        2.105   4.048   0.003  0.00  0.00    +0.146 HD
BRANCH   8  15
ATOM     10  C   LIG    1        2.389   1.403  -0.014  0.00  0.00    +0.141 A 
ATOM     11  C   LIG    1        2.399   0.018  -0.021  0.00  0.00    +0.047 A 
ATOM     12  C   LIG    1        1.207  -0.682  -0.014  0.00  0.00    +0.004 A 
ATOM     13  C   LIG    1        0.002  -0.004   0.002  0.00  0.00    +0.002 A 
ATOM     14  C   LIG    1       -0.017   1.378   0.010  0.00  0.00    +0.026 A 
ATOM     15  C   LIG    1        1.175   2.087   0.002  0.00  0.00    +0.070 A 
BRANCH  10  17
ATOM     16  C   LIG    1        4.766   1.326  -0.038  0.00  0.00    +0.277 C 
ATOM     17  O   LIG    1        3.561   2.094  -0.022  0.00  0.00    -0.493 OA
ENDBRANCH  10  17
ENDBRANCH   8  15
ENDBRANCH   1   8
BRANCH   4  18
ATOM     18  C   LIG    1       -2.890   7.329  -0.889  0.00  0.00    -0.074 C 
BRANCH  18  19
ATOM     19  C   LIG    1       -3.477   7.231  -2.299  0.00  0.00    +0.016 C 
BRANCH  19  20
ATOM     20  C   LIG    1       -4.703   8.102  -2.394  0.00  0.00    -0.049 A 
ATOM     21  C   LIG    1       -5.947   7.579  -2.095  0.00  0.00    +0.003 A 
ATOM     22  C   LIG    1       -7.071   8.380  -2.178  0.00  0.00    +0.000 A 
ATOM     23  C   LIG    1       -6.952   9.700  -2.569  0.00  0.00    +0.000 A 
ATOM     24  C   LIG    1       -5.709  10.222  -2.873  0.00  0.00    +0.000 A 
ATOM     25  C   LIG    1       -4.584   9.423  -2.785  0.00  0.00    +0.003 A 
ENDBRANCH  19  20
ENDBRANCH  18  19
ENDBRANCH   4  18
TORSDOF 6
