REMARK  Name = ZINC14171803
REMARK                            x       y       z     vdW  Elec       q    Type
REMARK                         _______ _______ _______ _____ _____    ______ ____
ROOT
ATOM      1  C   LIG    1        2.237  -0.290   0.042  0.00  0.00    +0.217 C 
ATOM      2  N   LIG    1        2.421   1.045   0.068  0.00  0.00    -0.285 N 
ATOM      3  C   LIG    1        3.764   1.629   0.151  0.00  0.00    +0.144 C 
ATOM      4  C   LIG    1        3.882   2.773  -0.824  0.00  0.00    -0.027 A 
ATOM      5  C   LIG    1        5.146   3.299  -1.055  0.00  0.00    +0.005 A 
ATOM      6  C   LIG    1        5.315   4.362  -1.918  0.00  0.00    +0.000 A 
ATOM      7  C   LIG    1        4.217   4.906  -2.559  0.00  0.00    +0.000 A 
ATOM      8  C   LIG    1        2.962   4.380  -2.335  0.00  0.00    +0.004 A 
ATOM      9  C   LIG    1        2.789   3.307  -1.468  0.00  0.00    -0.040 A 
ATOM     10  C   LIG    1        1.391   2.778  -1.282  0.00  0.00    +0.067 C 
ATOM     11  C   LIG    1        1.282   1.976   0.014  0.00  0.00    +0.167 C 
ATOM     12  O   LIG    1        1.126  -0.746  -0.125  0.00  0.00    -0.276 OA
ENDROOT
BRANCH  11  13
ATOM     13  C   LIG    1       -0.011   1.201   0.026  0.00  0.00    +0.236 C 
ATOM     14  N   LIG    1       -0.572   0.845   1.198  0.00  0.00    -0.300 N 
ATOM     15  C   LIG    1       -0.083   1.223   2.533  0.00  0.00    +0.108 C 
ATOM     16  C   LIG    1       -1.023   0.569   3.567  0.00  0.00    +0.020 C 
ATOM     17  C   LIG    1       -1.647  -0.608   2.772  0.00  0.00    +0.020 C 
ATOM     18  C   LIG    1       -1.774   0.006   1.356  0.00  0.00    +0.108 C 
ATOM     19  O   LIG    1       -0.549   0.903  -1.019  0.00  0.00    -0.274 OA
ENDBRANCH  11  13
BRANCH   1  20
ATOM     20  C   LIG    1        3.412  -1.216   0.221  0.00  0.00    +0.099 C 
BRANCH  20  21
ATOM     21  C   LIG    1        2.933  -2.667   0.151  0.00  0.00    +0.050 C 
BRANCH  21  22
ATOM     22  C   LIG    1        4.127  -3.608   0.333  0.00  0.00    +0.229 C 
BRANCH  22  23
ATOM     23  O   LIG    1        3.679  -4.963   0.268  0.00  0.00    -0.492 OA
BRANCH  23  31
ATOM     24  C   LIG    1        2.815  -7.649   0.142  0.00  0.00    +0.047 C 
ATOM     25  C   LIG    1        4.257  -7.269   0.358  0.00  0.00    -0.007 A 
ATOM     26  C   LIG    1        5.217  -8.252   0.505  0.00  0.00    +0.027 A 
ATOM     27  C   LIG    1        6.541  -7.904   0.704  0.00  0.00    +0.041 A 
ATOM     28 CL   LIG    1        7.745  -9.141   0.888  0.00  0.00    -0.084 Cl
ATOM     29  C   LIG    1        6.907  -6.570   0.757  0.00  0.00    +0.023 A 
ATOM     30  C   LIG    1        5.951  -5.584   0.606  0.00  0.00    +0.047 A 
ATOM     31  C   LIG    1        4.622  -5.932   0.412  0.00  0.00    +0.123 A 
ENDBRANCH  23  31
ENDBRANCH  22  23
ENDBRANCH  21  22
ENDBRANCH  20  21
ENDBRANCH   1  20
TORSDOF 6
