REMARK  Name = ZINC25972840
REMARK                            x       y       z     vdW  Elec       q    Type
REMARK                         _______ _______ _______ _____ _____    ______ ____
ROOT
ATOM      1  C   LIG    1        0.704  -0.218   4.305  0.00  0.00    +0.100 C 
ATOM      2  C   LIG    1        1.433   0.919   4.246  0.00  0.00    +0.191 C 
ATOM      3  C   LIG    1        0.978   1.728   3.095  0.00  0.00    +0.282 C 
ATOM      4  N   LIG    1       -0.020   1.094   2.454  0.00  0.00    -0.290 N 
ATOM      5  O   LIG    1        1.438   2.807   2.775  0.00  0.00    -0.267 OA
ATOM      6  C   LIG    1       -0.278  -0.168   3.158  0.00  0.00    +0.154 C 
ENDROOT
BRANCH   1   7
ATOM      7  C   LIG    1        0.836  -1.290   5.296  0.00  0.00    +0.340 C 
ATOM      8  O   LIG    1        1.669  -1.204   6.177  0.00  0.00    -0.245 OA
BRANCH   7   9
ATOM      9  O   LIG    1        0.034  -2.372   5.230  0.00  0.00    -0.462 OA
BRANCH   9  11
ATOM     10  C   LIG    1       -0.771  -4.535   6.007  0.00  0.00    +0.048 C 
ATOM     11  C   LIG    1        0.221  -3.395   6.244  0.00  0.00    +0.229 C 
ENDBRANCH   9  11
ENDBRANCH   7   9
ENDBRANCH   1   7
BRANCH   2  12
ATOM     12  O   LIG    1        2.421   1.262   5.104  0.00  0.00    -0.502 OA
ATOM     13  H   LIG    1        2.648   0.690   5.810  0.00  0.00    +0.292 HD
ENDBRANCH   2  12
BRANCH   4  14
ATOM     14  C   LIG    1       -0.729   1.579   1.267  0.00  0.00    +0.113 C 
BRANCH  14  15
ATOM     15  C   LIG    1       -0.013   1.086   0.008  0.00  0.00    +0.054 C 
BRANCH  15  16
ATOM     16  C   LIG    1       -0.742   1.585  -1.213  0.00  0.00    -0.046 A 
ATOM     17  C   LIG    1       -1.750   0.825  -1.775  0.00  0.00    +0.004 A 
ATOM     18  C   LIG    1       -2.422   1.285  -2.892  0.00  0.00    +0.000 A 
ATOM     19  C   LIG    1       -2.079   2.501  -3.453  0.00  0.00    +0.000 A 
ATOM     20  C   LIG    1       -1.066   3.259  -2.894  0.00  0.00    +0.000 A 
ATOM     21  C   LIG    1       -0.398   2.801  -1.774  0.00  0.00    +0.004 A 
ENDBRANCH  15  16
ENDBRANCH  14  15
ENDBRANCH   4  14
TORSDOF 7
