REMARK  Name = ZINC27195404
REMARK                            x       y       z     vdW  Elec       q    Type
REMARK                         _______ _______ _______ _____ _____    ______ ____
ROOT
ATOM      1  C   LIG    1       -3.629   1.774   0.029  0.00  0.00    +0.001 A 
ATOM      2  C   LIG    1       -3.630   3.168   0.037  0.00  0.00    +0.001 A 
ATOM      3  C   LIG    1       -2.463   3.869   0.044  0.00  0.00    +0.012 A 
ATOM      4  C   LIG    1       -1.239   3.181   0.030  0.00  0.00    +0.024 A 
ATOM      5  C   LIG    1       -1.238   1.764   0.018  0.00  0.00    -0.014 A 
ATOM      6  C   LIG    1       -0.013   1.076   0.008  0.00  0.00    +0.009 A 
ATOM      7  C   LIG    1        1.156   1.775   0.001  0.00  0.00    +0.008 A 
ATOM      8  C   LIG    1        1.160   3.167   0.007  0.00  0.00    -0.001 A 
ATOM      9  C   LIG    1       -0.010   3.873   0.022  0.00  0.00    +0.128 A 
ATOM     10  C   LIG    1       -2.462   1.074   0.020  0.00  0.00    +0.008 A 
ENDROOT
BRANCH   9  11
ATOM     11  O   LIG    1        0.010   5.230   0.029  0.00  0.00    -0.506 OA
ATOM     12  H   LIG    1        0.971   5.766   0.023  0.00  0.00    +0.292 HD
ENDBRANCH   9  11
BRANCH   8  13
ATOM     13  C   LIG    1        2.473   3.906  -0.001  0.00  0.00    +0.074 C 
BRANCH  13  14
ATOM     14  C   LIG    1        2.863   4.253   1.413  0.00  0.00    -0.043 A 
ATOM     15  C   LIG    1        2.460   5.455   1.965  0.00  0.00    +0.007 A 
ATOM     16  C   LIG    1        2.813   5.772   3.263  0.00  0.00    +0.038 A 
ATOM     17  C   LIG    1        3.579   4.891   4.007  0.00  0.00    +0.123 A 
ATOM     18  F   LIG    1        3.928   5.202   5.275  0.00  0.00    -0.205 F 
ATOM     19  C   LIG    1        3.986   3.690   3.451  0.00  0.00    +0.038 A 
ATOM     20  C   LIG    1        3.627   3.372   2.155  0.00  0.00    +0.007 A 
ENDBRANCH  13  14
ENDBRANCH   8  13
TORSDOF 3
