REMARK  Name = ZINC26740955
REMARK                            x       y       z     vdW  Elec       q    Type
REMARK                         _______ _______ _______ _____ _____    ______ ____
ROOT
ATOM      1  C   LIG    1        2.077  -2.653  -1.216  0.00  0.00    +0.222 C 
ENDROOT
BRANCH   1   2
ATOM      2  P   LIG    1        1.243  -2.179  -2.766  0.00  0.00    +0.343 P 
ATOM      3  O   LIG    1        1.104  -0.641  -2.826  0.00  0.00    -0.258 OA
BRANCH   2   4
ATOM      4  O   LIG    1       -0.219  -2.852  -2.816  0.00  0.00    -0.323 OA
ATOM      5  H   LIG    1       -0.721  -2.642  -3.616  0.00  0.00    +0.220 HD
ENDBRANCH   2   4
BRANCH   2   6
ATOM      6  O   LIG    1        2.077  -2.668  -3.970  0.00  0.00    -0.323 OA
ATOM      7  H   LIG    1        2.958  -2.262  -3.940  0.00  0.00    +0.220 HD
ENDBRANCH   2   6
ENDBRANCH   1   2
BRANCH   1   8
ATOM      8  P   LIG    1        2.241  -4.467  -1.144  0.00  0.00    +0.343 P 
ATOM      9  O   LIG    1        0.838  -5.113  -1.193  0.00  0.00    -0.258 OA
BRANCH   8  10
ATOM     10  O   LIG    1        2.948  -4.869   0.169  0.00  0.00    -0.323 OA
ATOM     11  H   LIG    1        2.424  -4.561   0.926  0.00  0.00    +0.220 HD
ENDBRANCH   8  10
BRANCH   8  12
ATOM     12  O   LIG    1        3.110  -4.977  -2.400  0.00  0.00    -0.323 OA
ATOM     13  H   LIG    1        3.238  -5.935  -2.426  0.00  0.00    +0.220 HD
ENDBRANCH   8  12
ENDBRANCH   1   8
BRANCH   1  14
ATOM     14  C   LIG    1        1.250  -2.168  -0.023  0.00  0.00    +0.083 C 
BRANCH  14  19
ATOM     15  C   LIG    1       -0.017   1.382   0.010  0.00  0.00    +0.003 A 
ATOM     16  C   LIG    1        1.194   2.059   0.002  0.00  0.00    +0.020 A 
ATOM     17  C   LIG    1        2.370   1.334  -0.013  0.00  0.00    +0.111 A 
ATOM     18  N   LIG    1        2.350   0.015  -0.021  0.00  0.00    -0.260 NA
ATOM     19  C   LIG    1        1.218  -0.661  -0.014  0.00  0.00    +0.043 A 
ATOM     20  C   LIG    1        0.002  -0.004   0.002  0.00  0.00    +0.023 A 
ENDBRANCH  14  19
ENDBRANCH   1  14
TORSDOF 8
