REMARK  Name = ZINC13779554
REMARK                            x       y       z     vdW  Elec       q    Type
REMARK                         _______ _______ _______ _____ _____    ______ ____
ROOT
ATOM      1  C   LIG    1       -0.129  -0.136  -0.169  0.00  0.00    +0.011 C 
ATOM      2  C   LIG    1       -0.118   1.392  -0.088  0.00  0.00    -0.034 C 
ATOM      3  C   LIG    1        1.327   1.889  -0.011  0.00  0.00    +0.011 C 
ATOM      4  C   LIG    1       -0.880   1.842   1.160  0.00  0.00    +0.006 C 
ATOM      5  C   LIG    1       -2.325   1.346   1.082  0.00  0.00    +0.001 C 
ATOM      6  C   LIG    1       -2.998   1.927  -0.164  0.00  0.00    +0.005 C 
ATOM      7  C   LIG    1       -2.236   1.476  -1.412  0.00  0.00    -0.034 C 
ATOM      8  C   LIG    1       -0.791   1.973  -1.334  0.00  0.00    +0.012 C 
ENDROOT
BRANCH   7   9
ATOM      9  C   LIG    1       -2.909   2.057  -2.657  0.00  0.00    -0.079 C 
BRANCH   9  10
ATOM     10  N   LIG    1       -4.338   1.697  -2.645  0.00  0.00    +0.378 N 
ATOM     11  H   LIG    1       -4.798   2.171  -1.859  0.00  0.00    -0.090 HD
ATOM     12  H   LIG    1       -4.443   0.690  -2.535  0.00  0.00    -0.090 HD
ATOM     13  H   LIG    1       -4.779   1.991  -3.515  0.00  0.00    -0.090 HD
ENDBRANCH   9  10
ENDBRANCH   7   9
BRANCH   7  14
ATOM     14  C   LIG    1       -2.247  -0.052  -1.492  0.00  0.00    +0.125 C 
BRANCH  14  15
ATOM     15  C   LIG    1       -1.405  -0.499  -2.659  0.00  0.00    +0.305 C 
ATOM     16  O   LIG    1       -0.953   0.318  -3.426  0.00  0.00    -0.251 OA
BRANCH  15  17
ATOM     17  O   LIG    1       -1.157  -1.805  -2.846  0.00  0.00    -0.481 OA
ATOM     18  H   LIG    1       -1.507  -2.438  -2.251  0.00  0.00    +0.295 HD
ENDBRANCH  15  17
ENDBRANCH  14  15
ENDBRANCH   7  14
TORSDOF 5
