REMARK  Name = ZINC13802774
REMARK                            x       y       z     vdW  Elec       q    Type
REMARK                         _______ _______ _______ _____ _____    ______ ____
ROOT
ATOM      1  C   LIG    1       -0.262   7.017   3.765  0.00  0.00    +0.002 A 
ATOM      2  C   LIG    1       -0.866   6.388   4.845  0.00  0.00    +0.001 A 
ATOM      3  C   LIG    1       -1.381   5.115   4.689  0.00  0.00    +0.017 A 
ATOM      4  C   LIG    1       -1.284   4.495   3.467  0.00  0.00    +0.039 A 
ATOM      5  C   LIG    1       -0.674   5.110   2.350  0.00  0.00    +0.078 A 
ATOM      6  N   LIG    1       -0.667   4.357   1.231  0.00  0.00    -0.244 NA
ATOM      7  C   LIG    1       -1.182   3.160   1.189  0.00  0.00    +0.085 A 
ATOM      8  S   LIG    1       -1.782   2.926   2.801  0.00  0.00    -0.072 S 
ATOM      9  C   LIG    1       -0.162   6.411   2.552  0.00  0.00    +0.029 A 
ENDROOT
BRANCH   7  10
ATOM     10  C   LIG    1       -1.247   2.211   0.020  0.00  0.00    +0.117 C 
BRANCH  10  11
ATOM     11  C   LIG    1       -0.016   1.343   0.009  0.00  0.00    +0.039 A 
ATOM     12  N   LIG    1        1.253   1.773  -0.000  0.00  0.00    -0.349 N 
ATOM     13  H   LIG    1        1.546   2.757   0.002  0.00  0.00    +0.166 HD
ATOM     14  C   LIG    1        2.058   0.747  -0.014  0.00  0.00    +0.171 A 
ATOM     15  N   LIG    1        1.317  -0.382  -0.013  0.00  0.00    -0.352 N 
ATOM     16  H   LIG    1        1.665  -1.320  -0.021  0.00  0.00    +0.166 HD
ATOM     17  C   LIG    1        0.002  -0.004   0.002  0.00  0.00    +0.105 A 
ENDBRANCH  10  11
ENDBRANCH   7  10
TORSDOF 2
