REMARK  Name = ZINC34399436
REMARK                            x       y       z     vdW  Elec       q    Type
REMARK                         _______ _______ _______ _____ _____    ______ ____
ROOT
ATOM      1  C   LIG    1        2.143  -4.942  -3.696  0.00  0.00    +0.173 C 
ATOM      2  O   LIG    1        2.639  -4.286  -4.588  0.00  0.00    -0.291 OA
ENDROOT
BRANCH   1   3
ATOM      3  C   LIG    1        2.188  -6.409  -3.751  0.00  0.00    +0.018 A 
ATOM      4  C   LIG    1        1.611  -7.168  -2.725  0.00  0.00    +0.015 A 
ATOM      5  C   LIG    1        1.656  -8.537  -2.781  0.00  0.00    +0.046 A 
ATOM      6  C   LIG    1        2.274  -9.172  -3.852  0.00  0.00    +0.120 A 
ATOM      7  C   LIG    1        2.850  -8.423  -4.873  0.00  0.00    +0.046 A 
ATOM      8  C   LIG    1        2.805  -7.053  -4.830  0.00  0.00    +0.015 A 
BRANCH   6   9
ATOM      9  O   LIG    1        2.317 -10.527  -3.902  0.00  0.00    -0.495 OA
ATOM     10  C   LIG    1        2.967 -11.115  -5.031  0.00  0.00    +0.277 C 
ENDBRANCH   6   9
ENDBRANCH   1   3
BRANCH   1  11
ATOM     11  C   LIG    1        1.478  -4.251  -2.533  0.00  0.00    +0.157 C 
BRANCH  11  12
ATOM     12  S   LIG    1        1.586  -2.454  -2.756  0.00  0.00    -0.073 S 
BRANCH  12  13
ATOM     13  C   LIG    1        0.776  -1.799  -1.335  0.00  0.00    +0.201 C 
ATOM     14  S   LIG    1        0.122  -2.857  -0.158  0.00  0.00    -0.004 S 
BRANCH  13  15
ATOM     15  O   LIG    1        0.671  -0.465  -1.174  0.00  0.00    -0.480 OA
BRANCH  15  17
ATOM     16  C   LIG    1       -0.019   1.526   0.010  0.00  0.00    +0.048 C 
ATOM     17  C   LIG    1        0.002  -0.004   0.002  0.00  0.00    +0.227 C 
ENDBRANCH  15  17
ENDBRANCH  13  15
ENDBRANCH  12  13
ENDBRANCH  11  12
ENDBRANCH   1  11
TORSDOF 7
