REMARK  Name = ZINC19228902
REMARK                            x       y       z     vdW  Elec       q    Type
REMARK                         _______ _______ _______ _____ _____    ______ ____
ROOT
ATOM      1  C   LIG    1        3.444  -4.977   0.039  0.00  0.00    +0.002 A 
ATOM      2  C   LIG    1        4.386  -4.577   0.967  0.00  0.00    +0.001 A 
ATOM      3  C   LIG    1        4.279  -3.336   1.568  0.00  0.00    +0.017 A 
ATOM      4  C   LIG    1        3.226  -2.492   1.242  0.00  0.00    +0.034 A 
ATOM      5  C   LIG    1        2.273  -2.893   0.311  0.00  0.00    +0.048 A 
ATOM      6  N   LIG    1        1.195  -2.083  -0.034  0.00  0.00    -0.298 N 
ATOM      7  C   LIG    1        1.171  -0.696   0.086  0.00  0.00    +0.049 A 
ATOM      8  C   LIG    1        0.302   0.033  -0.720  0.00  0.00    +0.044 A 
ATOM      9  C   LIG    1        0.249   1.411  -0.623  0.00  0.00    +0.043 A 
ATOM     10 CL   LIG    1       -0.838   2.309  -1.635  0.00  0.00    -0.083 Cl
ATOM     11  C   LIG    1        1.061   2.077   0.278  0.00  0.00    +0.021 A 
ATOM     12  C   LIG    1        1.929   1.362   1.083  0.00  0.00    +0.018 A 
ATOM     13  C   LIG    1        1.989  -0.021   0.988  0.00  0.00    +0.034 A 
ATOM     14  S   LIG    1        3.109  -0.913   2.014  0.00  0.00    -0.086 S 
ATOM     15  C   LIG    1        2.393  -4.142  -0.290  0.00  0.00    +0.024 A 
ENDROOT
BRANCH   6  16
ATOM     16  C   LIG    1       -0.004  -2.738  -0.563  0.00  0.00    +0.109 C 
BRANCH  16  17
ATOM     17  C   LIG    1        0.101  -2.842  -2.086  0.00  0.00    +0.001 C 
BRANCH  17  18
ATOM     18  C   LIG    1       -1.151  -3.526  -2.638  0.00  0.00    -0.077 C 
BRANCH  18  19
ATOM     19  N   LIG    1       -1.051  -3.626  -4.100  0.00  0.00    +0.381 N 
ATOM     20  H   LIG    1       -0.193  -4.097  -4.346  0.00  0.00    -0.082 HD
ATOM     21  C   LIG    1       -1.053  -2.278  -4.684  0.00  0.00    -0.063 C 
ATOM     22  C   LIG    1       -0.929  -2.381  -6.205  0.00  0.00    +0.066 C 
ATOM     23  N   LIG    1       -2.054  -3.164  -6.734  0.00  0.00    -0.304 NA
ATOM     24  C   LIG    1       -2.080  -4.508  -6.140  0.00  0.00    +0.066 C 
ATOM     25  C   LIG    1       -2.194  -4.388  -4.618  0.00  0.00    -0.063 C 
BRANCH  23  26
ATOM     26  C   LIG    1       -2.002  -3.238  -8.200  0.00  0.00    +0.112 C 
BRANCH  26  27
ATOM     27  C   LIG    1       -3.307  -3.839  -8.728  0.00  0.00    +0.171 C 
BRANCH  27  28
ATOM     28  O   LIG    1       -4.391  -2.957  -8.432  0.00  0.00    -0.394 OA
ATOM     29  H   LIG    1       -5.252  -3.275  -8.738  0.00  0.00    +0.209 HD
ENDBRANCH  27  28
ENDBRANCH  26  27
ENDBRANCH  23  26
ENDBRANCH  18  19
ENDBRANCH  17  18
ENDBRANCH  16  17
ENDBRANCH   6  16
TORSDOF 7
