REMARK  Name = ZINC28713699
REMARK                            x       y       z     vdW  Elec       q    Type
REMARK                         _______ _______ _______ _____ _____    ______ ____
ROOT
ATOM      1  C   LIG    1       -2.454   0.869   0.018  0.00  0.00    +0.061 A 
ATOM      2  C   LIG    1       -2.442  -0.520  -0.100  0.00  0.00    +0.015 A 
ATOM      3  C   LIG    1       -3.625  -1.235  -0.091  0.00  0.00    +0.002 A 
ATOM      4  C   LIG    1       -4.836  -0.584   0.020  0.00  0.00    +0.014 A 
ATOM      5  C   LIG    1       -4.873   0.807   0.133  0.00  0.00    +0.046 A 
ATOM      6  C   LIG    1       -6.161   1.517   0.254  0.00  0.00    +0.197 A 
ATOM      7  O   LIG    1       -7.218   0.913   0.258  0.00  0.00    -0.287 OA
ATOM      8  C   LIG    1       -6.119   2.984   0.370  0.00  0.00    +0.046 A 
ATOM      9  C   LIG    1       -7.298   3.725   0.486  0.00  0.00    +0.017 A 
ATOM     10  C   LIG    1       -7.239   5.085   0.592  0.00  0.00    +0.046 A 
ATOM     11  C   LIG    1       -6.008   5.739   0.583  0.00  0.00    +0.122 A 
ATOM     12  C   LIG    1       -4.830   5.021   0.469  0.00  0.00    +0.072 A 
ATOM     13  C   LIG    1       -4.872   3.635   0.360  0.00  0.00    +0.054 A 
ATOM     14  N   LIG    1       -3.701   2.916   0.245  0.00  0.00    -0.353 N 
ATOM     15  H   LIG    1       -2.757   3.481   0.243  0.00  0.00    +0.166 HD
ATOM     16  C   LIG    1       -3.681   1.548   0.134  0.00  0.00    +0.063 A 
ENDROOT
BRANCH   1  19
ATOM     17  N   LIG    1       -0.011   0.966   0.023  0.00  0.00    -0.311 N 
ATOM     18  H   LIG    1        0.004  -0.134   0.034  0.00  0.00    +0.149 HD
ATOM     19  C   LIG    1       -1.187   1.624   0.017  0.00  0.00    +0.246 C 
ATOM     20  O   LIG    1       -1.204   2.840   0.009  0.00  0.00    -0.270 OA
BRANCH  17  21
ATOM     21  C   LIG    1        1.248   1.716   0.015  0.00  0.00    +0.109 C 
BRANCH  21  22
ATOM     22  C   LIG    1        2.424   0.737   0.018  0.00  0.00    +0.054 C 
BRANCH  22  26
ATOM     23  C   LIG    1        6.095   2.924  -0.006  0.00  0.00    +0.120 A 
ATOM     24  C   LIG    1        5.502   2.575   1.199  0.00  0.00    +0.046 A 
ATOM     25  C   LIG    1        4.315   1.869   1.204  0.00  0.00    +0.007 A 
ATOM     26  C   LIG    1        3.719   1.508   0.009  0.00  0.00    -0.046 A 
ATOM     27  C   LIG    1        4.311   1.849  -1.192  0.00  0.00    +0.007 A 
ATOM     28  C   LIG    1        5.495   2.561  -1.203  0.00  0.00    +0.046 A 
BRANCH  23  30
ATOM     29  C   LIG    1        7.817   3.944  -1.290  0.00  0.00    +0.277 C 
ATOM     30  O   LIG    1        7.263   3.619  -0.013  0.00  0.00    -0.495 OA
ENDBRANCH  23  30
ENDBRANCH  22  26
ENDBRANCH  21  22
ENDBRANCH  17  21
ENDBRANCH   1  19
BRANCH  11  31
ATOM     31  O   LIG    1       -5.964   7.091   0.689  0.00  0.00    -0.495 OA
ATOM     32  C   LIG    1       -7.214   7.774   0.804  0.00  0.00    +0.277 C 
ENDBRANCH  11  31
TORSDOF 6
