REMARK  Name = ZINC26378421
REMARK                            x       y       z     vdW  Elec       q    Type
REMARK                         _______ _______ _______ _____ _____    ______ ____
ROOT
ATOM      1  C   LIG    1       -0.019   1.526   0.010  0.00  0.00    +0.073 C 
ENDROOT
BRANCH   1   2
ATOM      2  C   LIG    1       -0.748   2.025  -1.210  0.00  0.00    +0.158 A 
ATOM      3  O   LIG    1       -0.192   2.307  -2.400  0.00  0.00    -0.355 OA
ATOM      4  N   LIG    1       -1.219   2.743  -3.271  0.00  0.00    -0.038 NA
ATOM      5  C   LIG    1       -2.345   2.723  -2.606  0.00  0.00    +0.271 A 
ATOM      6  C   LIG    1       -2.067   2.271  -1.297  0.00  0.00    +0.145 A 
ATOM      7 CL   LIG    1       -3.228   2.068  -0.021  0.00  0.00    -0.074 Cl
BRANCH   5   8
ATOM      8  O   LIG    1       -3.564   3.074  -3.088  0.00  0.00    -0.489 OA
ATOM      9  H   LIG    1       -3.779   4.009  -2.969  0.00  0.00    +0.294 HD
ENDBRANCH   5   8
ENDBRANCH   1   2
BRANCH   1  10
ATOM     10  CA  LIG    1        0.002  -0.004   0.002  0.00  0.00    +0.043 C 
BRANCH  10  11
ATOM     11  N   LIG    1        0.792  -0.477  -1.143  0.00  0.00    +0.387 N 
ATOM     12  H1  LIG    1        0.806  -1.486  -1.148  0.00  0.00    -0.089 HD
ATOM     13  H2  LIG    1        1.736  -0.128  -1.067  0.00  0.00    -0.089 HD
ATOM     14  H3  LIG    1        0.377  -0.141  -1.999  0.00  0.00    -0.089 HD
ENDBRANCH  10  11
BRANCH  10  15
ATOM     15  C   LIG    1        0.622  -0.505   1.281  0.00  0.00    +0.290 C 
ATOM     16  O   LIG    1        0.024  -0.382   2.337  0.00  0.00    -0.253 OA
BRANCH  15  17
ATOM     17  OXT LIG    1        1.720  -1.034   1.260  0.00  0.00    -0.482 OA
ATOM     18  HXT LIG    1        2.179  -1.129   0.449  0.00  0.00    +0.295 HD
ENDBRANCH  15  17
ENDBRANCH  10  15
ENDBRANCH   1  10
TORSDOF 6
