REMARK  Name = ZINC68815599
REMARK                            x       y       z     vdW  Elec       q    Type
REMARK                         _______ _______ _______ _____ _____    ______ ____
ROOT
ATOM      1  S   LIG    1        1.897  -6.434  -3.235  0.00  0.00    -0.080 S 
ENDROOT
BRANCH   1   2
ATOM      2  C   LIG    1        2.677  -7.230  -4.600  0.00  0.00    +0.171 A 
ATOM      3  N   LIG    1        2.712  -8.589  -4.649  0.00  0.00    -0.338 N 
ATOM      4  H   LIG    1        2.311  -9.108  -3.935  0.00  0.00    +0.167 HD
ATOM      5  C   LIG    1        3.311  -9.226  -5.698  0.00  0.00    +0.020 A 
ATOM      6  C   LIG    1        3.350 -10.732  -5.752  0.00  0.00    +0.063 C 
ATOM      7  C   LIG    1        3.867  -8.494  -6.686  0.00  0.00    +0.093 A 
ATOM      8  C   LIG    1        3.813  -7.078  -6.605  0.00  0.00    +0.274 A 
ATOM      9  O   LIG    1        4.309  -6.393  -7.486  0.00  0.00    -0.266 OA
ATOM     10  N   LIG    1        3.210  -6.499  -5.558  0.00  0.00    -0.185 NA
ENDBRANCH   1   2
BRANCH   1  11
ATOM     11  C   LIG    1        2.082  -4.665  -3.594  0.00  0.00    +0.152 C 
BRANCH  11  12
ATOM     12  C   LIG    1        1.450  -3.859  -2.489  0.00  0.00    +0.154 C 
ATOM     13  O   LIG    1        0.928  -4.420  -1.556  0.00  0.00    -0.296 OA
BRANCH  12  14
ATOM     14  C   LIG    1        1.468  -2.353  -2.550  0.00  0.00    +0.195 C 
BRANCH  14  15
ATOM     15  C   LIG    1        0.775  -1.794  -1.334  0.00  0.00    +0.314 C 
ATOM     16  O   LIG    1        0.314  -2.540  -0.504  0.00  0.00    -0.250 OA
BRANCH  15  17
ATOM     17  O   LIG    1        0.671  -0.465  -1.174  0.00  0.00    -0.465 OA
BRANCH  17  19
ATOM     18  C   LIG    1       -0.019   1.526   0.010  0.00  0.00    +0.048 C 
ATOM     19  C   LIG    1        0.002  -0.004   0.002  0.00  0.00    +0.229 C 
ENDBRANCH  17  19
ENDBRANCH  15  17
ENDBRANCH  14  15
ENDBRANCH  12  14
ENDBRANCH  11  12
ENDBRANCH   1  11
TORSDOF 7
