REMARK  Name = ZINC13952160
REMARK                            x       y       z     vdW  Elec       q    Type
REMARK                         _______ _______ _______ _____ _____    ______ ____
ROOT
ATOM      1  C   LIG    1       -1.221   1.761   0.017  0.00  0.00    +0.005 A 
ATOM      2  C   LIG    1       -0.013   1.076   0.008  0.00  0.00    +0.020 A 
ATOM      3  C   LIG    1        1.169   1.789   0.001  0.00  0.00    +0.113 A 
ATOM      4  N   LIG    1        1.163   3.109   0.007  0.00  0.00    -0.241 NA
ATOM      5  C   LIG    1        0.033   3.798   0.021  0.00  0.00    +0.116 A 
ATOM      6  C   LIG    1       -1.195   3.144   0.029  0.00  0.00    +0.043 A 
ENDROOT
BRANCH   5   7
ATOM      7  N   LIG    1        0.073   5.187   0.028  0.00  0.00    -0.343 N 
ATOM      8  H   LIG    1       -0.753   5.696   0.039  0.00  0.00    +0.144 HD
ATOM      9  H   LIG    1        0.927   5.648   0.023  0.00  0.00    +0.144 HD
ENDBRANCH   5   7
TORSDOF 1
