REMARK  Name = ZINC14773836
REMARK                            x       y       z     vdW  Elec       q    Type
REMARK                         _______ _______ _______ _____ _____    ______ ____
ROOT
ATOM      1  C   LIG    1        0.737   9.810   4.325  0.00  0.00    +0.000 C 
ENDROOT
BRANCH   1   2
ATOM      2  C   LIG    1        0.763  10.296   5.776  0.00  0.00    +0.004 C 
BRANCH   2   3
ATOM      3  C   LIG    1        1.015  11.805   5.804  0.00  0.00    +0.027 C 
BRANCH   3   4
ATOM      4  C   LIG    1        1.041  12.283   7.233  0.00  0.00    -0.031 C 
ATOM      5  C   LIG    1        2.054  12.989   7.669  0.00  0.00    -0.031 C 
BRANCH   5   6
ATOM      6  C   LIG    1        3.109  13.468   6.705  0.00  0.00    +0.027 C 
BRANCH   6   7
ATOM      7  C   LIG    1        3.280  14.982   6.846  0.00  0.00    +0.009 C 
BRANCH   7   8
ATOM      8  C   LIG    1        4.351  15.468   5.867  0.00  0.00    +0.035 C 
BRANCH   8   9
ATOM      9  C   LIG    1        4.519  16.959   6.007  0.00  0.00    -0.040 A 
ATOM     10  C   LIG    1        3.752  17.814   5.240  0.00  0.00    +0.049 A 
ATOM     11  C   LIG    1        3.905  19.188   5.366  0.00  0.00    +0.121 A 
ATOM     12  C   LIG    1        4.829  19.701   6.262  0.00  0.00    +0.090 A 
ATOM     13  C   LIG    1        5.598  18.841   7.031  0.00  0.00    +0.121 A 
ATOM     14  C   LIG    1        5.437  17.469   6.905  0.00  0.00    +0.049 A 
BRANCH  13  15
ATOM     15  O   LIG    1        6.505  19.342   7.910  0.00  0.00    -0.507 OA
ATOM     16  H   LIG    1        6.149  19.498   8.796  0.00  0.00    +0.292 HD
ENDBRANCH  13  15
BRANCH  11  17
ATOM     17  O   LIG    1        3.149  20.028   4.611  0.00  0.00    -0.507 OA
ATOM     18  H   LIG    1        2.312  20.282   5.023  0.00  0.00    +0.292 HD
ENDBRANCH  11  17
ENDBRANCH   8   9
ENDBRANCH   7   8
ENDBRANCH   6   7
ENDBRANCH   5   6
ENDBRANCH   3   4
ENDBRANCH   2   3
ENDBRANCH   1   2
BRANCH   1  19
ATOM     19  C   LIG    1        0.485   8.302   4.297  0.00  0.00    +0.000 C 
BRANCH  19  20
ATOM     20  C   LIG    1        0.459   7.816   2.846  0.00  0.00    +0.000 C 
BRANCH  20  21
ATOM     21  C   LIG    1        0.207   6.307   2.818  0.00  0.00    +0.000 C 
BRANCH  21  22
ATOM     22  C   LIG    1        0.181   5.821   1.367  0.00  0.00    +0.000 C 
BRANCH  22  23
ATOM     23  C   LIG    1       -0.071   4.313   1.339  0.00  0.00    +0.005 C 
BRANCH  23  24
ATOM     24  C   LIG    1       -0.098   3.827  -0.112  0.00  0.00    +0.035 C 
BRANCH  24  26
ATOM     25  C   LIG    1       -1.639   1.858  -0.197  0.00  0.00    +0.049 A 
ATOM     26  C   LIG    1       -0.345   2.341  -0.139  0.00  0.00    -0.040 A 
ATOM     27  C   LIG    1        0.721   1.463  -0.108  0.00  0.00    +0.049 A 
ATOM     28  C   LIG    1        0.495   0.094  -0.134  0.00  0.00    +0.121 A 
ATOM     29  C   LIG    1       -0.801  -0.393  -0.192  0.00  0.00    +0.090 A 
ATOM     30  C   LIG    1       -1.870   0.490  -0.223  0.00  0.00    +0.121 A 
BRANCH  30  31
ATOM     31  O   LIG    1       -3.142   0.016  -0.279  0.00  0.00    -0.507 OA
ATOM     32  H   LIG    1       -3.476  -0.110  -1.178  0.00  0.00    +0.292 HD
ENDBRANCH  30  31
BRANCH  28  33
ATOM     33  O   LIG    1        1.545  -0.769  -0.104  0.00  0.00    -0.507 OA
ATOM     34  H   LIG    1        1.814  -1.030   0.787  0.00  0.00    +0.292 HD
ENDBRANCH  28  33
ENDBRANCH  24  26
ENDBRANCH  23  24
ENDBRANCH  22  23
ENDBRANCH  21  22
ENDBRANCH  20  21
ENDBRANCH  19  20
ENDBRANCH   1  19
TORSDOF 18
