REMARK  Name = ZINC13818055
REMARK                            x       y       z     vdW  Elec       q    Type
REMARK                         _______ _______ _______ _____ _____    ______ ____
ROOT
ATOM      1  C   LIG    1       -0.018   1.503   0.010  0.00  0.00    +0.009 C 
ATOM      2  C   LIG    1        0.002  -0.004   0.002  0.00  0.00    +0.000 C 
ATOM      3  C   LIG    1        0.006  -0.682  -1.185  0.00  0.00    +0.009 C 
ATOM      4  C   LIG    1        0.025  -2.088  -1.146  0.00  0.00    +0.008 C 
ATOM      5  C   LIG    1        0.033  -2.853  -2.325  0.00  0.00    +0.006 C 
ATOM      6  C   LIG    1        0.035  -4.206  -2.257  0.00  0.00    +0.010 C 
ATOM      7  C   LIG    1        0.027  -4.882  -1.019  0.00  0.00    +0.041 C 
ATOM      8  C   LIG    1        0.052  -4.153   0.159  0.00  0.00    +0.101 C 
ATOM      9  N   LIG    1        0.117  -4.767   1.413  0.00  0.00    -0.185 NA
ATOM     10  H   LIG    1       -0.301  -4.126   2.087  0.00  0.00    +0.148 HD
ATOM     11  S   LIG    1       -0.635  -6.241   1.598  0.00  0.00    +0.059 S 
ATOM     12  C   LIG    1       -0.276  -7.108   0.100  0.00  0.00    +0.109 A 
ATOM     13  C   LIG    1       -0.279  -8.482   0.066  0.00  0.00    +0.029 A 
ATOM     14  C   LIG    1       -0.002  -9.140  -1.122  0.00  0.00    +0.002 A 
ATOM     15  C   LIG    1        0.274  -8.415  -2.267  0.00  0.00    +0.000 A 
ATOM     16  C   LIG    1        0.282  -7.036  -2.237  0.00  0.00    +0.006 A 
ATOM     17  O   LIG    1       -2.034  -5.996   1.614  0.00  0.00    -0.153 OA
ATOM     18  O   LIG    1        0.039  -6.924   2.646  0.00  0.00    -0.153 OA
ATOM     19  C   LIG    1        0.008  -6.364  -1.043  0.00  0.00    -0.016 A 
ATOM     20  C   LIG    1        0.038  -2.740   0.111  0.00  0.00    +0.076 C 
ATOM     21  N   LIG    1        0.035  -2.018   1.235  0.00  0.00    -0.311 NA
ATOM     22  H   LIG    1        0.045  -2.473   2.092  0.00  0.00    +0.122 HD
ATOM     23  C   LIG    1        0.023  -0.708   1.204  0.00  0.00    +0.084 C 
ENDROOT
TORSDOF 0
