REMARK  Name = ZINC13834534
REMARK                            x       y       z     vdW  Elec       q    Type
REMARK                         _______ _______ _______ _____ _____    ______ ____
ROOT
ATOM      1  C   LIG    1        1.175   1.781   0.000  0.00  0.00    +0.003 A 
ATOM      2  C   LIG    1        1.174   3.164   0.007  0.00  0.00    +0.015 A 
ATOM      3  C   LIG    1       -0.028   3.866   0.023  0.00  0.00    +0.064 A 
ATOM      4  C   LIG    1       -1.247   3.156   0.030  0.00  0.00    +0.101 A 
ATOM      5  C   LIG    1       -1.224   1.751   0.017  0.00  0.00    +0.067 A 
ATOM      6  N   LIG    1       -2.546   1.351   0.033  0.00  0.00    -0.344 N 
ATOM      7  C   LIG    1       -3.306   2.477   0.046  0.00  0.00    +0.197 A 
ATOM      8  H   LIG    1       -2.881   0.408   0.034  0.00  0.00    +0.167 HD
ATOM      9  N   LIG    1       -2.541   3.531   0.045  0.00  0.00    -0.235 NA
ATOM     10  C   LIG    1       -0.013   1.076   0.008  0.00  0.00    +0.028 A 
ENDROOT
BRANCH   3  11
ATOM     11  C   LIG    1       -0.027   5.340   0.030  0.00  0.00    +0.244 C 
ATOM     12  N   LIG    1        1.141   6.014   0.022  0.00  0.00    -0.325 N 
ATOM     13  H   LIG    1        1.141   6.984   0.027  0.00  0.00    +0.145 HD
ATOM     14  H   LIG    1        1.980   5.528   0.011  0.00  0.00    +0.145 HD
ATOM     15  O   LIG    1       -1.080   5.949   0.043  0.00  0.00    -0.270 OA
ENDBRANCH   3  11
TORSDOF 1
