REMARK  Name = ZINC64479838
REMARK                            x       y       z     vdW  Elec       q    Type
REMARK                         _______ _______ _______ _____ _____    ______ ____
ROOT
ATOM      1  C   LIG    1        0.902  -2.037   1.028  0.00  0.00    +0.051 C 
ENDROOT
BRANCH   1   2
ATOM      2  C   LIG    1        1.625  -2.574   2.237  0.00  0.00    -0.011 A 
ATOM      3  C   LIG    1        2.999  -2.721   2.212  0.00  0.00    +0.006 A 
ATOM      4  C   LIG    1        3.662  -3.213   3.321  0.00  0.00    +0.000 A 
ATOM      5  C   LIG    1        2.951  -3.560   4.455  0.00  0.00    +0.003 A 
ATOM      6  C   LIG    1        1.577  -3.414   4.482  0.00  0.00    +0.038 A 
ATOM      7  C   LIG    1        0.913  -2.915   3.374  0.00  0.00    +0.127 A 
ATOM      8  F   LIG    1       -0.430  -2.768   3.401  0.00  0.00    -0.205 F 
ENDBRANCH   1   2
BRANCH   1   9
ATOM      9  C   LIG    1        0.706  -0.527   1.180  0.00  0.00    +0.070 C 
BRANCH   9  11
ATOM     10  C   LIG    1       -0.018   1.465   0.010  0.00  0.00    +0.084 C 
ATOM     11  N   LIG    1        0.002  -0.004   0.002  0.00  0.00    -0.358 NA
BRANCH  11  12
ATOM     12  N   LIG    1       -1.346  -0.543  -0.082  0.00  0.00    +0.389 N 
ATOM     13  H   LIG    1       -1.863  -0.285   0.745  0.00  0.00    -0.065 HD
ATOM     14  H   LIG    1       -1.302  -1.549  -0.151  0.00  0.00    -0.065 HD
ATOM     15  H   LIG    1       -1.807  -0.169  -0.897  0.00  0.00    -0.065 HD
ENDBRANCH  11  12
ENDBRANCH   9  11
ENDBRANCH   1   9
TORSDOF 4
