REMARK  Name = ZINC27425663
REMARK                            x       y       z     vdW  Elec       q    Type
REMARK                         _______ _______ _______ _____ _____    ______ ____
ROOT
ATOM      1  C   LIG    1       -1.436   3.260   0.288  0.00  0.00    +0.280 C 
ATOM      2  C   LIG    1       -1.146   1.788   0.392  0.00  0.00    +0.262 C 
ATOM      3  N   LIG    1        0.085   1.304   0.243  0.00  0.00    -0.271 N 
ATOM      4  C   LIG    1        0.251  -0.150   0.307  0.00  0.00    +0.138 C 
ATOM      5  C   LIG    1        1.221   2.068   0.025  0.00  0.00    +0.045 A 
ATOM      6  C   LIG    1        2.388   1.685   0.689  0.00  0.00    +0.024 A 
ATOM      7  C   LIG    1        3.557   2.394   0.521  0.00  0.00    +0.002 A 
ATOM      8  C   LIG    1        3.584   3.500  -0.313  0.00  0.00    +0.001 A 
ATOM      9  C   LIG    1        2.444   3.893  -0.975  0.00  0.00    +0.012 A 
ATOM     10  C   LIG    1        1.245   3.181  -0.813  0.00  0.00    +0.022 A 
ATOM     11  C   LIG    1        0.064   3.659  -1.548  0.00  0.00    +0.077 C 
ATOM     12  O   LIG    1       -2.058   1.022   0.624  0.00  0.00    -0.271 OA
ATOM     13  N   LIG    1       -1.130   3.703  -1.072  0.00  0.00    -0.251 NA
ENDROOT
BRANCH   1  17
ATOM     14  N   LIG    1       -0.386   5.660   2.867  0.00  0.00    -0.269 N 
ATOM     15  H   LIG    1        0.695   5.466   2.922  0.00  0.00    +0.156 HD
ATOM     16  C   LIG    1       -1.149   4.981   1.989  0.00  0.00    +0.306 C 
ATOM     17  N   LIG    1       -0.606   3.999   1.243  0.00  0.00    -0.270 N 
ATOM     18  H   LIG    1        0.461   3.752   1.350  0.00  0.00    +0.153 HD
ATOM     19  O   LIG    1       -2.328   5.254   1.870  0.00  0.00    -0.252 OA
BRANCH  14  24
ATOM     20  C   LIG    1       -2.592   8.350   4.094  0.00  0.00    +0.019 A 
ATOM     21  C   LIG    1       -2.110   8.503   5.399  0.00  0.00    +0.011 A 
ATOM     22  C   LIG    1       -1.069   7.716   5.845  0.00  0.00    +0.002 A 
ATOM     23  C   LIG    1       -0.498   6.775   5.008  0.00  0.00    +0.023 A 
ATOM     24  C   LIG    1       -0.969   6.614   3.710  0.00  0.00    +0.035 A 
ATOM     25  C   LIG    1       -2.011   7.402   3.248  0.00  0.00    +0.034 A 
BRANCH  20  27
ATOM     26  C   LIG    1       -4.324  10.212   4.528  0.00  0.00    +0.091 C 
ATOM     27  C   LIG    1       -3.703   9.187   3.614  0.00  0.00    +0.160 C 
ATOM     28  O   LIG    1       -4.119   9.052   2.483  0.00  0.00    -0.292 OA
ENDBRANCH  20  27
ENDBRANCH  14  24
ENDBRANCH   1  17
BRANCH  11  29
ATOM     29  C   LIG    1        0.264   4.124  -2.940  0.00  0.00    +0.001 A 
ATOM     30  C   LIG    1       -0.644   5.011  -3.519  0.00  0.00    +0.010 A 
ATOM     31  C   LIG    1       -0.449   5.444  -4.815  0.00  0.00    +0.001 A 
ATOM     32  C   LIG    1        0.638   4.993  -5.542  0.00  0.00    +0.000 A 
ATOM     33  C   LIG    1        1.539   4.110  -4.975  0.00  0.00    +0.001 A 
ATOM     34  C   LIG    1        1.358   3.673  -3.678  0.00  0.00    +0.010 A 
ENDBRANCH  11  29
TORSDOF 4
