REMARK  Name = ZINC34319582
REMARK                            x       y       z     vdW  Elec       q    Type
REMARK                         _______ _______ _______ _____ _____    ______ ____
ROOT
ATOM      1  C   LIG    1       -0.019   1.526   0.010  0.00  0.00    +0.052 C 
ATOM      2  C   LIG    1        0.002  -0.004   0.002  0.00  0.00    +0.174 C 
ATOM      3  C   LIG    1       -1.433  -0.534   0.013  0.00  0.00    +0.044 C 
ATOM      4  C   LIG    1       -1.748  -1.125   1.388  0.00  0.00    +0.004 C 
ATOM      5  C   LIG    1       -1.965   0.007   2.394  0.00  0.00    +0.000 C 
ATOM      6  C   LIG    1       -2.103  -0.579   3.800  0.00  0.00    +0.000 C 
ATOM      7  C   LIG    1       -0.922  -0.125   4.660  0.00  0.00    +0.000 C 
ATOM      8  C   LIG    1        0.352  -0.827   4.188  0.00  0.00    +0.005 C 
ATOM      9  C   LIG    1        1.266   0.187   3.495  0.00  0.00    +0.036 C 
ATOM     10  C   LIG    1        2.618  -0.436   3.259  0.00  0.00    -0.026 A 
ATOM     11  C   LIG    1        3.570  -0.413   4.252  0.00  0.00    +0.050 A 
ATOM     12  C   LIG    1        4.819  -0.989   4.040  0.00  0.00    +0.121 A 
ATOM     13  C   LIG    1        5.113  -1.592   2.826  0.00  0.00    +0.091 A 
ATOM     14  C   LIG    1        4.165  -1.621   1.818  0.00  0.00    +0.135 A 
ATOM     15  C   LIG    1        2.906  -1.038   2.030  0.00  0.00    +0.104 A 
ATOM     16  C   LIG    1        1.894  -1.056   0.961  0.00  0.00    +0.343 C 
ATOM     17  O   LIG    1        2.142  -1.592  -0.101  0.00  0.00    -0.245 OA
ATOM     18  O   LIG    1        0.693  -0.477   1.160  0.00  0.00    -0.458 OA
ENDROOT
BRANCH  12  19
ATOM     19  O   LIG    1        5.752  -0.960   5.024  0.00  0.00    -0.507 OA
ATOM     20  H   LIG    1        5.720  -1.722   5.619  0.00  0.00    +0.292 HD
ENDBRANCH  12  19
BRANCH  14  21
ATOM     21  O   LIG    1        4.451  -2.211   0.631  0.00  0.00    -0.506 OA
ATOM     22  H   LIG    1        4.229  -3.152   0.596  0.00  0.00    +0.292 HD
ENDBRANCH  14  21
TORSDOF 2
