REMARK  Name = ZINC27564702
REMARK                            x       y       z     vdW  Elec       q    Type
REMARK                         _______ _______ _______ _____ _____    ______ ____
ROOT
ATOM      1  C   LIG    1       -1.156  -0.694   0.009  0.00  0.00    +0.244 C 
ATOM      2  N   LIG    1        0.002  -0.004   0.002  0.00  0.00    -0.311 N 
ATOM      3  H   LIG    1        0.962  -0.541  -0.010  0.00  0.00    +0.149 HD
ATOM      4  O   LIG    1       -2.217  -0.100   0.023  0.00  0.00    -0.270 OA
ENDROOT
BRANCH   1  11
ATOM      5  C   LIG    1        0.081  -2.856  -0.020  0.00  0.00    +0.014 A 
ATOM      6  C   LIG    1        0.093  -4.235  -0.021  0.00  0.00    +0.021 A 
ATOM      7  C   LIG    1       -1.098  -4.941  -0.013  0.00  0.00    +0.041 A 
ATOM      8 CL   LIG    1       -1.075  -6.676  -0.022  0.00  0.00    -0.084 Cl
ATOM      9  C   LIG    1       -2.309  -4.267   0.001  0.00  0.00    +0.021 A 
ATOM     10  C   LIG    1       -2.334  -2.889   0.009  0.00  0.00    +0.014 A 
ATOM     11  C   LIG    1       -1.136  -2.171   0.001  0.00  0.00    +0.037 A 
ENDBRANCH   1  11
BRANCH   2  12
ATOM     12  C   LIG    1       -0.018   1.461   0.010  0.00  0.00    +0.104 C 
BRANCH  12  13
ATOM     13  C   LIG    1        1.418   1.990  -0.001  0.00  0.00    +0.020 C 
BRANCH  13  14
ATOM     14  C   LIG    1        1.397   3.520   0.008  0.00  0.00    +0.023 C 
BRANCH  14  15
ATOM     15  C   LIG    1        2.832   4.050  -0.003  0.00  0.00    +0.123 C 
BRANCH  15  16
ATOM     16  N   LIG    1        2.812   5.515   0.005  0.00  0.00    -0.338 N 
ATOM     17  C   LIG    1        2.796   6.333  -1.093  0.00  0.00    +0.104 A 
ATOM     18  C   LIG    1        2.778   7.599  -0.634  0.00  0.00    +0.101 A 
ATOM     19  N   LIG    1        2.792   7.555   0.706  0.00  0.00    -0.352 N 
ATOM     20  H   LIG    1        2.785   8.489   1.287  0.00  0.00    +0.166 HD
ATOM     21  C   LIG    1        2.812   6.310   1.096  0.00  0.00    +0.173 A 
ENDBRANCH  15  16
ENDBRANCH  14  15
ENDBRANCH  13  14
ENDBRANCH  12  13
ENDBRANCH   2  12
TORSDOF 6
