REMARK  Name = ZINC27203428
REMARK                            x       y       z     vdW  Elec       q    Type
REMARK                         _______ _______ _______ _____ _____    ______ ____
ROOT
ATOM      1  C   LIG    1       -2.514   5.354   0.054  0.00  0.00    +0.008 C 
ATOM      2  C   LIG    1       -1.360   6.035   0.047  0.00  0.00    +0.059 C 
ATOM      3  C   LIG    1       -0.064   5.331   0.030  0.00  0.00    +0.187 C 
ATOM      4  C   LIG    1       -0.033   3.852   0.022  0.00  0.00    +0.032 A 
ATOM      5  C   LIG    1        1.175   3.164   0.007  0.00  0.00    +0.012 A 
ATOM      6  C   LIG    1        1.177   1.778   0.000  0.00  0.00    +0.001 A 
ATOM      7  C   LIG    1       -0.013   1.076   0.008  0.00  0.00    +0.001 A 
ATOM      8  C   LIG    1       -1.225   1.748   0.017  0.00  0.00    +0.012 A 
ATOM      9  C   LIG    1       -1.244   3.137   0.030  0.00  0.00    +0.033 A 
ATOM     10  O   LIG    1        0.974   5.963   0.024  0.00  0.00    -0.287 OA
ATOM     11  C   LIG    1       -2.523   3.879   0.046  0.00  0.00    +0.190 C 
ATOM     12  O   LIG    1       -3.578   3.276   0.053  0.00  0.00    -0.287 OA
ENDROOT
BRANCH   1  13
ATOM     13  C   LIG    1       -3.820   6.106   0.071  0.00  0.00    +0.074 C 
BRANCH  13  17
ATOM     14  C   LIG    1       -5.269   6.533  -3.924  0.00  0.00    +0.000 A 
ATOM     15  C   LIG    1       -5.629   5.430  -3.173  0.00  0.00    +0.000 A 
ATOM     16  C   LIG    1       -5.159   5.291  -1.880  0.00  0.00    +0.004 A 
ATOM     17  C   LIG    1       -4.331   6.256  -1.338  0.00  0.00    -0.043 A 
ATOM     18  C   LIG    1       -3.977   7.363  -2.088  0.00  0.00    +0.004 A 
ATOM     19  C   LIG    1       -4.442   7.499  -3.382  0.00  0.00    +0.000 A 
ENDBRANCH  13  17
ENDBRANCH   1  13
TORSDOF 2
