REMARK  Name = ZINC49792299
REMARK                            x       y       z     vdW  Elec       q    Type
REMARK                         _______ _______ _______ _____ _____    ______ ____
ROOT
ATOM      1  N   LIG    1        1.093  -0.121  -4.183  0.00  0.00    -0.271 NA
ATOM      2  C   LIG    1        1.818   0.724  -4.836  0.00  0.00    +0.115 C 
ATOM      3  C   LIG    1        3.116   1.465  -4.597  0.00  0.00    +0.198 C 
ATOM      4  C   LIG    1        3.240   1.508  -6.105  0.00  0.00    +0.230 C 
ATOM      5  O   LIG    1        4.140   1.591  -6.907  0.00  0.00    -0.286 OA
ATOM      6  C   LIG    1        1.753   1.398  -6.160  0.00  0.00    +0.246 C 
ATOM      7  O   LIG    1        0.880   1.715  -6.939  0.00  0.00    -0.282 OA
ENDROOT
BRANCH   3   8
ATOM      8  N   LIG    1        2.940   2.783  -3.981  0.00  0.00    -0.326 N 
ATOM      9  H   LIG    1        2.103   3.261  -4.088  0.00  0.00    +0.147 HD
BRANCH   8  10
ATOM     10  C   LIG    1        3.981   3.351  -3.236  0.00  0.00    +0.071 A 
ATOM     11  C   LIG    1        5.179   2.671  -3.087  0.00  0.00    +0.026 A 
ATOM     12  C   LIG    1        6.212   3.228  -2.353  0.00  0.00    +0.003 A 
ATOM     13  C   LIG    1        6.060   4.464  -1.763  0.00  0.00    +0.017 A 
ATOM     14  C   LIG    1        4.857   5.163  -1.903  0.00  0.00    +0.080 A 
ATOM     15  C   LIG    1        3.814   4.604  -2.650  0.00  0.00    +0.150 A 
BRANCH  14  16
ATOM     16  C   LIG    1        4.691   6.486  -1.272  0.00  0.00    +0.250 C 
ATOM     17  N   LIG    1        4.899   6.632   0.052  0.00  0.00    -0.304 N 
ATOM     18  C   LIG    1        5.374   5.498   0.848  0.00  0.00    +0.132 C 
ATOM     19  C   LIG    1        4.650   7.925   0.694  0.00  0.00    +0.132 C 
ATOM     20  O   LIG    1        4.367   7.445  -1.946  0.00  0.00    -0.270 OA
ENDBRANCH  14  16
BRANCH  15  21
ATOM     21  O   LIG    1        2.644   5.276  -2.797  0.00  0.00    -0.504 OA
ATOM     22  H   LIG    1        1.992   5.087  -2.109  0.00  0.00    +0.292 HD
ENDBRANCH  15  21
ENDBRANCH   8  10
ENDBRANCH   3   8
BRANCH   1  23
ATOM     23  C   LIG    1        1.507  -0.563  -2.849  0.00  0.00    +0.171 C 
BRANCH  23  24
ATOM     24  C   LIG    1        1.702  -2.058  -2.853  0.00  0.00    +0.129 A 
ATOM     25  C   LIG    1        2.685  -2.725  -2.223  0.00  0.00    +0.047 A 
ATOM     26  C   LIG    1        2.487  -4.098  -2.493  0.00  0.00    +0.045 A 
ATOM     27  C   LIG    1        1.395  -4.188  -3.273  0.00  0.00    +0.102 A 
ATOM     28  C   LIG    1        0.801  -5.463  -3.815  0.00  0.00    +0.086 C 
ATOM     29  O   LIG    1        0.920  -2.950  -3.483  0.00  0.00    -0.463 OA
ENDBRANCH  23  24
BRANCH  23  31
ATOM     30  C   LIG    1        0.316   1.330  -1.736  0.00  0.00    +0.006 C 
ATOM     31  C   LIG    1        0.426  -0.193  -1.831  0.00  0.00    +0.031 C 
ENDBRANCH  23  31
ENDBRANCH   1  23
TORSDOF 7
