REMARK  Name = ZINC36323215
REMARK                            x       y       z     vdW  Elec       q    Type
REMARK                         _______ _______ _______ _____ _____    ______ ____
ROOT
ATOM      1  C   LIG    1       -0.019   1.522   0.010  0.00  0.00    +0.018 C 
ATOM      2  C   LIG    1        0.002  -0.004   0.002  0.00  0.00    +0.011 C 
ATOM      3  C   LIG    1       -1.385  -0.586  -0.002  0.00  0.00    +0.013 C 
ATOM      4  C   LIG    1       -2.001  -0.578   1.401  0.00  0.00    +0.005 C 
ATOM      5  C   LIG    1       -1.165   0.171   2.422  0.00  0.00    +0.003 C 
ATOM      6  C   LIG    1        0.262  -0.338   2.519  0.00  0.00    +0.001 C 
ATOM      7  C   LIG    1        0.289  -1.674   3.282  0.00  0.00    +0.031 C 
ATOM      8  C   LIG    1       -0.467  -1.583   4.567  0.00  0.00    -0.027 C 
ATOM      9  C   LIG    1       -1.424  -0.731   4.777  0.00  0.00    -0.065 C 
ATOM     10  C   LIG    1       -2.137  -0.759   6.118  0.00  0.00    +0.062 C 
ATOM     11  C   LIG    1       -3.642  -0.852   5.852  0.00  0.00    +0.119 C 
ATOM     12  C   LIG    1       -4.080   0.303   4.952  0.00  0.00    +0.032 C 
ATOM     13  C   LIG    1       -3.378   0.222   3.597  0.00  0.00    +0.014 C 
ATOM     14  C   LIG    1       -1.860   0.283   3.767  0.00  0.00    -0.008 C 
ATOM     15  C   LIG    1       -1.507   1.673   4.318  0.00  0.00    +0.016 C 
ATOM     16  C   LIG    1        0.868  -0.403  -1.186  0.00  0.00    +0.042 C 
ATOM     17  N   LIG    1        0.471  -0.837  -2.312  0.00  0.00    -0.198 NA
ATOM     18  C   LIG    1        2.295  -0.158  -0.705  0.00  0.00    +0.053 C 
ATOM     19  C   LIG    1        2.226  -0.045   0.845  0.00  0.00    +0.010 C 
ATOM     20  C   LIG    1        0.831  -0.614   1.147  0.00  0.00    +0.005 C 
ENDROOT
BRANCH  17  21
ATOM     21  N   LIG    1        1.404  -1.161  -3.306  0.00  0.00    -0.283 N 
ATOM     22  H   LIG    1        1.101  -1.493  -4.166  0.00  0.00    +0.164 HD
ATOM     23  H   LIG    1        2.352  -1.054  -3.135  0.00  0.00    +0.164 HD
ENDBRANCH  17  21
BRANCH  11  24
ATOM     24  O   LIG    1       -4.348  -0.782   7.093  0.00  0.00    -0.391 OA
ATOM     25  H   LIG    1       -4.120  -1.486   7.715  0.00  0.00    +0.210 HD
ENDBRANCH  11  24
TORSDOF 2
