REMARK  Name = ZINC00002748
REMARK                            x       y       z     vdW  Elec       q    Type
REMARK                         _______ _______ _______ _____ _____    ______ ____
ROOT
ATOM      1  C   LIG    1        0.658  -0.605   1.247  0.00  0.00    +0.211 C 
ATOM      2  C   LIG    1        0.945  -2.123   1.177  0.00  0.00    +0.099 C 
ATOM      3  C   LIG    1        2.338  -2.152   0.580  0.00  0.00    -0.001 A 
ATOM      4  C   LIG    1        3.077  -3.162   0.004  0.00  0.00    +0.007 A 
ATOM      5  C   LIG    1        4.349  -2.902  -0.475  0.00  0.00    +0.000 A 
ATOM      6  C   LIG    1        4.873  -1.627  -0.372  0.00  0.00    +0.004 A 
ATOM      7  C   LIG    1        4.137  -0.615   0.207  0.00  0.00    +0.046 A 
ATOM      8  C   LIG    1        2.857  -0.869   0.695  0.00  0.00    +0.125 A 
ATOM      9  O   LIG    1        1.976  -0.035   1.312  0.00  0.00    -0.473 OA
ENDROOT
BRANCH   1  10
ATOM     10  C   LIG    1       -0.133  -0.263   2.483  0.00  0.00    +0.283 C 
ATOM     11  N   LIG    1       -0.643  -1.181   3.269  0.00  0.00    -0.272 N 
ATOM     12  H   LIG    1       -0.564  -2.139   3.138  0.00  0.00    +0.304 HD
ATOM     13  C   LIG    1       -1.353  -0.529   4.382  0.00  0.00    +0.276 C 
ATOM     14  C   LIG    1       -1.158   0.974   4.091  0.00  0.00    +0.268 C 
ATOM     15  N   LIG    1       -0.359   0.975   2.855  0.00  0.00    -0.234 N 
ATOM     16  H   LIG    1       -0.050   1.767   2.387  0.00  0.00    +0.291 HD
ENDBRANCH   1  10
BRANCH   1  18
ATOM     17  C   LIG    1        0.682  -0.612  -1.252  0.00  0.00    +0.008 C 
ATOM     18  C   LIG    1       -0.074  -0.133  -0.011  0.00  0.00    +0.057 C 
ENDBRANCH   1  18
TORSDOF 2
