REMARK  Name = ZINC36188138
REMARK                            x       y       z     vdW  Elec       q    Type
REMARK                         _______ _______ _______ _____ _____    ______ ____
ROOT
ATOM      1  N   LIG    1        0.489  -0.192   3.070  0.00  0.00    +0.382 N 
ATOM      2  H   LIG    1        0.278  -0.090   2.089  0.00  0.00    -0.082 HD
ATOM      3  C   LIG    1        0.366  -1.606   3.449  0.00  0.00    -0.059 C 
ATOM      4  C   LIG    1        1.269  -2.455   2.549  0.00  0.00    +0.091 C 
ATOM      5  N   LIG    1        2.638  -1.923   2.626  0.00  0.00    -0.289 N 
ATOM      6  C   LIG    1        3.684  -2.735   2.878  0.00  0.00    +0.302 C 
ATOM      7  N   LIG    1        3.474  -4.035   3.164  0.00  0.00    -0.296 N 
ATOM      8  H   LIG    1        2.578  -4.404   3.115  0.00  0.00    +0.151 HD
ATOM      9  O   LIG    1        4.816  -2.294   2.849  0.00  0.00    -0.253 OA
ATOM     10  C   LIG    1        2.833  -0.479   2.421  0.00  0.00    +0.091 C 
ATOM     11  C   LIG    1        1.856   0.277   3.327  0.00  0.00    -0.059 C 
ENDROOT
BRANCH   7  12
ATOM     12  C   LIG    1        4.599  -4.892   3.547  0.00  0.00    +0.082 C 
ATOM     13  C   LIG    1        4.670  -6.286   2.922  0.00  0.00    +0.033 C 
ATOM     14  C   LIG    1        4.289  -6.127   4.396  0.00  0.00    +0.041 C 
BRANCH  14  15
ATOM     15  C   LIG    1        5.309  -6.536   5.426  0.00  0.00    -0.042 A 
ATOM     16  C   LIG    1        6.595  -6.860   5.035  0.00  0.00    +0.004 A 
ATOM     17  C   LIG    1        7.531  -7.235   5.981  0.00  0.00    +0.000 A 
ATOM     18  C   LIG    1        7.181  -7.287   7.317  0.00  0.00    +0.000 A 
ATOM     19  C   LIG    1        5.896  -6.963   7.708  0.00  0.00    +0.000 A 
ATOM     20  C   LIG    1        4.961  -6.583   6.763  0.00  0.00    +0.004 A 
ENDBRANCH  14  15
ENDBRANCH   7  12
BRANCH   1  22
ATOM     21  C   LIG    1       -1.889   0.205   3.500  0.00  0.00    -0.017 C 
ATOM     22  C   LIG    1       -0.458   0.608   3.859  0.00  0.00    -0.082 C 
ENDBRANCH   1  22
TORSDOF 3
