REMARK  Name = ZINC36139575
REMARK                            x       y       z     vdW  Elec       q    Type
REMARK                         _______ _______ _______ _____ _____    ______ ____
ROOT
ATOM      1  C   LIG    1        1.911  -3.643  -0.106  0.00  0.00    +0.127 A 
ATOM      2  C   LIG    1        2.328  -4.162  -1.331  0.00  0.00    +0.072 A 
ATOM      3  C   LIG    1        3.254  -5.202  -1.330  0.00  0.00    +0.078 A 
ATOM      4  N   LIG    1        3.708  -5.663  -0.164  0.00  0.00    -0.215 NA
ATOM      5  C   LIG    1        3.289  -5.146   0.979  0.00  0.00    +0.215 A 
ATOM      6  N   LIG    1        2.413  -4.152   1.016  0.00  0.00    -0.200 NA
ENDROOT
BRANCH   1  11
ATOM      7  C   LIG    1       -0.025   1.442   0.365  0.00  0.00    +0.105 C 
ATOM      8  N   LIG    1       -0.002  -0.016   0.182  0.00  0.00    -0.302 NA
ATOM      9  C   LIG    1        0.753  -0.383  -1.023  0.00  0.00    +0.103 C 
ATOM     10  C   LIG    1        0.602  -1.886  -1.278  0.00  0.00    +0.122 C 
ATOM     11  N   LIG    1        0.991  -2.608  -0.057  0.00  0.00    -0.313 N 
ATOM     12  C   LIG    1        0.377  -2.203   1.216  0.00  0.00    +0.122 C 
ATOM     13  C   LIG    1        0.536  -0.687   1.373  0.00  0.00    +0.103 C 
ENDBRANCH   1  11
BRANCH   3  14
ATOM     14  C   LIG    1        3.729  -5.788  -2.607  0.00  0.00    +0.001 A 
ATOM     15  C   LIG    1        3.254  -5.296  -3.822  0.00  0.00    +0.010 A 
ATOM     16  C   LIG    1        3.700  -5.845  -5.007  0.00  0.00    +0.001 A 
ATOM     17  C   LIG    1        4.615  -6.881  -4.991  0.00  0.00    +0.000 A 
ATOM     18  C   LIG    1        5.090  -7.373  -3.789  0.00  0.00    +0.001 A 
ATOM     19  C   LIG    1        4.656  -6.828  -2.597  0.00  0.00    +0.010 A 
ENDBRANCH   3  14
BRANCH   5  20
ATOM     20  N   LIG    1        3.783  -5.652   2.169  0.00  0.00    -0.327 N 
ATOM     21  H   LIG    1        3.484  -5.282   3.014  0.00  0.00    +0.145 HD
ATOM     22  H   LIG    1        4.428  -6.377   2.157  0.00  0.00    +0.145 HD
ENDBRANCH   5  20
TORSDOF 3
