REMARK  Name = ZINC27522409
REMARK                            x       y       z     vdW  Elec       q    Type
REMARK                         _______ _______ _______ _____ _____    ______ ____
ROOT
ATOM      1  C   LIG    1        4.094   3.055   1.968  0.00  0.00    +0.129 C 
ATOM      2  N   LIG    1        4.749   4.366   2.073  0.00  0.00    -0.326 N 
ATOM      3  C   LIG    1        6.050   4.309   1.593  0.00  0.00    +0.039 A 
ATOM      4  C   LIG    1        6.459   3.285   0.753  0.00  0.00    +0.024 A 
ATOM      5  C   LIG    1        7.772   3.228   0.327  0.00  0.00    +0.002 A 
ATOM      6  C   LIG    1        8.684   4.188   0.733  0.00  0.00    +0.001 A 
ATOM      7  C   LIG    1        8.291   5.219   1.561  0.00  0.00    +0.012 A 
ATOM      8  C   LIG    1        6.969   5.292   1.992  0.00  0.00    +0.020 A 
ATOM      9  C   LIG    1        6.510   6.393   2.862  0.00  0.00    +0.054 C 
ATOM     10  N   LIG    1        5.418   7.037   2.538  0.00  0.00    -0.382 N 
ATOM     11  H   LIG    1        5.023   7.819   3.204  0.00  0.00    +0.160 HD
ATOM     12  C   LIG    1        4.736   6.704   1.287  0.00  0.00    +0.136 C 
ATOM     13  C   LIG    1        3.957   5.402   1.409  0.00  0.00    +0.110 C 
ENDROOT
BRANCH   9  14
ATOM     14  C   LIG    1        7.270   6.761   4.079  0.00  0.00    +0.034 A 
ATOM     15  C   LIG    1        8.430   6.063   4.417  0.00  0.00    +0.013 A 
ATOM     16  C   LIG    1        9.137   6.413   5.549  0.00  0.00    +0.001 A 
ATOM     17  C   LIG    1        8.693   7.447   6.354  0.00  0.00    +0.003 A 
ATOM     18  C   LIG    1        7.542   8.140   6.029  0.00  0.00    +0.039 A 
ATOM     19  C   LIG    1        6.827   7.804   4.895  0.00  0.00    +0.132 A 
ATOM     20  F   LIG    1        5.702   8.481   4.578  0.00  0.00    -0.205 F 
ENDBRANCH   9  14
BRANCH  13  21
ATOM     21  C   LIG    1        3.571   4.917   0.011  0.00  0.00    +0.141 C 
BRANCH  21  22
ATOM     22  N   LIG    1        2.661   5.885  -0.608  0.00  0.00    -0.232 N 
ATOM     23  C   LIG    1        3.047   6.864  -1.445  0.00  0.00    +0.254 C 
ATOM     24  C   LIG    1        1.852   7.629  -1.857  0.00  0.00    +0.049 A 
ATOM     25  C   LIG    1        1.639   8.719  -2.686  0.00  0.00    +0.014 A 
ATOM     26  C   LIG    1        0.353   9.207  -2.864  0.00  0.00    +0.001 A 
ATOM     27  C   LIG    1       -0.716   8.613  -2.220  0.00  0.00    +0.001 A 
ATOM     28  C   LIG    1       -0.518   7.522  -1.389  0.00  0.00    +0.014 A 
ATOM     29  C   LIG    1        0.761   7.024  -1.201  0.00  0.00    +0.049 A 
ATOM     30  O   LIG    1        4.187   7.082  -1.804  0.00  0.00    -0.270 OA
ATOM     31  C   LIG    1        1.331   5.911  -0.413  0.00  0.00    +0.254 C 
ATOM     32  O   LIG    1        0.702   5.148   0.293  0.00  0.00    -0.270 OA
ENDBRANCH  21  22
ENDBRANCH  13  21
TORSDOF 3
