REMARK  Name = ZINC33395186
REMARK                            x       y       z     vdW  Elec       q    Type
REMARK                         _______ _______ _______ _____ _____    ______ ____
ROOT
ATOM      1  C   LIG    1       -2.450   4.157   0.536  0.00  0.00    +0.028 C 
ATOM      2  C   LIG    1       -2.494   5.508   0.412  0.00  0.00    +0.078 C 
ATOM      3  C   LIG    1       -3.638   6.429   0.558  0.00  0.00    +0.263 C 
ATOM      4  N   LIG    1       -3.389   7.716   0.382  0.00  0.00    -0.224 N 
ATOM      5  C   LIG    1       -2.153   8.159   0.074  0.00  0.00    +0.125 C 
ATOM      6  S   LIG    1       -1.637   9.768  -0.196  0.00  0.00    -0.027 S 
ATOM      7  O   LIG    1       -4.754   6.026   0.830  0.00  0.00    -0.269 OA
ATOM      8  S   LIG    1       -1.185   6.659   0.018  0.00  0.00    -0.061 S 
ENDROOT
BRANCH   4   9
ATOM      9  C   LIG    1       -4.434   8.640   0.513  0.00  0.00    +0.044 A 
ATOM     10  C   LIG    1       -5.464   8.662  -0.419  0.00  0.00    +0.024 A 
ATOM     11  C   LIG    1       -6.493   9.573  -0.288  0.00  0.00    +0.003 A 
ATOM     12  C   LIG    1       -6.500  10.464   0.770  0.00  0.00    +0.020 A 
ATOM     13  C   LIG    1       -5.476  10.445   1.701  0.00  0.00    +0.043 A 
ATOM     14 CL   LIG    1       -5.488  11.564   3.028  0.00  0.00    -0.083 Cl
ATOM     15  C   LIG    1       -4.446   9.531   1.577  0.00  0.00    +0.044 A 
ENDBRANCH   4   9
BRANCH   1  18
ATOM     16  C   LIG    1        1.245   3.522   0.454  0.00  0.00    +0.164 A 
ATOM     17  C   LIG    1        0.036   4.186   0.505  0.00  0.00    +0.057 A 
ATOM     18  C   LIG    1       -1.160   3.457   0.488  0.00  0.00    -0.018 A 
ATOM     19  C   LIG    1       -1.121   2.058   0.431  0.00  0.00    +0.044 A 
ATOM     20  C   LIG    1        0.090   1.405   0.386  0.00  0.00    +0.167 A 
ATOM     21  C   LIG    1        1.275   2.129   0.397  0.00  0.00    +0.189 A 
BRANCH  16  23
ATOM     22  C   LIG    1        2.304   5.650   0.523  0.00  0.00    +0.277 C 
ATOM     23  O   LIG    1        2.408   4.226   0.464  0.00  0.00    -0.491 OA
ENDBRANCH  16  23
BRANCH  20  24
ATOM     24  N   LIG    1        0.130  -0.074   0.326  0.00  0.00    +0.010 N 
ATOM     25  O   LIG    1       -0.909  -0.711   0.317  0.00  0.00    -0.130 OA
BRANCH  24  26
ATOM     26  O   LIG    1        1.200  -0.654   0.287  0.00  0.00    -0.396 OA
ATOM     27  H   LIG    1        1.999  -0.164   0.294  0.00  0.00    +0.329 HD
ENDBRANCH  24  26
ENDBRANCH  20  24
BRANCH  21  28
ATOM     28  O   LIG    1        2.467   1.478   0.352  0.00  0.00    -0.502 OA
ATOM     29  H   LIG    1        3.267   1.965   0.359  0.00  0.00    +0.292 HD
ENDBRANCH  21  28
ENDBRANCH   1  18
TORSDOF 6
