REMARK  Name = ZINC39716195
REMARK                            x       y       z     vdW  Elec       q    Type
REMARK                         _______ _______ _______ _____ _____    ______ ____
ROOT
ATOM      1  C   LIG    1        0.361  -2.747   2.333  0.00  0.00    +0.092 A 
ATOM      2  C   LIG    1        0.230  -2.065   3.503  0.00  0.00    +0.075 A 
ATOM      3  N   LIG    1        0.267  -2.989   4.535  0.00  0.00    -0.325 N 
ATOM      4  H   LIG    1        0.195  -2.789   5.481  0.00  0.00    +0.169 HD
ATOM      5  C   LIG    1        0.420  -4.224   3.991  0.00  0.00    +0.198 A 
ATOM      6  N   LIG    1        0.498  -5.369   4.668  0.00  0.00    -0.147 NA
ATOM      7  N   LIG    1        0.474  -4.095   2.641  0.00  0.00    -0.324 N 
ATOM      8  H   LIG    1        0.575  -4.818   2.003  0.00  0.00    +0.169 HD
ENDROOT
BRANCH   2   9
ATOM      9  C   LIG    1        0.077  -0.605   3.647  0.00  0.00    +0.003 A 
ATOM     10  C   LIG    1       -0.900   0.073   2.893  0.00  0.00    +0.012 A 
ATOM     11  C   LIG    1       -1.059   1.415   3.008  0.00  0.00    +0.030 A 
ATOM     12  C   LIG    1       -0.244   2.150   3.890  0.00  0.00    +0.089 A 
ATOM     13  C   LIG    1        0.743   1.478   4.657  0.00  0.00    +0.090 A 
ATOM     14  N   LIG    1        1.517   2.177   5.496  0.00  0.00    -0.252 NA
ATOM     15  C   LIG    1        1.355   3.477   5.602  0.00  0.00    +0.131 A 
ATOM     16  C   LIG    1        0.383   4.137   4.847  0.00  0.00    +0.131 A 
ATOM     17  N   LIG    1       -0.388   3.472   4.016  0.00  0.00    -0.252 NA
ATOM     18  C   LIG    1        0.890   0.089   4.529  0.00  0.00    +0.040 A 
ENDBRANCH   2   9
BRANCH   1  25
ATOM     19  C   LIG    1        0.388   1.228  -0.467  0.00  0.00    +0.068 C 
ATOM     20  C   LIG    1        0.388  -0.274  -0.356  0.00  0.00    +0.074 A 
ATOM     21  C   LIG    1        0.400  -1.045  -1.508  0.00  0.00    +0.144 A 
ATOM     22  F   LIG    1        0.411  -0.454  -2.723  0.00  0.00    -0.204 F 
ATOM     23  C   LIG    1        0.399  -2.431  -1.401  0.00  0.00    +0.042 A 
ATOM     24  C   LIG    1        0.387  -2.996  -0.139  0.00  0.00    +0.033 A 
ATOM     25  C   LIG    1        0.375  -2.160   0.979  0.00  0.00    +0.090 A 
ATOM     26  N   LIG    1        0.382  -0.838   0.834  0.00  0.00    -0.247 NA
ENDBRANCH   1  25
BRANCH   6  27
ATOM     27  C   LIG    1        0.542  -5.355   5.995  0.00  0.00    +0.236 C 
ATOM     28  O   LIG    1        0.420  -4.304   6.596  0.00  0.00    -0.274 OA
ATOM     29  C   LIG    1        0.741  -6.640   6.757  0.00  0.00    +0.111 C 
ENDBRANCH   6  27
TORSDOF 3
