REMARK  Name = ZINC13760077
REMARK                            x       y       z     vdW  Elec       q    Type
REMARK                         _______ _______ _______ _____ _____    ______ ____
ROOT
ATOM      1  C   LIG    1        9.752   5.366  -6.196  0.00  0.00    -0.027 C 
ATOM      2  C   LIG    1        8.680   5.868  -5.635  0.00  0.00    -0.031 C 
ENDROOT
BRANCH   1   3
ATOM      3  C   LIG    1        9.684   4.027  -6.886  0.00  0.00    +0.053 C 
BRANCH   3   5
ATOM      4  C   LIG    1       11.163   3.365  -8.713  0.00  0.00    -0.027 C 
ATOM      5  C   LIG    1       10.210   4.160  -8.292  0.00  0.00    -0.027 C 
BRANCH   4   6
ATOM      6  C   LIG    1       11.612   2.209  -7.857  0.00  0.00    +0.053 C 
BRANCH   6   8
ATOM      7  C   LIG    1       12.604   0.164  -8.750  0.00  0.00    -0.027 C 
ATOM      8  C   LIG    1       11.549   0.935  -8.661  0.00  0.00    -0.027 C 
BRANCH   7   9
ATOM      9  C   LIG    1       13.823   0.455  -7.913  0.00  0.00    +0.053 C 
BRANCH   9  11
ATOM     10  C   LIG    1       15.441  -1.220  -7.180  0.00  0.00    -0.031 C 
ATOM     11  C   LIG    1       14.207  -0.780  -7.140  0.00  0.00    -0.027 C 
BRANCH  10  12
ATOM     12  C   LIG    1       16.513  -0.398  -7.846  0.00  0.00    +0.027 C 
BRANCH  12  13
ATOM     13  C   LIG    1       17.703  -0.245  -6.896  0.00  0.00    +0.004 C 
BRANCH  13  14
ATOM     14  C   LIG    1       18.792   0.590  -7.573  0.00  0.00    +0.000 C 
BRANCH  14  16
ATOM     15  C   LIG    1       21.070   1.578  -7.299  0.00  0.00    +0.004 C 
ATOM     16  C   LIG    1       19.982   0.743  -6.623  0.00  0.00    -0.003 C 
ENDBRANCH  14  16
ENDBRANCH  13  14
ENDBRANCH  12  13
ENDBRANCH  10  12
ENDBRANCH   9  11
ENDBRANCH   7   9
ENDBRANCH   6   8
ENDBRANCH   4   6
ENDBRANCH   3   5
ENDBRANCH   1   3
BRANCH   2  17
ATOM     17  C   LIG    1        7.426   5.038  -5.528  0.00  0.00    +0.027 C 
BRANCH  17  18
ATOM     18  C   LIG    1        6.957   5.009  -4.072  0.00  0.00    +0.013 C 
BRANCH  18  19
ATOM     19  C   LIG    1        5.684   4.167  -3.963  0.00  0.00    +0.096 C 
BRANCH  19  20
ATOM     20  C   LIG    1        5.222   4.138  -2.529  0.00  0.00    +0.217 C 
ATOM     21  N   LIG    1        4.112   3.452  -2.192  0.00  0.00    -0.285 N 
ATOM     22  H   LIG    1        3.652   2.917  -2.858  0.00  0.00    +0.155 HD
ATOM     23  O   LIG    1        5.848   4.733  -1.678  0.00  0.00    -0.275 OA
BRANCH  21  24
ATOM     24  C   LIG    1        3.623   3.512  -0.883  0.00  0.00    +0.037 A 
ATOM     25  C   LIG    1        3.034   2.392  -0.308  0.00  0.00    +0.023 A 
ATOM     26  C   LIG    1        2.552   2.451   0.985  0.00  0.00    +0.005 A 
ATOM     27  C   LIG    1        2.658   3.622   1.712  0.00  0.00    +0.045 A 
ATOM     28  C   LIG    1        3.239   4.745   1.141  0.00  0.00    +0.119 A 
ATOM     29  C   LIG    1        3.725   4.689  -0.156  0.00  0.00    +0.068 A 
BRANCH  28  30
ATOM     30  O   LIG    1        3.338   5.897   1.855  0.00  0.00    -0.507 OA
ATOM     31  H   LIG    1        2.579   6.487   1.756  0.00  0.00    +0.292 HD
ENDBRANCH  28  30
ENDBRANCH  21  24
ENDBRANCH  19  20
ENDBRANCH  18  19
ENDBRANCH  17  18
ENDBRANCH   2  17
TORSDOF 16
