REMARK  Name = ZINC22920326
REMARK                            x       y       z     vdW  Elec       q    Type
REMARK                         _______ _______ _______ _____ _____    ______ ____
ROOT
ATOM      1  C   LIG    1       -4.125  -4.633  -0.309  0.00  0.00    +0.123 C 
ENDROOT
BRANCH   1   2
ATOM      2  N   LIG    1       -4.062  -6.078  -0.536  0.00  0.00    -0.340 N 
ATOM      3  C   LIG    1       -4.054  -6.684  -1.780  0.00  0.00    +0.050 A 
ATOM      4  C   LIG    1       -4.098  -6.170  -3.072  0.00  0.00    +0.026 A 
ATOM      5  C   LIG    1       -4.076  -7.022  -4.155  0.00  0.00    +0.002 A 
ATOM      6  C   LIG    1       -4.010  -8.394  -3.971  0.00  0.00    +0.001 A 
ATOM      7  C   LIG    1       -3.965  -8.923  -2.699  0.00  0.00    +0.010 A 
ATOM      8  C   LIG    1       -3.986  -8.073  -1.596  0.00  0.00    +0.008 A 
ATOM      9  C   LIG    1       -3.952  -8.300  -0.139  0.00  0.00    +0.008 A 
ATOM     10  C   LIG    1       -3.886  -9.446   0.650  0.00  0.00    +0.010 A 
ATOM     11  C   LIG    1       -3.854  -9.330   2.023  0.00  0.00    +0.001 A 
ATOM     12  C   LIG    1       -3.901  -8.080   2.619  0.00  0.00    +0.002 A 
ATOM     13  C   LIG    1       -3.971  -6.938   1.850  0.00  0.00    +0.026 A 
ATOM     14  C   LIG    1       -3.996  -7.034   0.462  0.00  0.00    +0.050 A 
ENDBRANCH   1   2
BRANCH   1  15
ATOM     15  C   LIG    1       -2.707  -4.061  -0.260  0.00  0.00    +0.037 C 
BRANCH  15  16
ATOM     16  C   LIG    1       -2.772  -2.551  -0.023  0.00  0.00    +0.086 C 
BRANCH  16  20
ATOM     17  C   LIG    1       -0.019   1.526   0.010  0.00  0.00    -0.012 C 
ATOM     18  C   LIG    1        0.002  -0.004   0.002  0.00  0.00    -0.060 C 
ATOM     19  C   LIG    1       -1.434  -0.534   0.013  0.00  0.00    +0.068 C 
ATOM     20  N   LIG    1       -1.411  -2.003   0.024  0.00  0.00    -0.305 NA
ATOM     21  C   LIG    1       -0.681  -2.505   1.197  0.00  0.00    +0.068 C 
ATOM     22  C   LIG    1        0.749  -1.959   1.177  0.00  0.00    -0.060 C 
ATOM     23  C   LIG    1        1.505  -2.463   2.407  0.00  0.00    -0.012 C 
ATOM     24  N   LIG    1        0.713  -0.491   1.192  0.00  0.00    +0.384 N 
ATOM     25  H   LIG    1        0.234  -0.175   2.022  0.00  0.00    -0.085 HD
ATOM     26  H   LIG    1        1.655  -0.131   1.191  0.00  0.00    -0.085 HD
ENDBRANCH  16  20
ENDBRANCH  15  16
ENDBRANCH   1  15
TORSDOF 4
