REMARK  Name = ZINC22309248
REMARK                            x       y       z     vdW  Elec       q    Type
REMARK                         _______ _______ _______ _____ _____    ______ ____
ROOT
ATOM      1  C   LIG    1        3.219   3.912   1.839  0.00  0.00    +0.225 A 
ATOM      2  N   LIG    1        3.124   5.170   2.236  0.00  0.00    -0.195 NA
ATOM      3  C   LIG    1        4.210   5.854   2.578  0.00  0.00    +0.167 A 
ATOM      4  C   LIG    1        5.466   5.227   2.501  0.00  0.00    +0.169 A 
ATOM      5  N   LIG    1        6.391   6.137   2.894  0.00  0.00    -0.229 NA
ATOM      6  C   LIG    1        5.798   7.253   3.200  0.00  0.00    +0.199 A 
ATOM      7  C   LIG    1        5.519   3.893   2.068  0.00  0.00    +0.248 A 
ATOM      8  N   LIG    1        4.451   7.129   3.022  0.00  0.00    -0.329 N 
ATOM      9  H   LIG    1        3.614   7.829   3.166  0.00  0.00    +0.168 HD
ATOM     10  N   LIG    1        4.384   3.283   1.751  0.00  0.00    -0.177 NA
ENDROOT
BRANCH   1  11
ATOM     11  N   LIG    1        2.062   3.229   1.496  0.00  0.00    -0.283 N 
ATOM     12  H   LIG    1        1.080   3.702   1.641  0.00  0.00    +0.155 HD
BRANCH  11  16
ATOM     13  C   LIG    1        2.304  -0.615  -0.086  0.00  0.00    +0.037 A 
ATOM     14  C   LIG    1        1.246  -0.271   0.761  0.00  0.00    +0.015 A 
ATOM     15  C   LIG    1        1.169   1.000   1.282  0.00  0.00    +0.024 A 
ATOM     16  C   LIG    1        2.143   1.943   0.967  0.00  0.00    +0.034 A 
ATOM     17  C   LIG    1        3.198   1.604   0.124  0.00  0.00    +0.024 A 
ATOM     18  C   LIG    1        3.281   0.335  -0.400  0.00  0.00    +0.015 A 
BRANCH  13  20
ATOM     19  N   LIG    1        2.238  -3.048   0.159  0.00  0.00    -0.298 N 
ATOM     20  C   LIG    1        2.390  -1.977  -0.646  0.00  0.00    +0.247 C 
ATOM     21  O   LIG    1        2.599  -2.134  -1.834  0.00  0.00    -0.270 OA
BRANCH  19  23
ATOM     22  C   LIG    1        3.727  -4.911  -0.383  0.00  0.00    +0.024 C 
ATOM     23  C   LIG    1        2.285  -4.399  -0.404  0.00  0.00    +0.104 C 
ENDBRANCH  19  23
BRANCH  19  24
ATOM     24  C   LIG    1        2.025  -2.859   1.596  0.00  0.00    +0.104 C 
ATOM     25  C   LIG    1        0.535  -3.001   1.913  0.00  0.00    +0.024 C 
ENDBRANCH  19  24
ENDBRANCH  13  20
ENDBRANCH  11  16
ENDBRANCH   1  11
BRANCH   7  26
ATOM     26  O   LIG    1        6.703   3.242   1.975  0.00  0.00    -0.475 OA
BRANCH  26  27
ATOM     27  C   LIG    1        6.665   1.886   1.526  0.00  0.00    +0.234 C 
BRANCH  27  28
ATOM     28  C   LIG    1        8.086   1.321   1.487  0.00  0.00    +0.027 C 
ATOM     29  C   LIG    1        8.904   2.073   0.435  0.00  0.00    +0.007 C 
ATOM     30  C   LIG    1       10.326   1.508   0.395  0.00  0.00    +0.000 C 
ATOM     31  C   LIG    1       10.274   0.022   0.035  0.00  0.00    +0.000 C 
ATOM     32  C   LIG    1        9.456  -0.730   1.087  0.00  0.00    +0.000 C 
ATOM     33  C   LIG    1        8.035  -0.165   1.127  0.00  0.00    +0.007 C 
ENDBRANCH  27  28
ENDBRANCH  26  27
ENDBRANCH   7  26
TORSDOF 8
