REMARK  Name = ZINC26639816
REMARK                            x       y       z     vdW  Elec       q    Type
REMARK                         _______ _______ _______ _____ _____    ______ ____
ROOT
ATOM      1  S   LIG    1       -2.585  -2.838  -0.811  0.00  0.00    +0.059 S 
ATOM      2  O   LIG    1       -3.832  -2.284  -0.415  0.00  0.00    -0.153 OA
ATOM      3  O   LIG    1       -2.279  -4.217  -0.655  0.00  0.00    -0.153 OA
ENDROOT
BRANCH   1   4
ATOM      4  C   LIG    1       -2.392  -2.470  -2.523  0.00  0.00    +0.105 A 
ATOM      5  C   LIG    1       -3.060  -1.393  -3.076  0.00  0.00    +0.029 A 
ATOM      6  C   LIG    1       -2.913  -1.100  -4.417  0.00  0.00    +0.010 A 
ATOM      7  C   LIG    1       -2.089  -1.893  -5.214  0.00  0.00    -0.018 A 
ATOM      8  C   LIG    1       -1.419  -2.977  -4.652  0.00  0.00    +0.010 A 
ATOM      9  C   LIG    1       -1.569  -3.257  -3.309  0.00  0.00    +0.029 A 
BRANCH   7  10
ATOM     10  C   LIG    1       -1.927  -1.584  -6.656  0.00  0.00    -0.018 A 
ATOM     11  C   LIG    1       -2.594  -0.496  -7.217  0.00  0.00    +0.010 A 
ATOM     12  C   LIG    1       -2.440  -0.213  -8.559  0.00  0.00    +0.020 A 
ATOM     13  C   LIG    1       -1.625  -1.007  -9.348  0.00  0.00    +0.041 A 
ATOM     14 CL   LIG    1       -1.436  -0.645 -11.035  0.00  0.00    -0.084 Cl
ATOM     15  C   LIG    1       -0.961  -2.089  -8.795  0.00  0.00    +0.020 A 
ATOM     16  C   LIG    1       -1.104  -2.377  -7.453  0.00  0.00    +0.010 A 
ENDBRANCH   7  10
ENDBRANCH   1   4
BRANCH   1  17
ATOM     17  N   LIG    1       -1.413  -1.998   0.005  0.00  0.00    -0.176 NA
ATOM     18  H   LIG    1       -0.714  -2.477   0.477  0.00  0.00    +0.149 HD
BRANCH  17  19
ATOM     19  C   LIG    1       -1.433  -0.534   0.013  0.00  0.00    +0.187 C 
BRANCH  19  21
ATOM     20  C   LIG    1       -0.019   1.526   0.010  0.00  0.00    +0.009 C 
ATOM     21  C   LIG    1        0.002  -0.004   0.002  0.00  0.00    +0.012 C 
ATOM     22  C   LIG    1        0.742  -0.511   1.242  0.00  0.00    +0.009 C 
ENDBRANCH  19  21
BRANCH  19  23
ATOM     23  C   LIG    1       -2.139  -0.048   1.253  0.00  0.00    +0.324 C 
ATOM     24  O   LIG    1       -2.745   1.010   1.234  0.00  0.00    -0.249 OA
BRANCH  23  25
ATOM     25  O   LIG    1       -2.103  -0.712   2.275  0.00  0.00    -0.479 OA
ATOM     26  H   LIG    1       -1.636  -1.524   2.289  0.00  0.00    +0.295 HD
ENDBRANCH  23  25
ENDBRANCH  19  23
ENDBRANCH  17  19
ENDBRANCH   1  17
TORSDOF 7
