REMARK  Name = ZINC36338909
REMARK                            x       y       z     vdW  Elec       q    Type
REMARK                         _______ _______ _______ _____ _____    ______ ____
ROOT
ATOM      1  N   LIG    1        0.747  -1.905  -1.147  0.00  0.00    -0.340 N 
ATOM      2  C   LIG    1        1.762  -2.695  -0.666  0.00  0.00    +0.050 A 
ATOM      3  C   LIG    1        2.896  -2.372   0.079  0.00  0.00    +0.028 A 
ATOM      4  C   LIG    1        3.746  -3.409   0.419  0.00  0.00    +0.025 A 
ATOM      5  C   LIG    1        3.497  -4.723   0.042  0.00  0.00    +0.035 A 
ATOM      6  C   LIG    1        2.374  -5.067  -0.702  0.00  0.00    +0.034 A 
ATOM      7  C   LIG    1        1.509  -4.030  -1.050  0.00  0.00    +0.010 A 
ATOM      8  C   LIG    1        0.256  -4.019  -1.809  0.00  0.00    +0.013 A 
ATOM      9  C   LIG    1       -0.499  -5.004  -2.427  0.00  0.00    -0.008 A 
ATOM     10  C   LIG    1       -0.334  -6.497  -2.568  0.00  0.00    +0.141 C 
ATOM     11  N   LIG    1       -1.489  -6.963  -3.343  0.00  0.00    -0.307 N 
ATOM     12  H   LIG    1       -1.665  -7.883  -3.598  0.00  0.00    +0.149 HD
ATOM     13  C   LIG    1       -2.270  -5.908  -3.627  0.00  0.00    +0.245 C 
ATOM     14  O   LIG    1       -3.309  -5.963  -4.258  0.00  0.00    -0.270 OA
ATOM     15  C   LIG    1       -1.686  -4.674  -3.080  0.00  0.00    +0.050 A 
ATOM     16  C   LIG    1       -2.096  -3.330  -3.119  0.00  0.00    +0.003 A 
ATOM     17  C   LIG    1       -3.292  -2.907  -3.881  0.00  0.00    +0.024 A 
ATOM     18  C   LIG    1       -4.315  -3.608  -4.413  0.00  0.00    +0.116 A 
ATOM     19  N   LIG    1       -5.156  -2.719  -4.989  0.00  0.00    -0.274 N 
ATOM     20  C   LIG    1       -6.404  -3.046  -5.683  0.00  0.00    +0.172 C 
ATOM     21  N   LIG    1       -4.627  -1.431  -4.811  0.00  0.00    -0.176 NA
ATOM     22  C   LIG    1       -3.515  -1.530  -4.160  0.00  0.00    +0.071 A 
ATOM     23  C   LIG    1       -2.528  -0.476  -3.728  0.00  0.00    +0.062 C 
ATOM     24  C   LIG    1       -1.848  -0.915  -2.433  0.00  0.00    +0.044 C 
ATOM     25  C   LIG    1       -1.363  -2.338  -2.476  0.00  0.00    -0.014 A 
ATOM     26  C   LIG    1       -0.173  -2.675  -1.835  0.00  0.00    +0.054 A 
ENDROOT
BRANCH   5  27
ATOM     27  N   LIG    1        4.401  -5.726   0.421  0.00  0.00    -0.269 N 
ATOM     28  H   LIG    1        5.351  -5.536   0.450  0.00  0.00    +0.156 HD
ATOM     29  C   LIG    1        3.948  -6.953   0.744  0.00  0.00    +0.310 C 
ATOM     30  N   LIG    1        4.804  -7.889   1.200  0.00  0.00    -0.258 N 
ATOM     31  C   LIG    1        6.241  -7.609   1.240  0.00  0.00    +0.140 C 
ATOM     32  O   LIG    1        2.767  -7.217   0.624  0.00  0.00    -0.252 OA
BRANCH  30  33
ATOM     33  C   LIG    1        4.320  -9.128   1.634  0.00  0.00    +0.037 A 
ATOM     34  C   LIG    1        3.748 -10.009   0.726  0.00  0.00    +0.023 A 
ATOM     35  C   LIG    1        3.271 -11.231   1.158  0.00  0.00    +0.002 A 
ATOM     36  C   LIG    1        3.364 -11.578   2.494  0.00  0.00    +0.000 A 
ATOM     37  C   LIG    1        3.933 -10.703   3.400  0.00  0.00    +0.002 A 
ATOM     38  C   LIG    1        4.417  -9.482   2.974  0.00  0.00    +0.023 A 
ENDBRANCH  30  33
ENDBRANCH   5  27
BRANCH   1  39
ATOM     39  C   LIG    1        0.650  -0.456  -0.954  0.00  0.00    +0.122 C 
BRANCH  39  41
ATOM     40  C   LIG    1        1.119   1.775  -1.977  0.00  0.00    +0.005 C 
ATOM     41  C   LIG    1        1.221   0.262  -2.179  0.00  0.00    +0.018 C 
ENDBRANCH  39  41
ENDBRANCH   1  39
TORSDOF 4
