REMARK  Name = ZINC22454203
REMARK                            x       y       z     vdW  Elec       q    Type
REMARK                         _______ _______ _______ _____ _____    ______ ____
ROOT
ATOM      1  C   LIG    1       -0.257  -0.201  -2.090  0.00  0.00    +0.248 C 
ATOM      2  N   LIG    1       -0.555   1.105  -2.248  0.00  0.00    -0.262 N 
ATOM      3  C   LIG    1       -1.513   1.504  -3.179  0.00  0.00    +0.064 A 
ATOM      4  C   LIG    1       -1.341   1.208  -4.523  0.00  0.00    +0.027 A 
ATOM      5  C   LIG    1       -2.269   1.636  -5.451  0.00  0.00    +0.002 A 
ATOM      6  C   LIG    1       -3.375   2.366  -5.047  0.00  0.00    +0.001 A 
ATOM      7  C   LIG    1       -3.569   2.655  -3.713  0.00  0.00    +0.015 A 
ATOM      8  C   LIG    1       -2.648   2.212  -2.760  0.00  0.00    +0.063 A 
ATOM      9  C   LIG    1       -2.903   2.445  -1.333  0.00  0.00    +0.258 A 
ATOM     10  N   LIG    1       -1.991   2.733  -0.418  0.00  0.00    -0.319 N 
ATOM     11  H   LIG    1       -2.310   2.840   0.492  0.00  0.00    +0.169 HD
ATOM     12  C   LIG    1       -0.624   2.901  -0.620  0.00  0.00    +0.085 A 
ATOM     13  C   LIG    1        0.048   3.909   0.065  0.00  0.00    +0.031 A 
ATOM     14  C   LIG    1        1.408   4.028  -0.098  0.00  0.00    +0.022 A 
ATOM     15  C   LIG    1        2.065   3.148  -0.934  0.00  0.00    +0.113 A 
ATOM     16  N   LIG    1        1.403   2.215  -1.590  0.00  0.00    -0.236 NA
ATOM     17  O   LIG    1       -4.057   2.365  -0.959  0.00  0.00    -0.267 OA
ATOM     18  C   LIG    1        0.089   2.077  -1.479  0.00  0.00    +0.164 A 
ATOM     19  O   LIG    1       -0.760  -1.030  -2.818  0.00  0.00    -0.271 OA
ENDROOT
BRANCH   1  20
ATOM     20  C   LIG    1        0.700  -0.629  -1.008  0.00  0.00    +0.184 C 
BRANCH  20  26
ATOM     21  C   LIG    1        1.603  -2.593   0.082  0.00  0.00    +0.041 C 
ATOM     22  C   LIG    1        1.735  -4.114  -0.026  0.00  0.00    +0.017 C 
ATOM     23  C   LIG    1        2.579  -4.462  -1.255  0.00  0.00    +0.003 C 
ATOM     24  C   LIG    1        1.923  -3.862  -2.502  0.00  0.00    +0.015 C 
ATOM     25  C   LIG    1        1.785  -2.348  -2.322  0.00  0.00    +0.085 C 
ATOM     26  N   LIG    1        0.969  -2.068  -1.133  0.00  0.00    -0.293 NA
BRANCH  21  27
ATOM     27  C   LIG    1        0.743  -2.241   1.298  0.00  0.00    -0.060 C 
BRANCH  27  28
ATOM     28  N   LIG    1        1.394  -2.738   2.518  0.00  0.00    +0.380 N 
ATOM     29  H   LIG    1        1.575  -3.726   2.424  0.00  0.00    -0.082 HD
BRANCH  28  31
ATOM     30  C   LIG    1        2.384  -0.529   2.884  0.00  0.00    -0.017 C 
ATOM     31  C   LIG    1        2.662  -2.025   2.723  0.00  0.00    -0.082 C 
ENDBRANCH  28  31
BRANCH  28  32
ATOM     32  C   LIG    1        0.512  -2.510   3.671  0.00  0.00    -0.082 C 
ATOM     33  C   LIG    1        1.142  -3.123   4.923  0.00  0.00    -0.017 C 
ENDBRANCH  28  32
ENDBRANCH  27  28
ENDBRANCH  21  27
ENDBRANCH  20  26
ENDBRANCH   1  20
TORSDOF 6
