REMARK  Name = ZINC13829391
REMARK                            x       y       z     vdW  Elec       q    Type
REMARK                         _______ _______ _______ _____ _____    ______ ____
ROOT
ATOM      1  N   LIG    1        5.073   5.440  -0.019  0.00  0.00    +0.386 N 
ATOM      2  H   LIG    1        4.611   5.779   0.811  0.00  0.00    -0.085 HD
ATOM      3  H   LIG    1        4.595   5.787  -0.837  0.00  0.00    -0.085 HD
ENDROOT
BRANCH   1   4
ATOM      4  C   LIG    1        5.050   3.971  -0.026  0.00  0.00    -0.063 C 
BRANCH   4   5
ATOM      5  C   LIG    1        3.600   3.483  -0.015  0.00  0.00    +0.084 C 
BRANCH   5   6
ATOM      6  N   LIG    1        3.578   2.018  -0.022  0.00  0.00    -0.331 N 
ATOM      7  H   LIG    1        4.410   1.520  -0.032  0.00  0.00    +0.147 HD
BRANCH   6  10
ATOM      8  C   LIG    1       -0.017   1.399   0.010  0.00  0.00    +0.024 A 
ATOM      9  C   LIG    1        1.177   2.068   0.002  0.00  0.00    +0.045 A 
ATOM     10  C   LIG    1        2.367   1.344  -0.013  0.00  0.00    +0.119 A 
ATOM     11  N   LIG    1        2.358   0.018  -0.020  0.00  0.00    -0.239 NA
ATOM     12  C   LIG    1        1.232  -0.665  -0.013  0.00  0.00    +0.131 A 
ATOM     13  C   LIG    1        0.002  -0.004   0.002  0.00  0.00    +0.070 A 
BRANCH  13  14
ATOM     14  C   LIG    1       -1.222  -0.747   0.010  0.00  0.00    +0.101 C 
ATOM     15  N   LIG    1       -2.193  -1.337   0.017  0.00  0.00    -0.191 NA
ENDBRANCH  13  14
ENDBRANCH   6  10
ENDBRANCH   5   6
ENDBRANCH   4   5
ENDBRANCH   1   4
BRANCH   1  16
ATOM     16  C   LIG    1        6.465   5.908  -0.030  0.00  0.00    +0.017 C 
BRANCH  16  17
ATOM     17  C   LIG    1        6.488   7.415  -0.023  0.00  0.00    +0.219 C 
ATOM     18  N   LIG    1        7.666   8.071  -0.031  0.00  0.00    -0.178 N 
ATOM     19  C   LIG    1        7.833   9.534  -0.019  0.00  0.00    +0.208 C 
ATOM     20  C   LIG    1        9.365   9.714  -0.036  0.00  0.00    +0.088 C 
ATOM     21  C   LIG    1        9.895   8.298  -0.056  0.00  0.00    +0.106 C 
ATOM     22  N   LIG    1        8.926   7.477  -0.046  0.00  0.00    -0.189 NA
ATOM     23  O   LIG    1        5.447   8.037  -0.010  0.00  0.00    -0.276 OA
BRANCH  19  24
ATOM     24  C   LIG    1        7.252  10.113   1.202  0.00  0.00    +0.087 C 
ATOM     25  N   LIG    1        6.803  10.561   2.145  0.00  0.00    -0.195 NA
ENDBRANCH  19  24
ENDBRANCH  16  17
ENDBRANCH   1  16
TORSDOF 8
