REMARK  Name = ZINC22445353
REMARK                            x       y       z     vdW  Elec       q    Type
REMARK                         _______ _______ _______ _____ _____    ______ ____
ROOT
ATOM      1  N   LIG    1       -0.018   1.465   0.010  0.00  0.00    +0.384 N 
ATOM      2  H   LIG    1       -0.507   1.790   0.940  0.00  0.00    -0.081 HD
ATOM      3  C   LIG    1       -0.799   1.987  -1.120  0.00  0.00    -0.063 C 
ATOM      4  C   LIG    1       -0.862   3.514  -1.031  0.00  0.00    +0.066 C 
ATOM      5  N   LIG    1        0.503   4.059  -1.041  0.00  0.00    -0.299 NA
ATOM      6  C   LIG    1        1.284   3.537   0.089  0.00  0.00    +0.066 C 
ATOM      7  C   LIG    1        1.347   2.010   0.000  0.00  0.00    -0.063 C 
ENDROOT
BRANCH   1   8
ATOM      8  C   LIG    1        0.002  -0.004   0.002  0.00  0.00    -0.043 C 
BRANCH   8  12
ATOM      9  C   LIG    1       -3.941  -1.488   0.732  0.00  0.00    -0.018 A 
ATOM     10  C   LIG    1       -3.517  -1.241  -0.573  0.00  0.00    +0.009 A 
ATOM     11  C   LIG    1       -2.243  -0.762  -0.802  0.00  0.00    +0.002 A 
ATOM     12  C   LIG    1       -1.388  -0.527   0.259  0.00  0.00    -0.064 A 
ATOM     13  C   LIG    1       -1.802  -0.775   1.556  0.00  0.00    +0.002 A 
ATOM     14  C   LIG    1       -3.075  -1.249   1.797  0.00  0.00    +0.009 A 
BRANCH   9  18
ATOM     15  C   LIG    1       -7.862  -2.964   1.457  0.00  0.00    +0.000 A 
ATOM     16  C   LIG    1       -7.007  -2.729   2.519  0.00  0.00    +0.001 A 
ATOM     17  C   LIG    1       -5.733  -2.250   2.289  0.00  0.00    +0.008 A 
ATOM     18  C   LIG    1       -5.309  -2.003   0.985  0.00  0.00    -0.018 A 
ATOM     19  C   LIG    1       -6.176  -2.237  -0.080  0.00  0.00    +0.008 A 
ATOM     20  C   LIG    1       -7.446  -2.721   0.161  0.00  0.00    +0.001 A 
ENDBRANCH   9  18
ENDBRANCH   8  12
ENDBRANCH   1   8
BRANCH   5  21
ATOM     21  C   LIG    1        0.483   5.528  -1.033  0.00  0.00    +0.162 C 
BRANCH  21  22
ATOM     22  C   LIG    1       -0.517   6.022  -2.046  0.00  0.00    +0.166 A 
ATOM     23  N   LIG    1       -0.120   6.254  -3.280  0.00  0.00    -0.222 NA
ATOM     24  C   LIG    1       -1.008   6.684  -4.170  0.00  0.00    +0.151 A 
ATOM     25  C   LIG    1       -0.666   6.964  -5.565  0.00  0.00    +0.149 A 
ATOM     26  N   LIG    1       -1.636   7.394  -6.360  0.00  0.00    -0.198 NA
ATOM     27  C   LIG    1       -2.874   7.567  -5.908  0.00  0.00    +0.216 A 
ATOM     28  N   LIG    1       -3.235   7.330  -4.662  0.00  0.00    -0.191 NA
ATOM     29  C   LIG    1       -2.350   6.892  -3.760  0.00  0.00    +0.207 A 
ATOM     30  N   LIG    1       -2.677   6.640  -2.490  0.00  0.00    -0.126 NA
ATOM     31  N   LIG    1       -1.773   6.219  -1.672  0.00  0.00    -0.131 NA
BRANCH  25  32
ATOM     32  N   LIG    1        0.617   6.786  -6.035  0.00  0.00    -0.341 N 
ATOM     33  H   LIG    1        1.406   6.428  -5.358  0.00  0.00    +0.144 HD
ATOM     34  H   LIG    1        0.851   7.002  -7.088  0.00  0.00    +0.144 HD
ENDBRANCH  25  32
BRANCH  27  35
ATOM     35  N   LIG    1       -3.836   8.019  -6.791  0.00  0.00    -0.327 N 
ATOM     36  H   LIG    1       -3.567   8.226  -7.838  0.00  0.00    +0.145 HD
ATOM     37  H   LIG    1       -4.870   8.171  -6.449  0.00  0.00    +0.145 HD
ENDBRANCH  27  35
ENDBRANCH  21  22
ENDBRANCH   5  21
TORSDOF 7
