REMARK  Name = ZINC18164784
REMARK                            x       y       z     vdW  Elec       q    Type
REMARK                         _______ _______ _______ _____ _____    ______ ____
ROOT
ATOM      1  C   LIG    1        3.684   2.033  -0.023  0.00  0.00    +0.183 A 
ATOM      2  N   LIG    1        3.860   3.337  -0.024  0.00  0.00    -0.152 NA
ATOM      3  N   LIG    1        5.246   3.562  -0.030  0.00  0.00    -0.258 N 
ATOM      4  C   LIG    1        5.831   2.341  -0.042  0.00  0.00    +0.157 A 
ATOM      5  H   LIG    1        5.695   4.421  -0.030  0.00  0.00    +0.191 HD
ATOM      6  N   LIG    1        4.878   1.433  -0.037  0.00  0.00    -0.207 NA
ENDROOT
BRANCH   1   9
ATOM      7  C   LIG    1       -0.017   1.379   0.010  0.00  0.00    +0.020 A 
ATOM      8  C   LIG    1        1.182   2.072   0.002  0.00  0.00    +0.014 A 
ATOM      9  C   LIG    1        2.371   1.339  -0.013  0.00  0.00    +0.039 A 
ATOM     10  C   LIG    1        2.306  -0.052  -0.020  0.00  0.00    +0.122 A 
ATOM     11  N   LIG    1        1.142  -0.669  -0.012  0.00  0.00    -0.263 NA
ATOM     12  C   LIG    1        0.002  -0.004   0.002  0.00  0.00    +0.111 A 
ENDBRANCH   1   9
BRANCH   4  13
ATOM     13  C   LIG    1        7.287   2.075  -0.058  0.00  0.00    +0.022 A 
ATOM     14  C   LIG    1        8.210   3.126  -0.055  0.00  0.00    +0.031 A 
ATOM     15  C   LIG    1        9.558   2.832  -0.070  0.00  0.00    +0.111 A 
ATOM     16  N   LIG    1        9.979   1.582  -0.086  0.00  0.00    -0.263 NA
ATOM     17  C   LIG    1        9.143   0.562  -0.089  0.00  0.00    +0.111 A 
ATOM     18  C   LIG    1        7.778   0.765  -0.070  0.00  0.00    +0.031 A 
ENDBRANCH   4  13
TORSDOF 2
