REMARK  Name = ZINC28245996
REMARK                            x       y       z     vdW  Elec       q    Type
REMARK                         _______ _______ _______ _____ _____    ______ ____
ROOT
ATOM      1  C   LIG    1       -1.155   2.160  -0.741  0.00  0.00    +0.001 C 
ATOM      2  C   LIG    1       -1.141   2.152   0.790  0.00  0.00    -0.001 C 
ATOM      3  C   LIG    1       -0.018   1.465   0.010  0.00  0.00    +0.032 C 
ENDROOT
BRANCH   3   4
ATOM      4  N   LIG    1        0.002  -0.004   0.002  0.00  0.00    +0.389 N 
ATOM      5  H   LIG    1       -0.923  -0.386   0.458  0.00  0.00    -0.088 HD
ATOM      6  H   LIG    1        0.075  -0.364  -1.035  0.00  0.00    -0.088 HD
ATOM      7  H   LIG    1        0.869  -0.362   0.577  0.00  0.00    -0.088 HD
ENDBRANCH   3   4
BRANCH   3   8
ATOM      8  C   LIG    1        1.333   2.133   0.001  0.00  0.00    +0.293 C 
ATOM      9  O   LIG    1        1.418   3.325   0.178  0.00  0.00    -0.253 OA
BRANCH   8  10
ATOM     10  O   LIG    1        2.441   1.404  -0.204  0.00  0.00    -0.482 OA
ATOM     11  H   LIG    1        2.375   0.480  -0.341  0.00  0.00    +0.295 HD
ENDBRANCH   8  10
ENDBRANCH   3   8
BRANCH   2  12
ATOM     12  C   LIG    1       -0.806   3.465   1.500  0.00  0.00    +0.129 C 
BRANCH  12  13
ATOM     13  P   LIG    1       -2.121   3.859   2.700  0.00  0.00    +0.328 P 
ATOM     14  O   LIG    1       -2.303   2.717   3.625  0.00  0.00    -0.259 OA
BRANCH  13  15
ATOM     15  O   LIG    1       -3.499   4.138   1.915  0.00  0.00    -0.324 OA
ATOM     16  H   LIG    1       -3.748   3.348   1.409  0.00  0.00    +0.220 HD
ENDBRANCH  13  15
BRANCH  13  17
ATOM     17  O   LIG    1       -1.707   5.169   3.539  0.00  0.00    -0.324 OA
ATOM     18  H   LIG    1       -0.877   5.001   4.013  0.00  0.00    +0.220 HD
ENDBRANCH  13  17
ENDBRANCH  12  13
ENDBRANCH   2  12
TORSDOF 7
