REMARK  Name = ZINC14607247
REMARK                            x       y       z     vdW  Elec       q    Type
REMARK                         _______ _______ _______ _____ _____    ______ ____
ROOT
ATOM      1  C   LIG    1        0.292   0.975  -0.573  0.00  0.00    +0.028 C 
ATOM      2  C   LIG    1       -0.719   0.060   0.122  0.00  0.00    +0.081 C 
ATOM      3  C   LIG    1       -0.807  -1.278  -0.624  0.00  0.00    +0.051 C 
ATOM      4  C   LIG    1       -1.872  -2.147   0.045  0.00  0.00    +0.131 C 
ATOM      5  C   LIG    1       -1.628  -2.230   1.529  0.00  0.00    -0.004 A 
ATOM      6  C   LIG    1       -2.187  -3.278   2.242  0.00  0.00    +0.007 A 
ATOM      7  C   LIG    1       -1.985  -3.380   3.605  0.00  0.00    +0.000 A 
ATOM      8  C   LIG    1       -1.222  -2.435   4.267  0.00  0.00    +0.002 A 
ATOM      9  C   LIG    1       -0.661  -1.388   3.563  0.00  0.00    +0.024 A 
ATOM     10  C   LIG    1       -0.862  -1.284   2.191  0.00  0.00    +0.042 A 
ATOM     11  N   LIG    1       -0.277  -0.218   1.495  0.00  0.00    -0.264 N 
ATOM     12  C   LIG    1        0.675   0.539   2.075  0.00  0.00    +0.251 C 
ATOM     13  O   LIG    1        1.036   1.572   1.545  0.00  0.00    -0.270 OA
ENDROOT
BRANCH  12  14
ATOM     14  C   LIG    1        1.281   0.114   3.354  0.00  0.00    +0.037 A 
ATOM     15  C   LIG    1        1.615  -1.226   3.560  0.00  0.00    +0.013 A 
ATOM     16  C   LIG    1        2.180  -1.616   4.757  0.00  0.00    +0.001 A 
ATOM     17  C   LIG    1        2.416  -0.684   5.751  0.00  0.00    +0.000 A 
ATOM     18  C   LIG    1        2.086   0.646   5.553  0.00  0.00    +0.001 A 
ATOM     19  C   LIG    1        1.526   1.050   4.360  0.00  0.00    +0.013 A 
ENDBRANCH  12  14
BRANCH   4  20
ATOM     20  N   LIG    1       -1.826  -3.495  -0.527  0.00  0.00    -0.196 N 
BRANCH  20  21
ATOM     21  C   LIG    1       -0.605  -4.164  -0.642  0.00  0.00    +0.052 A 
ATOM     22  C   LIG    1        0.075  -4.572   0.498  0.00  0.00    +0.025 A 
ATOM     23  C   LIG    1        1.282  -5.233   0.381  0.00  0.00    +0.002 A 
ATOM     24  C   LIG    1        1.813  -5.489  -0.870  0.00  0.00    +0.000 A 
ATOM     25  C   LIG    1        1.139  -5.084  -2.007  0.00  0.00    +0.002 A 
ATOM     26  C   LIG    1       -0.071  -4.427  -1.897  0.00  0.00    +0.025 A 
ENDBRANCH  20  21
BRANCH  20  27
ATOM     27  S   LIG    1       -3.221  -4.225  -1.039  0.00  0.00    +0.075 S 
ATOM     28  O   LIG    1       -4.290  -3.582  -0.357  0.00  0.00    -0.150 OA
ATOM     29  O   LIG    1       -3.000  -5.626  -0.958  0.00  0.00    -0.150 OA
BRANCH  27  30
ATOM     30  C   LIG    1       -3.413  -3.844  -2.749  0.00  0.00    +0.109 A 
ATOM     31  C   LIG    1       -4.103  -2.709  -3.131  0.00  0.00    +0.029 A 
ATOM     32  C   LIG    1       -4.253  -2.410  -4.472  0.00  0.00    +0.002 A 
ATOM     33  C   LIG    1       -3.712  -3.246  -5.431  0.00  0.00    +0.000 A 
ATOM     34  C   LIG    1       -3.021  -4.380  -5.049  0.00  0.00    +0.002 A 
ATOM     35  C   LIG    1       -2.868  -4.677  -3.708  0.00  0.00    +0.029 A 
ENDBRANCH  27  30
ENDBRANCH  20  27
ENDBRANCH   4  20
TORSDOF 5
