REMARK  Name = ZINC19632713
REMARK                            x       y       z     vdW  Elec       q    Type
REMARK                         _______ _______ _______ _____ _____    ______ ____
ROOT
ATOM      1  C   LIG    1        0.129   1.484   0.339  0.00  0.00    +0.061 C 
ATOM      2  C   LIG    1        0.074  -0.012   0.163  0.00  0.00    +0.016 C 
ATOM      3  C   LIG    1       -1.117  -0.634   0.136  0.00  0.00    +0.065 C 
ATOM      4  C   LIG    1       -1.220  -2.122  -0.046  0.00  0.00    +0.096 C 
ATOM      5  C   LIG    1        0.105  -2.781   0.208  0.00  0.00    +0.065 C 
ATOM      6  C   LIG    1        1.248  -2.073   0.232  0.00  0.00    +0.016 C 
ATOM      7  C   LIG    1        2.556  -2.778   0.482  0.00  0.00    +0.061 C 
ATOM      8  N   LIG    1        1.237  -0.719   0.026  0.00  0.00    -0.321 N 
ATOM      9  H   LIG    1        2.057  -0.259  -0.212  0.00  0.00    +0.152 HD
ENDROOT
BRANCH   4  10
ATOM     10  C   LIG    1       -1.660  -2.420  -1.456  0.00  0.00    -0.033 A 
ATOM     11  C   LIG    1       -0.885  -2.007  -2.524  0.00  0.00    +0.005 A 
ATOM     12  C   LIG    1       -1.288  -2.281  -3.817  0.00  0.00    +0.003 A 
ATOM     13  C   LIG    1       -2.466  -2.968  -4.043  0.00  0.00    +0.032 A 
ATOM     14  C   LIG    1       -3.241  -3.382  -2.976  0.00  0.00    +0.122 A 
ATOM     15  C   LIG    1       -2.835  -3.112  -1.682  0.00  0.00    +0.037 A 
BRANCH  14  16
ATOM     16  N   LIG    1       -4.502  -4.118  -3.217  0.00  0.00    +0.006 N 
ATOM     17  O   LIG    1       -4.856  -4.356  -4.349  0.00  0.00    -0.130 OA
BRANCH  16  18
ATOM     18  O   LIG    1       -5.179  -4.479  -2.284  0.00  0.00    -0.396 OA
ATOM     19  H   LIG    1       -4.906  -4.294  -1.407  0.00  0.00    +0.329 HD
ENDBRANCH  16  18
ENDBRANCH  14  16
ENDBRANCH   4  10
BRANCH   3  20
ATOM     20  C   LIG    1       -2.300   0.129   0.282  0.00  0.00    +0.338 C 
ATOM     21  O   LIG    1       -2.231   1.334   0.430  0.00  0.00    -0.245 OA
BRANCH  20  22
ATOM     22  O   LIG    1       -3.503  -0.481   0.257  0.00  0.00    -0.459 OA
BRANCH  22  23
ATOM     23  C   LIG    1       -4.655   0.350   0.410  0.00  0.00    +0.260 C 
BRANCH  23  24
ATOM     24  C   LIG    1       -5.918  -0.512   0.356  0.00  0.00    +0.200 C 
BRANCH  24  25
ATOM     25  O   LIG    1       -5.938  -1.397   1.478  0.00  0.00    -0.380 OA
ATOM     26  C   LIG    1       -7.082  -2.252   1.523  0.00  0.00    +0.194 C 
ENDBRANCH  24  25
ENDBRANCH  23  24
ENDBRANCH  22  23
ENDBRANCH  20  22
ENDBRANCH   3  20
BRANCH   5  27
ATOM     27  C   LIG    1        0.153  -4.178   0.427  0.00  0.00    +0.338 C 
ATOM     28  O   LIG    1       -0.227  -4.641   1.486  0.00  0.00    -0.245 OA
BRANCH  27  29
ATOM     29  O   LIG    1        0.618  -4.997  -0.539  0.00  0.00    -0.459 OA
BRANCH  29  30
ATOM     30  C   LIG    1        0.637  -6.396  -0.250  0.00  0.00    +0.171 C 
ATOM     31  C   LIG    1        1.786  -7.059  -1.012  0.00  0.00    +0.052 C 
ATOM     32  C   LIG    1       -0.690  -7.024  -0.680  0.00  0.00    +0.052 C 
ENDBRANCH  29  30
ENDBRANCH  27  29
ENDBRANCH   5  27
TORSDOF 11
