REMARK  Name = ZINC00006157
REMARK                            x       y       z     vdW  Elec       q    Type
REMARK                         _______ _______ _______ _____ _____    ______ ____
ROOT
ATOM      1  C   LIG    1       -0.017   1.369   0.010  0.00  0.00    +0.000 A 
ATOM      2  C   LIG    1        1.179   2.064   0.002  0.00  0.00    +0.000 A 
ATOM      3  C   LIG    1        2.361   1.364  -0.038  0.00  0.00    +0.007 A 
ATOM      4  C   LIG    1        2.382  -0.035  -0.055  0.00  0.00    -0.006 A 
ATOM      5  C   LIG    1        1.205  -0.725  -0.005  0.00  0.00    -0.037 A 
ATOM      6  C   LIG    1        1.026  -2.204   0.108  0.00  0.00    +0.074 C 
ATOM      7  C   LIG    1        1.811  -3.032  -0.856  0.00  0.00    -0.006 A 
ATOM      8  C   LIG    1        1.184  -3.805  -1.813  0.00  0.00    +0.007 A 
ATOM      9  C   LIG    1        1.935  -4.620  -2.640  0.00  0.00    +0.000 A 
ATOM     10  C   LIG    1        3.311  -4.670  -2.506  0.00  0.00    +0.003 A 
ATOM     11  C   LIG    1        3.945  -3.875  -1.570  0.00  0.00    +0.040 A 
ATOM     12  C   LIG    1        3.194  -3.026  -0.768  0.00  0.00    +0.098 A 
ATOM     13  N   LIG    1        3.820  -2.071   0.029  0.00  0.00    -0.185 N 
ATOM     14  C   LIG    1        4.606  -2.328   1.127  0.00  0.00    +0.335 C 
ATOM     15  N   LIG    1        5.093  -1.268   1.685  0.00  0.00    -0.278 N 
ATOM     16  H   LIG    1        5.670  -1.264   2.465  0.00  0.00    +0.258 HD
ATOM     17  C   LIG    1        4.645  -0.068   0.963  0.00  0.00    +0.239 C 
ATOM     18  C   LIG    1        3.755  -0.631  -0.166  0.00  0.00    +0.208 C 
ATOM     19  C   LIG    1        0.002  -0.004   0.002  0.00  0.00    +0.004 A 
ENDROOT
BRANCH  14  20
ATOM     20  N   LIG    1        4.854  -3.599   1.590  0.00  0.00    -0.254 N 
ATOM     21  H   LIG    1        5.416  -3.731   2.369  0.00  0.00    +0.241 HD
ATOM     22  H   LIG    1        4.465  -4.364   1.137  0.00  0.00    +0.241 HD
ENDBRANCH  14  20
TORSDOF 1
