REMARK  Name = ZINC13804669
REMARK                            x       y       z     vdW  Elec       q    Type
REMARK                         _______ _______ _______ _____ _____    ______ ____
ROOT
ATOM      1  N   LIG    1        4.482  -2.859  -4.296  0.00  0.00    -0.162 NA
ATOM      2  C   LIG    1        5.586  -2.118  -4.922  0.00  0.00    +0.129 C 
ATOM      3  C   LIG    1        6.767  -3.076  -5.125  0.00  0.00    +0.125 C 
ATOM      4  N   LIG    1        7.016  -3.788  -3.864  0.00  0.00    -0.294 N 
ATOM      5  C   LIG    1        8.236  -3.762  -3.291  0.00  0.00    +0.247 C 
ATOM      6  O   LIG    1        9.109  -3.053  -3.753  0.00  0.00    -0.270 OA
ATOM      7  C   LIG    1        5.912  -4.529  -3.238  0.00  0.00    +0.138 C 
ATOM      8  C   LIG    1        4.730  -3.566  -3.032  0.00  0.00    +0.185 C 
ENDROOT
BRANCH   5   9
ATOM      9  C   LIG    1        8.512  -4.594  -2.102  0.00  0.00    +0.037 A 
ATOM     10  C   LIG    1        7.904  -5.845  -1.968  0.00  0.00    +0.013 A 
ATOM     11  C   LIG    1        8.162  -6.620  -0.860  0.00  0.00    +0.009 A 
ATOM     12  C   LIG    1        9.030  -6.157   0.129  0.00  0.00    -0.018 A 
ATOM     13  C   LIG    1        9.637  -4.908  -0.004  0.00  0.00    +0.009 A 
ATOM     14  C   LIG    1        9.385  -4.133  -1.114  0.00  0.00    +0.013 A 
BRANCH  12  15
ATOM     15  C   LIG    1        9.307  -6.992   1.322  0.00  0.00    -0.018 A 
ATOM     16  C   LIG    1        8.706  -8.243   1.455  0.00  0.00    +0.008 A 
ATOM     17  C   LIG    1        8.968  -9.017   2.567  0.00  0.00    +0.001 A 
ATOM     18  C   LIG    1        9.826  -8.553   3.549  0.00  0.00    +0.000 A 
ATOM     19  C   LIG    1       10.425  -7.313   3.422  0.00  0.00    +0.001 A 
ATOM     20  C   LIG    1       10.174  -6.533   2.312  0.00  0.00    +0.008 A 
ENDBRANCH  12  15
ENDBRANCH   5   9
BRANCH   8  21
ATOM     21  C   LIG    1        3.502  -4.346  -2.639  0.00  0.00    +0.256 C 
ATOM     22  N   LIG    1        2.799  -3.990  -1.546  0.00  0.00    -0.196 N 
ATOM     23  H   LIG    1        3.083  -3.232  -1.012  0.00  0.00    +0.182 HD
ATOM     24  O   LIG    1        3.146  -5.294  -3.307  0.00  0.00    -0.272 OA
BRANCH  22  25
ATOM     25  O   LIG    1        1.645  -4.723  -1.177  0.00  0.00    -0.295 OA
ATOM     26  H   LIG    1        1.208  -4.394  -0.380  0.00  0.00    +0.241 HD
ENDBRANCH  22  25
ENDBRANCH   8  21
BRANCH   1  27
ATOM     27  S   LIG    1        2.983  -2.891  -5.000  0.00  0.00    +0.062 S 
ATOM     28  O   LIG    1        2.081  -3.368  -4.011  0.00  0.00    -0.153 OA
ATOM     29  O   LIG    1        2.812  -1.638  -5.648  0.00  0.00    -0.153 OA
BRANCH  27  33
ATOM     30  C   LIG    1        3.103  -6.029  -8.263  0.00  0.00    +0.120 A 
ATOM     31  C   LIG    1        2.732  -6.381  -6.974  0.00  0.00    +0.047 A 
ATOM     32  C   LIG    1        2.696  -5.422  -5.980  0.00  0.00    +0.032 A 
ATOM     33  C   LIG    1        3.030  -4.112  -6.270  0.00  0.00    +0.106 A 
ATOM     34  C   LIG    1        3.399  -3.758  -7.554  0.00  0.00    +0.032 A 
ATOM     35  C   LIG    1        3.442  -4.714  -8.550  0.00  0.00    +0.047 A 
BRANCH  30  37
ATOM     36  C   LIG    1        2.776  -8.303  -8.875  0.00  0.00    +0.277 C 
ATOM     37  O   LIG    1        3.139  -6.970  -9.242  0.00  0.00    -0.495 OA
ENDBRANCH  30  37
ENDBRANCH  27  33
ENDBRANCH   1  27
TORSDOF 7
