REMARK  Name = ZINC28373528
REMARK                            x       y       z     vdW  Elec       q    Type
REMARK                         _______ _______ _______ _____ _____    ______ ____
ROOT
ATOM      1  C   LIG    1       -2.248   0.885  -2.961  0.00  0.00    +0.047 C 
ATOM      2  C   LIG    1       -0.859   0.581  -2.317  0.00  0.00    +0.051 C 
ATOM      3  C   LIG    1       -0.828   1.631  -1.183  0.00  0.00    +0.168 C 
ATOM      4  C   LIG    1       -0.013   1.086   0.008  0.00  0.00    +0.059 C 
ATOM      5  C   LIG    1       -0.806   1.619   1.223  0.00  0.00    +0.127 C 
ATOM      6  C   LIG    1       -2.159   2.023   0.659  0.00  0.00    +0.238 C 
ATOM      7  N   LIG    1       -3.104   2.606   1.323  0.00  0.00    -0.292 N 
ATOM      8  H   LIG    1       -2.962   2.848   2.386  0.00  0.00    +0.301 HD
ATOM      9  H   LIG    1       -4.051   2.858   0.823  0.00  0.00    +0.301 HD
ATOM     10  N   LIG    1       -2.215   1.672  -0.664  0.00  0.00    -0.225 N 
ATOM     11  C   LIG    1       -3.122   1.286  -1.754  0.00  0.00    +0.226 C 
ENDROOT
TORSDOF 0
