REMARK  Name = ZINC17042869
REMARK                            x       y       z     vdW  Elec       q    Type
REMARK                         _______ _______ _______ _____ _____    ______ ____
ROOT
ATOM      1  C   LIG    1        1.911  -1.723   0.412  0.00  0.00    +0.000 A 
ATOM      2  C   LIG    1        1.617  -0.404   0.147  0.00  0.00    +0.015 A 
ATOM      3  C   LIG    1        0.303   0.059   0.291  0.00  0.00    -0.023 A 
ATOM      4  C   LIG    1       -0.703  -0.822   0.708  0.00  0.00    +0.015 A 
ATOM      5  C   LIG    1       -0.398  -2.139   0.964  0.00  0.00    +0.000 A 
ATOM      6  C   LIG    1        0.908  -2.594   0.820  0.00  0.00    +0.124 A 
ENDROOT
BRANCH   3   7
ATOM      7  C   LIG    1       -0.018   1.464   0.010  0.00  0.00    +0.028 C 
ATOM      8  C   LIG    1       -1.312   1.871  -0.024  0.00  0.00    +0.074 C 
ATOM      9  C   LIG    1       -1.868   3.236  -0.113  0.00  0.00    +0.217 C 
ATOM     10  N   LIG    1       -3.186   3.340  -0.128  0.00  0.00    -0.165 NA
ATOM     11  C   LIG    1       -3.979   2.251  -0.065  0.00  0.00    +0.139 C 
ATOM     12  S   LIG    1       -5.690   2.180  -0.072  0.00  0.00    -0.026 S 
ATOM     13  S   LIG    1       -2.813   0.901   0.018  0.00  0.00    -0.060 S 
BRANCH   9  14
ATOM     14  O   LIG    1       -1.149   4.217  -0.169  0.00  0.00    -0.493 OA
ATOM     15  H   LIG    1       -0.217   4.116  -0.156  0.00  0.00    +0.294 HD
ENDBRANCH   9  14
ENDBRANCH   3   7
BRANCH   1  17
ATOM     16  C   LIG    1        4.226  -1.073  -0.198  0.00  0.00    +0.015 C 
ATOM     17  C   LIG    1        3.325  -2.223   0.258  0.00  0.00    -0.009 C 
ATOM     18  C   LIG    1        3.360  -3.342  -0.784  0.00  0.00    +0.015 C 
ATOM     19  C   LIG    1        3.824  -2.760   1.601  0.00  0.00    +0.015 C 
ENDBRANCH   1  17
BRANCH   5  20
ATOM     20  C   LIG    1       -1.480  -3.090   1.407  0.00  0.00    -0.009 C 
ATOM     21  C   LIG    1       -1.130  -3.654   2.786  0.00  0.00    +0.015 C 
ATOM     22  C   LIG    1       -1.596  -4.236   0.401  0.00  0.00    +0.015 C 
ATOM     23  C   LIG    1       -2.813  -2.343   1.486  0.00  0.00    +0.015 C 
ENDBRANCH   5  20
BRANCH   6  24
ATOM     24  O   LIG    1        1.204  -3.893   1.079  0.00  0.00    -0.506 OA
ATOM     25  H   LIG    1        0.412  -4.584   1.402  0.00  0.00    +0.292 HD
ENDBRANCH   6  24
TORSDOF 5
