REMARK  Name = ZINC13985099
REMARK                            x       y       z     vdW  Elec       q    Type
REMARK                         _______ _______ _______ _____ _____    ______ ____
ROOT
ATOM      1  C   LIG    1        1.698  -1.861  -0.024  0.00  0.00    +0.149 C 
ATOM      2  N   LIG    1        1.296  -0.453  -0.013  0.00  0.00    -0.349 N 
ATOM      3  C   LIG    1        0.002  -0.004   0.002  0.00  0.00    +0.090 A 
ATOM      4  C   LIG    1       -0.016   1.338   0.009  0.00  0.00    -0.020 A 
ATOM      5  C   LIG    1        1.379   1.785  -0.002  0.00  0.00    +0.044 A 
ATOM      6  C   LIG    1        1.997   3.041   0.000  0.00  0.00    +0.126 A 
ATOM      7  C   LIG    1        3.377   3.122  -0.012  0.00  0.00    +0.046 A 
ATOM      8  C   LIG    1        4.145   1.967  -0.026  0.00  0.00    +0.006 A 
ATOM      9  C   LIG    1        3.550   0.725  -0.028  0.00  0.00    +0.026 A 
ATOM     10  C   LIG    1        2.162   0.618  -0.015  0.00  0.00    +0.053 A 
ENDROOT
BRANCH   6  11
ATOM     11  O   LIG    1        1.246   4.173   0.014  0.00  0.00    -0.506 OA
ATOM     12  H   LIG    1        1.020   4.507  -0.865  0.00  0.00    +0.292 HD
ENDBRANCH   6  11
BRANCH   4  13
ATOM     13  C   LIG    1       -1.240   2.218   0.020  0.00  0.00    +0.019 C 
BRANCH  13  14
ATOM     14  C   LIG    1       -1.588   2.625  -1.413  0.00  0.00    -0.075 C 
BRANCH  14  15
ATOM     15  N   LIG    1       -2.776   3.504  -1.384  0.00  0.00    +0.376 N 
ATOM     16  H   LIG    1       -2.611   4.265  -0.714  0.00  0.00    -0.083 HD
ATOM     17  C   LIG    1       -3.962   2.735  -0.955  0.00  0.00    -0.097 C 
ATOM     18  C   LIG    1       -3.007   4.085  -2.723  0.00  0.00    -0.097 C 
ENDBRANCH  14  15
ENDBRANCH  13  14
ENDBRANCH   4  13
TORSDOF 4
