REMARK  Name = ZINC19364273
REMARK                            x       y       z     vdW  Elec       q    Type
REMARK                         _______ _______ _______ _____ _____    ______ ____
ROOT
ATOM      1  C   LIG    1        4.499  -1.742  -1.220  0.00  0.00    -0.071 C 
ATOM      2  C   LIG    1        5.835  -2.322  -0.750  0.00  0.00    -0.082 C 
ATOM      3  C   LIG    1        6.868  -2.157  -1.872  0.00  0.00    -0.030 C 
ATOM      4  C   LIG    1        6.350  -2.886  -3.118  0.00  0.00    -0.017 C 
ATOM      5  C   LIG    1        4.997  -2.289  -3.512  0.00  0.00    -0.078 C 
ATOM      6  C   LIG    1        6.991  -0.663  -2.201  0.00  0.00    -0.017 C 
ATOM      7  C   LIG    1        5.621  -0.138  -2.622  0.00  0.00    -0.078 C 
ATOM      8  N   LIG    1        4.633  -1.218  -2.581  0.00  0.00    +0.381 N 
ATOM      9  H   LIG    1        3.743  -0.838  -2.866  0.00  0.00    -0.081 HD
ENDROOT
BRANCH   2  10
ATOM     10  N   LIG    1        6.288  -1.604   0.449  0.00  0.00    +0.383 N 
ATOM     11  H   LIG    1        5.612  -1.724   1.188  0.00  0.00    -0.085 HD
ATOM     12  H   LIG    1        6.385  -0.622   0.237  0.00  0.00    -0.085 HD
BRANCH  10  13
ATOM     13  C   LIG    1        7.585  -2.142   0.881  0.00  0.00    -0.045 C 
BRANCH  13  14
ATOM     14  C   LIG    1        7.985  -1.503   2.186  0.00  0.00    -0.051 A 
ATOM     15  C   LIG    1        8.849  -0.424   2.191  0.00  0.00    +0.003 A 
ATOM     16  C   LIG    1        9.216   0.163   3.388  0.00  0.00    +0.000 A 
ATOM     17  C   LIG    1        8.718  -0.330   4.580  0.00  0.00    +0.001 A 
ATOM     18  C   LIG    1        7.854  -1.408   4.576  0.00  0.00    +0.014 A 
ATOM     19  C   LIG    1        7.482  -1.992   3.378  0.00  0.00    +0.015 A 
ATOM     20  I   LIG    1        6.165  -3.621   3.370  0.00  0.00    -0.044 I 
ENDBRANCH  13  14
ENDBRANCH  10  13
ENDBRANCH   2  10
BRANCH   1  21
ATOM     21  C   LIG    1        4.077  -0.612  -0.280  0.00  0.00    +0.034 C 
BRANCH  21  25
ATOM     22  C   LIG    1        0.816   1.536  -2.012  0.00  0.00    +0.000 A 
ATOM     23  C   LIG    1        1.960   2.210  -1.625  0.00  0.00    +0.000 A 
ATOM     24  C   LIG    1        3.014   1.515  -1.064  0.00  0.00    +0.004 A 
ATOM     25  C   LIG    1        2.926   0.146  -0.890  0.00  0.00    -0.042 A 
ATOM     26  C   LIG    1        1.782  -0.527  -1.277  0.00  0.00    +0.004 A 
ATOM     27  C   LIG    1        0.728   0.168  -1.839  0.00  0.00    +0.000 A 
ENDBRANCH  21  25
BRANCH  21  28
ATOM     28  C   LIG    1        3.650  -1.192   1.044  0.00  0.00    -0.042 A 
ATOM     29  C   LIG    1        4.060  -0.599   2.223  0.00  0.00    +0.004 A 
ATOM     30  C   LIG    1        3.668  -1.131   3.438  0.00  0.00    +0.000 A 
ATOM     31  C   LIG    1        2.867  -2.257   3.472  0.00  0.00    +0.000 A 
ATOM     32  C   LIG    1        2.456  -2.850   2.293  0.00  0.00    +0.000 A 
ATOM     33  C   LIG    1        2.844  -2.315   1.079  0.00  0.00    +0.004 A 
ENDBRANCH  21  28
ENDBRANCH   1  21
TORSDOF 6
