REMARK  Name = ZINC27647301
REMARK                            x       y       z     vdW  Elec       q    Type
REMARK                         _______ _______ _______ _____ _____    ______ ____
ROOT
ATOM      1  N   LIG    1        3.820   0.080  -0.158  0.00  0.00    -0.314 N 
ATOM      2  C   LIG    1        3.901  -0.758  -1.361  0.00  0.00    +0.110 C 
ATOM      3  C   LIG    1        5.102  -1.700  -1.249  0.00  0.00    +0.063 C 
ATOM      4  C   LIG    1        6.381  -0.872  -1.095  0.00  0.00    +0.176 C 
ATOM      5  C   LIG    1        6.252   0.027   0.138  0.00  0.00    +0.063 C 
ATOM      6  C   LIG    1        5.017   0.918  -0.014  0.00  0.00    +0.110 C 
ENDROOT
BRANCH   1  10
ATOM      7  C   LIG    1        0.487   2.439  -0.175  0.00  0.00    +0.149 A 
ATOM      8  C   LIG    1        0.298   1.056  -0.300  0.00  0.00    +0.038 A 
ATOM      9  C   LIG    1        1.418   0.245  -0.295  0.00  0.00    +0.048 A 
ATOM     10  C   LIG    1        2.668   0.854  -0.167  0.00  0.00    +0.144 A 
ATOM     11  N   LIG    1        2.753   2.172  -0.054  0.00  0.00    -0.133 NA
ATOM     12  N   LIG    1        1.716   2.928  -0.058  0.00  0.00    -0.143 NA
BRANCH   7  17
ATOM     13  C   LIG    1       -2.389   6.540  -0.038  0.00  0.00    +0.111 C 
ATOM     14  C   LIG    1       -1.917   5.111  -0.122  0.00  0.00    +0.215 A 
ATOM     15  N   LIG    1       -2.673   4.057  -0.258  0.00  0.00    -0.112 NA
ATOM     16  N   LIG    1       -1.937   3.002  -0.293  0.00  0.00    -0.106 NA
ATOM     17  C   LIG    1       -0.677   3.350  -0.180  0.00  0.00    +0.268 A 
ATOM     18  O   LIG    1       -0.641   4.692  -0.064  0.00  0.00    -0.419 OA
ENDBRANCH   7  17
ENDBRANCH   1  10
BRANCH   4  19
ATOM     19  O   LIG    1        7.499  -1.747  -0.933  0.00  0.00    -0.487 OA
BRANCH  19  20
ATOM     20  C   LIG    1        8.078  -2.225  -2.066  0.00  0.00    +0.142 A 
ATOM     21  C   LIG    1        7.512  -1.952  -3.302  0.00  0.00    +0.085 A 
ATOM     22  C   LIG    1        8.106  -2.436  -4.455  0.00  0.00    +0.127 A 
ATOM     23  F   LIG    1        7.559  -2.166  -5.660  0.00  0.00    -0.205 F 
ATOM     24  C   LIG    1        9.258  -3.200  -4.373  0.00  0.00    +0.040 A 
ATOM     25  C   LIG    1        9.820  -3.476  -3.140  0.00  0.00    +0.026 A 
ATOM     26  C   LIG    1        9.233  -2.991  -1.987  0.00  0.00    +0.083 A 
ATOM     27 CL   LIG    1        9.939  -3.340  -0.440  0.00  0.00    -0.080 Cl
ENDBRANCH  19  20
ENDBRANCH   4  19
TORSDOF 4
