REMARK  Name = ZINC13819656
REMARK                            x       y       z     vdW  Elec       q    Type
REMARK                         _______ _______ _______ _____ _____    ______ ____
ROOT
ATOM      1  C   LIG    1       -0.149   1.182   2.380  0.00  0.00    +0.133 C 
ATOM      2  C   LIG    1       -0.742   1.591   3.568  0.00  0.00    +0.052 C 
ATOM      3  C   LIG    1       -0.159   1.192   4.768  0.00  0.00    +0.067 C 
ATOM      4  C   LIG    1        0.986   0.406   4.734  0.00  0.00    +0.099 C 
ATOM      5  N   LIG    1        1.584  -0.007   3.586  0.00  0.00    -0.312 NA
ATOM      6  H   LIG    1        2.433  -0.585   3.591  0.00  0.00    +0.122 HD
ATOM      7  C   LIG    1        0.991   0.392   2.430  0.00  0.00    +0.112 C 
ENDROOT
BRANCH   3   8
ATOM      8  N   LIG    1       -0.718   1.577   5.989  0.00  0.00    -0.326 NA
ATOM      9  H   LIG    1       -0.306   1.295   6.821  0.00  0.00    +0.119 HD
ATOM     10  H   LIG    1       -1.518   2.126   6.005  0.00  0.00    +0.119 HD
ENDBRANCH   3   8
BRANCH   1  11
ATOM     11  O   LIG    1       -0.682   1.547   1.184  0.00  0.00    -0.377 OA
BRANCH  11  12
ATOM     12  C   LIG    1       -0.013   1.086   0.008  0.00  0.00    +0.141 C 
BRANCH  12  13
ATOM     13  C   LIG    1       -0.753   1.593  -1.232  0.00  0.00    -0.055 C 
BRANCH  13  15
ATOM     14  C   LIG    1       -1.371   3.582  -2.466  0.00  0.00    -0.100 C 
ATOM     15  N   LIG    1       -0.664   3.064  -1.279  0.00  0.00    +0.379 N 
ATOM     16  H   LIG    1        0.323   3.343  -1.324  0.00  0.00    -0.086 HD
ATOM     17  H   LIG    1       -1.093   3.457  -0.432  0.00  0.00    -0.086 HD
ENDBRANCH  13  15
ENDBRANCH  12  13
ENDBRANCH  11  12
ENDBRANCH   1  11
TORSDOF 5
