REMARK  Name = ZINC21763183
REMARK                            x       y       z     vdW  Elec       q    Type
REMARK                         _______ _______ _______ _____ _____    ______ ____
ROOT
ATOM      1  N   LIG    1        6.597   1.167  -0.059  0.00  0.00    -0.298 NA
ATOM      2  C   LIG    1        7.194   0.669   1.189  0.00  0.00    +0.066 C 
ATOM      3  C   LIG    1        8.717   0.799   1.109  0.00  0.00    -0.063 C 
ATOM      4  N   LIG    1        9.078   2.207   0.901  0.00  0.00    +0.384 N 
ATOM      5  H   LIG    1        8.723   2.762   1.665  0.00  0.00    -0.081 HD
ATOM      6  C   LIG    1        8.495   2.683  -0.361  0.00  0.00    -0.063 C 
ATOM      7  C   LIG    1        6.971   2.568  -0.294  0.00  0.00    +0.066 C 
ENDROOT
BRANCH   1   8
ATOM      8  C   LIG    1        5.137   1.006  -0.045  0.00  0.00    +0.180 C 
BRANCH   8  17
ATOM      9  C   LIG    1       -0.017   1.378   0.010  0.00  0.00    +0.000 A 
ATOM     10  C   LIG    1        1.174   2.082   0.002  0.00  0.00    +0.002 A 
ATOM     11  C   LIG    1        2.377   1.410  -0.013  0.00  0.00    +0.024 A 
ATOM     12  C   LIG    1        2.404   0.014  -0.022  0.00  0.00    +0.040 A 
ATOM     13  C   LIG    1        1.206  -0.682  -0.014  0.00  0.00    -0.024 A 
ATOM     14  C   LIG    1        1.510  -2.163  -0.025  0.00  0.00    +0.056 C 
ATOM     15  C   LIG    1        3.046  -2.243  -0.040  0.00  0.00    +0.118 C 
ATOM     16  N   LIG    1        3.503  -0.851  -0.037  0.00  0.00    -0.270 N 
ATOM     17  C   LIG    1        4.793  -0.461  -0.049  0.00  0.00    +0.234 C 
ATOM     18  O   LIG    1        5.677  -1.291  -0.062  0.00  0.00    -0.274 OA
ATOM     19  C   LIG    1        0.002  -0.004   0.002  0.00  0.00    +0.005 A 
ENDBRANCH   8  17
ENDBRANCH   1   8
BRANCH   4  20
ATOM     20  C   LIG    1       10.540   2.334   0.843  0.00  0.00    -0.043 C 
BRANCH  20  21
ATOM     21  C   LIG    1       10.915   3.791   0.752  0.00  0.00    -0.064 A 
ATOM     22  C   LIG    1       11.040   4.397  -0.484  0.00  0.00    +0.003 A 
ATOM     23  C   LIG    1       11.383   5.733  -0.568  0.00  0.00    +0.020 A 
ATOM     24  C   LIG    1       11.603   6.464   0.586  0.00  0.00    +0.041 A 
ATOM     25 CL   LIG    1       12.035   8.142   0.482  0.00  0.00    -0.084 Cl
ATOM     26  C   LIG    1       11.478   5.857   1.823  0.00  0.00    +0.020 A 
ATOM     27  C   LIG    1       11.129   4.522   1.906  0.00  0.00    +0.003 A 
ENDBRANCH  20  21
ENDBRANCH   4  20
TORSDOF 4
