REMARK  Name = ZINC14946461
REMARK                            x       y       z     vdW  Elec       q    Type
REMARK                         _______ _______ _______ _____ _____    ______ ____
ROOT
ATOM      1  C   LIG    1        0.047   1.385   0.649  0.00  0.00    +0.020 C 
ATOM      2  C   LIG    1        1.188   2.099   0.438  0.00  0.00    +0.008 C 
ATOM      3  C   LIG    1        2.394   1.426   0.202  0.00  0.00    +0.023 C 
ATOM      4  C   LIG    1        2.417   0.011   0.185  0.00  0.00    +0.060 C 
ATOM      5  N   LIG    1        3.566  -0.630  -0.038  0.00  0.00    -0.310 NA
ATOM      6  H   LIG    1        3.566  -1.600  -0.043  0.00  0.00    +0.122 HD
ATOM      7  C   LIG    1        4.706   0.006  -0.252  0.00  0.00    +0.061 C 
ATOM      8  C   LIG    1        4.759   1.389  -0.256  0.00  0.00    +0.051 C 
ATOM      9  C   LIG    1        6.031   2.155  -0.511  0.00  0.00    +0.121 C 
ATOM     10  C   LIG    1        7.249   1.253  -0.320  0.00  0.00    +0.032 C 
ATOM     11  C   LIG    1        7.037  -0.024  -1.142  0.00  0.00    +0.004 C 
ATOM     12  C   LIG    1        5.931  -0.844  -0.483  0.00  0.00    +0.019 C 
ATOM     13  C   LIG    1        1.222  -0.694   0.407  0.00  0.00    +0.038 C 
ATOM     14  C   LIG    1        3.601   2.124  -0.025  0.00  0.00    +0.062 C 
ATOM     15  C   LIG    1        0.066  -0.009   0.633  0.00  0.00    +0.082 C 
ATOM     16 CL   LIG    1       -1.408  -0.886   0.905  0.00  0.00    -0.122 Cl
ENDROOT
BRANCH  14  17
ATOM     17  N   LIG    1        3.630   3.511  -0.018  0.00  0.00    -0.327 NA
ATOM     18  H   LIG    1        4.397   3.981  -0.380  0.00  0.00    +0.118 HD
ATOM     19  H   LIG    1        2.884   4.010   0.350  0.00  0.00    +0.118 HD
ENDBRANCH  14  17
BRANCH   9  20
ATOM     20  O   LIG    1        6.110   3.252   0.401  0.00  0.00    -0.391 OA
ATOM     21  H   LIG    1        6.905   3.793   0.296  0.00  0.00    +0.210 HD
ENDBRANCH   9  20
TORSDOF 2
