REMARK  Name = ZINC43552569
REMARK                            x       y       z     vdW  Elec       q    Type
REMARK                         _______ _______ _______ _____ _____    ______ ____
ROOT
ATOM      1  N   LIG    1        4.078   0.009  -2.496  0.00  0.00    -0.301 N 
ATOM      2  H   LIG    1        4.799  -0.527  -2.128  0.00  0.00    +0.150 HD
ATOM      3  C   LIG    1        4.328   1.251  -2.954  0.00  0.00    +0.235 C 
ATOM      4  O   LIG    1        3.427   1.921  -3.414  0.00  0.00    -0.274 OA
ENDROOT
BRANCH   1   5
ATOM      5  C   LIG    1        2.718  -0.533  -2.552  0.00  0.00    +0.182 C 
BRANCH   5   6
ATOM      6  C   LIG    1        1.948  -0.086  -1.336  0.00  0.00    +0.328 C 
ATOM      7  O   LIG    1        2.481   0.614  -0.508  0.00  0.00    -0.249 OA
BRANCH   6   8
ATOM      8  O   LIG    1        0.671  -0.465  -1.174  0.00  0.00    -0.458 OA
BRANCH   8  10
ATOM      9  C   LIG    1       -0.019   1.526   0.010  0.00  0.00    +0.055 C 
ATOM     10  C   LIG    1        0.002  -0.004   0.002  0.00  0.00    +0.105 C 
ATOM     11  C   LIG    1       -1.433  -0.534   0.013  0.00  0.00    +0.055 C 
ATOM     12  C   LIG    1        0.742  -0.511   1.242  0.00  0.00    +0.055 C 
ENDBRANCH   8  10
ENDBRANCH   6   8
ENDBRANCH   5   6
BRANCH   5  13
ATOM     13  C   LIG    1        2.779  -2.062  -2.583  0.00  0.00    +0.034 C 
BRANCH  13  14
ATOM     14  C   LIG    1        3.451  -2.519  -3.879  0.00  0.00    +0.004 C 
BRANCH  14  15
ATOM     15  C   LIG    1        3.512  -4.048  -3.910  0.00  0.00    +0.019 C 
BRANCH  15  16
ATOM     16  C   LIG    1        4.184  -4.505  -5.207  0.00  0.00    +0.107 C 
BRANCH  16  17
ATOM     17  N   LIG    1        4.243  -5.968  -5.236  0.00  0.00    -0.281 N 
ATOM     18  H   LIG    1        3.883  -6.483  -4.497  0.00  0.00    +0.152 HD
ATOM     19  C   LIG    1        4.797  -6.599  -6.290  0.00  0.00    +0.401 C 
ATOM     20  O   LIG    1        5.248  -5.955  -7.216  0.00  0.00    -0.226 OA
BRANCH  19  21
ATOM     21  O   LIG    1        4.851  -7.944  -6.318  0.00  0.00    -0.446 OA
BRANCH  21  22
ATOM     22  C   LIG    1        5.452  -8.547  -7.466  0.00  0.00    +0.269 C 
BRANCH  22  23
ATOM     23  C   LIG    1        5.422 -10.046  -7.320  0.00  0.00    -0.010 A 
ATOM     24  C   LIG    1        6.473 -10.702  -6.706  0.00  0.00    +0.007 A 
ATOM     25  C   LIG    1        6.446 -12.078  -6.573  0.00  0.00    +0.000 A 
ATOM     26  C   LIG    1        5.368 -12.797  -7.053  0.00  0.00    +0.000 A 
ATOM     27  C   LIG    1        4.316 -12.142  -7.665  0.00  0.00    +0.000 A 
ATOM     28  C   LIG    1        4.342 -10.766  -7.795  0.00  0.00    +0.007 A 
ENDBRANCH  22  23
ENDBRANCH  21  22
ENDBRANCH  19  21
ENDBRANCH  16  17
ENDBRANCH  15  16
ENDBRANCH  14  15
ENDBRANCH  13  14
ENDBRANCH   5  13
ENDBRANCH   1   5
BRANCH   3  29
ATOM     29  C   LIG    1        5.727   1.809  -2.896  0.00  0.00    +0.173 C 
BRANCH  29  30
ATOM     30  N   LIG    1        5.850   2.917  -3.846  0.00  0.00    -0.269 N 
ATOM     31  H   LIG    1        6.500   2.870  -4.565  0.00  0.00    +0.153 HD
ATOM     32  C   LIG    1        5.061   4.003  -3.720  0.00  0.00    +0.401 C 
ATOM     33  O   LIG    1        4.248   4.062  -2.819  0.00  0.00    -0.226 OA
BRANCH  32  34
ATOM     34  O   LIG    1        5.175   5.022  -4.593  0.00  0.00    -0.445 OA
BRANCH  34  35
ATOM     35  C   LIG    1        4.307   6.141  -4.399  0.00  0.00    +0.107 C 
ATOM     36  C   LIG    1        2.852   5.680  -4.493  0.00  0.00    +0.055 C 
ATOM     37  C   LIG    1        4.580   7.191  -5.479  0.00  0.00    +0.055 C 
ATOM     38  C   LIG    1        4.561   6.751  -3.020  0.00  0.00    +0.055 C 
ENDBRANCH  34  35
ENDBRANCH  32  34
ENDBRANCH  29  30
BRANCH  29  39
ATOM     39  C   LIG    1        6.016   2.314  -1.482  0.00  0.00    +0.152 C 
BRANCH  39  40
ATOM     40  C   LIG    1        7.453   2.758  -1.391  0.00  0.00    +0.310 C 
ATOM     41  O   LIG    1        8.172   2.679  -2.359  0.00  0.00    -0.251 OA
BRANCH  40  42
ATOM     42  O   LIG    1        7.935   3.242  -0.235  0.00  0.00    -0.460 OA
BRANCH  42  43
ATOM     43  C   LIG    1        9.306   3.644  -0.221  0.00  0.00    +0.267 C 
BRANCH  43  44
ATOM     44  C   LIG    1        9.665   4.157   1.150  0.00  0.00    -0.010 A 
ATOM     45  C   LIG    1        9.503   5.496   1.451  0.00  0.00    +0.007 A 
ATOM     46  C   LIG    1        9.833   5.966   2.709  0.00  0.00    +0.000 A 
ATOM     47  C   LIG    1       10.323   5.097   3.665  0.00  0.00    +0.000 A 
ATOM     48  C   LIG    1       10.484   3.757   3.364  0.00  0.00    +0.000 A 
ATOM     49  C   LIG    1       10.151   3.287   2.108  0.00  0.00    +0.007 A 
ENDBRANCH  43  44
ENDBRANCH  42  43
ENDBRANCH  40  42
ENDBRANCH  39  40
ENDBRANCH  29  39
ENDBRANCH   3  29
TORSDOF 21
