REMARK  Name = ZINC28710873
REMARK                            x       y       z     vdW  Elec       q    Type
REMARK                         _______ _______ _______ _____ _____    ______ ____
ROOT
ATOM      1  C   LIG    1        1.646  -3.815  -2.565  0.00  0.00    +0.339 C 
ATOM      2  O   LIG    1        1.251  -4.566  -1.697  0.00  0.00    -0.245 OA
ENDROOT
BRANCH   1   6
ATOM      3  C   LIG    1        3.488  -5.386  -6.054  0.00  0.00    +0.000 A 
ATOM      4  C   LIG    1        3.039  -6.244  -5.067  0.00  0.00    +0.001 A 
ATOM      5  C   LIG    1        2.440  -5.741  -3.931  0.00  0.00    +0.015 A 
ATOM      6  C   LIG    1        2.287  -4.361  -3.779  0.00  0.00    +0.059 A 
ATOM      7  C   LIG    1        2.738  -3.501  -4.782  0.00  0.00    +0.015 A 
ATOM      8  C   LIG    1        3.340  -4.017  -5.910  0.00  0.00    +0.001 A 
ENDBRANCH   1   6
BRANCH   1   9
ATOM      9  O   LIG    1        1.500  -2.483  -2.422  0.00  0.00    -0.459 OA
BRANCH   9  10
ATOM     10  C   LIG    1        0.862  -2.017  -1.204  0.00  0.00    +0.264 C 
BRANCH  10  11
ATOM     11  C   LIG    1        0.785  -0.489  -1.221  0.00  0.00    +0.156 C 
ATOM     12  C   LIG    1        0.002  -0.004   0.002  0.00  0.00    +0.035 C 
ATOM     13  C   LIG    1       -0.019   1.528   0.010  0.00  0.00    +0.005 C 
ATOM     14  C   LIG    1        1.422   2.047  -0.001  0.00  0.00    +0.028 C 
ATOM     15  C   LIG    1        2.151   1.482  -1.223  0.00  0.00    +0.160 C 
ATOM     16  O   LIG    1        2.106   0.054  -1.185  0.00  0.00    -0.373 OA
ENDBRANCH  10  11
ENDBRANCH   9  10
ENDBRANCH   1   9
TORSDOF 4
