REMARK  Name = ZINC16662214
REMARK                            x       y       z     vdW  Elec       q    Type
REMARK                         _______ _______ _______ _____ _____    ______ ____
ROOT
ATOM      1  C   LIG    1       -1.263  -0.761   0.011  0.00  0.00    +0.138 C 
ATOM      2  N   LIG    1       -1.243  -2.058   0.003  0.00  0.00    -0.188 NA
ENDROOT
BRANCH   1   8
ATOM      3  C   LIG    1       -0.017   1.393   0.010  0.00  0.00    +0.013 A 
ATOM      4  C   LIG    1        1.168   2.096   0.002  0.00  0.00    +0.046 A 
ATOM      5  C   LIG    1        2.380   1.418  -0.013  0.00  0.00    +0.117 A 
ATOM      6  C   LIG    1        2.404   0.029  -0.022  0.00  0.00    +0.046 A 
ATOM      7  C   LIG    1        1.224  -0.682  -0.014  0.00  0.00    +0.013 A 
ATOM      8  C   LIG    1        0.002  -0.004   0.002  0.00  0.00    -0.005 A 
BRANCH   5   9
ATOM      9  O   LIG    1        3.546   2.115  -0.021  0.00  0.00    -0.507 OA
ATOM     10  H   LIG    1        3.893   2.313   0.860  0.00  0.00    +0.292 HD
ENDBRANCH   5   9
ENDBRANCH   1   8
BRANCH   2  11
ATOM     11  N   LIG    1       -2.446  -2.778   0.011  0.00  0.00    -0.217 N 
ATOM     12  H   LIG    1       -3.293  -2.305   0.022  0.00  0.00    +0.176 HD
BRANCH  11  13
ATOM     13  C   LIG    1       -2.425  -4.142   0.004  0.00  0.00    +0.166 C 
ATOM     14  N   LIG    1       -1.369  -4.946  -0.005  0.00  0.00    -0.157 NA
ATOM     15  C   LIG    1       -1.433  -6.249  -0.012  0.00  0.00    +0.248 C 
ATOM     16  C   LIG    1       -2.841  -6.833  -0.009  0.00  0.00    +0.174 C 
ATOM     17  O   LIG    1       -0.439  -6.949  -0.020  0.00  0.00    -0.273 OA
ATOM     18  S   LIG    1       -3.813  -5.268   0.012  0.00  0.00    -0.082 S 
ENDBRANCH  11  13
ENDBRANCH   2  11
TORSDOF 4
