REMARK  Name = ZINC00002110
REMARK                            x       y       z     vdW  Elec       q    Type
REMARK                         _______ _______ _______ _____ _____    ______ ____
ROOT
ATOM      1  S   LIG    1        0.060  -1.533   3.691  0.00  0.00    +0.074 S 
ATOM      2  O   LIG    1        1.313  -2.197   3.607  0.00  0.00    -0.150 OA
ATOM      3  O   LIG    1       -1.177  -2.231   3.633  0.00  0.00    -0.150 OA
ENDROOT
BRANCH   1   4
ATOM      4  C   LIG    1        0.063  -0.640   5.210  0.00  0.00    +0.109 A 
ATOM      5  C   LIG    1        1.263  -0.270   5.789  0.00  0.00    +0.030 A 
ATOM      6  C   LIG    1        1.269   0.431   6.980  0.00  0.00    +0.024 A 
ATOM      7  C   LIG    1        0.069   0.763   7.595  0.00  0.00    +0.025 A 
ATOM      8  C   LIG    1       -1.134   0.389   7.010  0.00  0.00    +0.024 A 
ATOM      9  C   LIG    1       -1.134  -0.306   5.816  0.00  0.00    +0.030 A 
BRANCH   7  10
ATOM     10  N   LIG    1        0.072   1.470   8.799  0.00  0.00    -0.358 N 
ATOM     11  H   LIG    1       -0.767   1.702   9.227  0.00  0.00    +0.142 HD
ATOM     12  H   LIG    1        0.912   1.731   9.207  0.00  0.00    +0.142 HD
ENDBRANCH   7  10
ENDBRANCH   1   4
BRANCH   1  13
ATOM     13  N   LIG    1        0.033  -0.418   2.467  0.00  0.00    -0.197 N 
ATOM     14  H   LIG    1        0.022   0.543   2.677  0.00  0.00    +0.175 HD
BRANCH  13  21
ATOM     15  C   LIG    1       -0.018   1.503   0.010  0.00  0.00    +0.051 C 
ATOM     16  C   LIG    1        0.002  -0.004   0.002  0.00  0.00    +0.034 A 
ATOM     17  C   LIG    1        0.008  -0.787  -1.091  0.00  0.00    +0.139 A 
ATOM     18  C   LIG    1       -0.006  -0.311  -2.520  0.00  0.00    +0.089 C 
ATOM     19  O   LIG    1        0.027  -2.068  -0.688  0.00  0.00    -0.358 OA
ATOM     20  N   LIG    1        0.034  -2.082   0.728  0.00  0.00    -0.061 NA
ATOM     21  C   LIG    1        0.025  -0.840   1.142  0.00  0.00    +0.184 A 
ENDBRANCH  13  21
ENDBRANCH   1  13
TORSDOF 4
