REMARK  Name = ZINC49072985
REMARK                            x       y       z     vdW  Elec       q    Type
REMARK                         _______ _______ _______ _____ _____    ______ ____
ROOT
ATOM      1  N   LIG    1        5.450  -1.686   1.373  0.00  0.00    -0.299 NA
ATOM      2  C   LIG    1        5.304  -3.029   0.796  0.00  0.00    +0.103 C 
ATOM      3  C   LIG    1        6.689  -3.667   0.638  0.00  0.00    +0.120 C 
ATOM      4  N   LIG    1        7.376  -3.619   1.938  0.00  0.00    -0.326 N 
ATOM      5  C   LIG    1        7.442  -2.330   2.644  0.00  0.00    +0.120 C 
ATOM      6  C   LIG    1        6.028  -1.746   2.722  0.00  0.00    +0.103 C 
ENDROOT
BRANCH   4   7
ATOM      7  C   LIG    1        7.950  -4.768   2.488  0.00  0.00    +0.048 A 
ATOM      8  C   LIG    1        8.694  -4.693   3.663  0.00  0.00    +0.026 A 
ATOM      9  C   LIG    1        9.244  -5.859   4.169  0.00  0.00    +0.021 A 
ATOM     10  C   LIG    1        9.038  -7.050   3.497  0.00  0.00    +0.111 A 
ATOM     11  N   LIG    1        8.329  -7.088   2.386  0.00  0.00    -0.261 NA
ATOM     12  C   LIG    1        7.783  -6.003   1.874  0.00  0.00    +0.133 A 
ENDBRANCH   4   7
BRANCH   1  13
ATOM     13  C   LIG    1        4.165  -0.975   1.382  0.00  0.00    +0.089 C 
BRANCH  13  14
ATOM     14  C   LIG    1        3.717  -0.714  -0.058  0.00  0.00    +0.050 C 
BRANCH  14  18
ATOM     15  C   LIG    1       -0.021   1.355  -0.035  0.00  0.00    +0.000 A 
ATOM     16  C   LIG    1        1.164   2.067  -0.029  0.00  0.00    +0.000 A 
ATOM     17  C   LIG    1        2.373   1.398  -0.036  0.00  0.00    +0.003 A 
ATOM     18  C   LIG    1        2.398   0.016  -0.049  0.00  0.00    -0.046 A 
ATOM     19  C   LIG    1        1.214  -0.697  -0.055  0.00  0.00    +0.003 A 
ATOM     20  C   LIG    1        0.004  -0.027  -0.049  0.00  0.00    +0.000 A 
ENDBRANCH  14  18
ENDBRANCH  13  14
ENDBRANCH   1  13
TORSDOF 4
