REMARK  Name = ZINC37491162
REMARK                            x       y       z     vdW  Elec       q    Type
REMARK                         _______ _______ _______ _____ _____    ______ ____
ROOT
ATOM      1  N   LIG    1        4.148  -1.058   1.305  0.00  0.00    +0.387 N 
ATOM      2  H   LIG    1        4.806  -1.822   1.262  0.00  0.00    -0.085 HD
ATOM      3  H   LIG    1        3.457  -1.249   2.015  0.00  0.00    -0.085 HD
ENDROOT
BRANCH   1  11
ATOM      4  C   LIG    1        1.429  -4.471  -1.126  0.00  0.00    +0.000 A 
ATOM      5  C   LIG    1        0.775  -3.641  -0.235  0.00  0.00    +0.000 A 
ATOM      6  C   LIG    1        1.373  -2.468   0.181  0.00  0.00    +0.002 A 
ATOM      7  C   LIG    1        2.627  -2.119  -0.292  0.00  0.00    -0.058 A 
ATOM      8  C   LIG    1        3.281  -2.949  -1.183  0.00  0.00    -0.046 A 
ATOM      9  C   LIG    1        4.624  -2.352  -1.548  0.00  0.00    +0.034 C 
ATOM     10  C   LIG    1        4.533  -0.869  -1.130  0.00  0.00    -0.007 C 
ATOM     11  C   LIG    1        3.486  -0.908   0.003  0.00  0.00    -0.040 C 
ATOM     12  C   LIG    1        2.679  -4.125  -1.599  0.00  0.00    +0.004 A 
ENDBRANCH   1  11
BRANCH   1  13
ATOM     13  C   LIG    1        4.861   0.183   1.638  0.00  0.00    -0.042 C 
ATOM     14  C   LIG    1        3.850   1.310   1.853  0.00  0.00    -0.013 C 
ATOM     15  C   LIG    1        4.592   2.602   2.199  0.00  0.00    -0.001 C 
ATOM     16  C   LIG    1        5.405   2.396   3.479  0.00  0.00    +0.002 C 
ATOM     17  C   LIG    1        6.417   1.268   3.264  0.00  0.00    +0.030 C 
ATOM     18  C   LIG    1        5.674  -0.024   2.918  0.00  0.00    +0.101 C 
BRANCH  18  19
ATOM     19  O   LIG    1        6.619  -1.077   2.717  0.00  0.00    -0.393 OA
ATOM     20  H   LIG    1        7.170  -1.263   3.489  0.00  0.00    +0.210 HD
ENDBRANCH  18  19
ENDBRANCH   1  13
TORSDOF 3
