REMARK  Name = ZINC14968243
REMARK                            x       y       z     vdW  Elec       q    Type
REMARK                         _______ _______ _______ _____ _____    ______ ____
ROOT
ATOM      1  C   LIG    1       -2.080   1.773   1.193  0.00  0.00    +0.030 A 
ATOM      2  C   LIG    1       -2.731   2.217   2.344  0.00  0.00    +0.025 A 
ATOM      3  C   LIG    1       -4.090   2.438   2.340  0.00  0.00    +0.028 A 
ATOM      4  C   LIG    1       -4.829   2.208   1.184  0.00  0.00    +0.050 A 
ATOM      5  C   LIG    1       -4.178   1.754   0.021  0.00  0.00    +0.012 A 
ATOM      6  C   LIG    1       -4.968   1.517  -1.188  0.00  0.00    +0.069 A 
ATOM      7  C   LIG    1       -6.304   1.743  -1.144  0.00  0.00    +0.083 A 
ATOM      8  C   LIG    1       -6.910   2.198   0.047  0.00  0.00    +0.250 A 
ATOM      9  O   LIG    1       -8.113   2.395   0.065  0.00  0.00    -0.268 OA
ATOM     10  N   LIG    1       -6.193   2.419   1.162  0.00  0.00    -0.322 N 
ATOM     11  H   LIG    1       -6.641   2.732   1.964  0.00  0.00    +0.169 HD
ATOM     12  C   LIG    1       -2.796   1.538   0.034  0.00  0.00    +0.033 A 
ENDROOT
BRANCH   6  13
ATOM     13  C   LIG    1       -4.311   1.032  -2.454  0.00  0.00    +0.418 C 
ATOM     14  F   LIG    1       -3.695  -0.202  -2.217  0.00  0.00    -0.166 F 
ATOM     15  F   LIG    1       -3.350   1.961  -2.867  0.00  0.00    -0.166 F 
ATOM     16  F   LIG    1       -5.278   0.885  -3.455  0.00  0.00    -0.166 F 
ENDBRANCH   6  13
BRANCH   1  18
ATOM     17  C   LIG    1       -0.013   1.086   0.008  0.00  0.00    +0.129 C 
ATOM     18  N   LIG    1       -0.698   1.558   1.213  0.00  0.00    -0.336 N 
ATOM     19  C   LIG    1        0.063   1.806   2.440  0.00  0.00    +0.129 C 
ENDBRANCH   1  18
TORSDOF 2
