REMARK  Name = ZINC64490638
REMARK                            x       y       z     vdW  Elec       q    Type
REMARK                         _______ _______ _______ _____ _____    ______ ____
ROOT
ATOM      1  C   LIG    1        1.238  -2.581   2.465  0.00  0.00    -0.039 A 
ATOM      2  C   LIG    1        2.558  -2.978   2.359  0.00  0.00    +0.053 A 
ATOM      3  C   LIG    1        3.226  -3.473   3.469  0.00  0.00    +0.165 A 
ATOM      4  C   LIG    1        2.567  -3.569   4.689  0.00  0.00    +0.204 A 
ATOM      5  C   LIG    1        1.240  -3.168   4.791  0.00  0.00    +0.165 A 
ATOM      6  C   LIG    1        0.581  -2.669   3.678  0.00  0.00    +0.053 A 
ENDROOT
BRANCH   3   7
ATOM      7  O   LIG    1        4.524  -3.865   3.364  0.00  0.00    -0.491 OA
ATOM      8  C   LIG    1        5.138  -3.738   2.079  0.00  0.00    +0.277 C 
ENDBRANCH   3   7
BRANCH   4   9
ATOM      9  O   LIG    1        3.219  -4.055   5.780  0.00  0.00    -0.488 OA
ATOM     10  C   LIG    1        3.909  -3.108   6.598  0.00  0.00    +0.277 C 
ENDBRANCH   4   9
BRANCH   5  11
ATOM     11  O   LIG    1        0.591  -3.260   5.982  0.00  0.00    -0.491 OA
ATOM     12  C   LIG    1       -0.771  -2.829   6.014  0.00  0.00    +0.277 C 
ENDBRANCH   5  11
BRANCH   1  13
ATOM     13  C   LIG    1        0.516  -2.044   1.256  0.00  0.00    +0.052 C 
BRANCH  13  14
ATOM     14  C   LIG    1        0.706  -0.527   1.180  0.00  0.00    +0.106 C 
BRANCH  14  16
ATOM     15  C   LIG    1       -0.018   1.465   0.010  0.00  0.00    +0.123 C 
ATOM     16  N   LIG    1        0.002  -0.004   0.002  0.00  0.00    -0.248 NA
BRANCH  16  17
ATOM     17  N   LIG    1        0.594  -0.510  -1.226  0.00  0.00    -0.268 NA
ATOM     18  H   LIG    1        0.110  -0.151  -2.035  0.00  0.00    +0.137 HD
ATOM     19  H   LIG    1        0.607  -1.519  -1.232  0.00  0.00    +0.137 HD
ENDBRANCH  16  17
ENDBRANCH  14  16
ENDBRANCH  13  14
ENDBRANCH   1  13
TORSDOF 7
