REMARK  Name = ZINC30727277
REMARK                            x       y       z     vdW  Elec       q    Type
REMARK                         _______ _______ _______ _____ _____    ______ ____
ROOT
ATOM      1  C   LIG    1       -7.092  -8.771   0.023  0.00  0.00    +0.001 C 
ENDROOT
BRANCH   1   2
ATOM      2  C   LIG    1       -5.657  -8.242   0.012  0.00  0.00    +0.000 C 
BRANCH   2   3
ATOM      3  C   LIG    1       -5.677  -6.712   0.020  0.00  0.00    +0.000 C 
BRANCH   3   4
ATOM      4  C   LIG    1       -4.242  -6.182   0.009  0.00  0.00    +0.000 C 
BRANCH   4   5
ATOM      5  C   LIG    1       -4.263  -4.652   0.018  0.00  0.00    -0.000 C 
BRANCH   5   6
ATOM      6  C   LIG    1       -2.827  -4.123   0.007  0.00  0.00    -0.000 C 
BRANCH   6   7
ATOM      7  C   LIG    1       -2.848  -2.593   0.015  0.00  0.00    -0.000 C 
BRANCH   7   8
ATOM      8  C   LIG    1       -1.413  -2.063   0.004  0.00  0.00    -0.000 C 
BRANCH   8   9
ATOM      9  C   LIG    1       -1.433  -0.534   0.013  0.00  0.00    -0.000 C 
BRANCH   9  11
ATOM     10  C   LIG    1       -0.019   1.526   0.010  0.00  0.00    +0.004 C 
ATOM     11  C   LIG    1        0.002  -0.004   0.002  0.00  0.00    -0.003 C 
ENDBRANCH   9  11
ENDBRANCH   8   9
ENDBRANCH   7   8
ENDBRANCH   6   7
ENDBRANCH   5   6
ENDBRANCH   4   5
ENDBRANCH   3   4
ENDBRANCH   2   3
ENDBRANCH   1   2
BRANCH   1  12
ATOM     12  C   LIG    1       -7.071 -10.301   0.014  0.00  0.00    +0.015 C 
BRANCH  12  13
ATOM     13  C   LIG    1       -8.507 -10.831   0.025  0.00  0.00    +0.084 C 
BRANCH  13  14
ATOM     14  N   LIG    1       -8.487 -12.300   0.017  0.00  0.00    -0.297 NA
ATOM     15  C   LIG    1       -7.917 -12.826   1.266  0.00  0.00    +0.115 C 
ATOM     16  C   LIG    1       -7.860 -14.354   1.191  0.00  0.00    +0.130 C 
ATOM     17  C   LIG    1       -7.343 -14.912   2.518  0.00  0.00    +0.039 C 
ATOM     18  O   LIG    1       -9.173 -14.863   0.938  0.00  0.00    -0.371 OA
ATOM     19  C   LIG    1       -9.757 -14.371  -0.272  0.00  0.00    +0.130 C 
ATOM     20  C   LIG    1      -11.165 -14.948  -0.430  0.00  0.00    +0.039 C 
ATOM     21  C   LIG    1       -9.833 -12.844  -0.211  0.00  0.00    +0.115 C 
ENDBRANCH  13  14
ENDBRANCH  12  13
ENDBRANCH   1  12
TORSDOF 12
