REMARK  Name = ZINC38815370
REMARK                            x       y       z     vdW  Elec       q    Type
REMARK                         _______ _______ _______ _____ _____    ______ ____
ROOT
ATOM      1  N   LIG    1        1.523  -4.016   2.465  0.00  0.00    +0.382 N 
ATOM      2  H   LIG    1        0.578  -4.364   2.392  0.00  0.00    -0.082 HD
ATOM      3  C   LIG    1        2.304  -4.487   1.314  0.00  0.00    -0.060 C 
ATOM      4  C   LIG    1        2.230  -6.016   1.239  0.00  0.00    +0.086 C 
ATOM      5  N   LIG    1        2.662  -6.568   2.532  0.00  0.00    -0.331 N 
ATOM      6  C   LIG    1        2.044  -6.032   3.755  0.00  0.00    +0.086 C 
ATOM      7  C   LIG    1        2.127  -4.503   3.712  0.00  0.00    -0.060 C 
ENDROOT
BRANCH   5   8
ATOM      8  C   LIG    1        3.632  -7.574   2.597  0.00  0.00    +0.072 A 
ATOM      9  C   LIG    1        4.975  -7.240   2.704  0.00  0.00    +0.027 A 
ATOM     10  C   LIG    1        5.931  -8.235   2.769  0.00  0.00    +0.002 A 
ATOM     11  C   LIG    1        5.554  -9.565   2.728  0.00  0.00    +0.004 A 
ATOM     12  C   LIG    1        4.218  -9.905   2.621  0.00  0.00    +0.047 A 
ATOM     13  C   LIG    1        3.253  -8.914   2.561  0.00  0.00    +0.141 A 
BRANCH  13  14
ATOM     14  O   LIG    1        1.938  -9.248   2.461  0.00  0.00    -0.493 OA
ATOM     15  C   LIG    1        1.623 -10.641   2.429  0.00  0.00    +0.277 C 
ENDBRANCH  13  14
ENDBRANCH   5   8
BRANCH   1  16
ATOM     16  C   LIG    1        1.503  -2.548   2.473  0.00  0.00    -0.079 C 
BRANCH  16  17
ATOM     17  C   LIG    1        0.763  -2.041   1.233  0.00  0.00    -0.019 C 
BRANCH  17  18
ATOM     18  C   LIG    1        0.742  -0.511   1.242  0.00  0.00    -0.002 C 
BRANCH  18  20
ATOM     19  C   LIG    1       -0.019   1.526   0.010  0.00  0.00    +0.004 C 
ATOM     20  C   LIG    1        0.002  -0.004   0.002  0.00  0.00    -0.003 C 
ENDBRANCH  18  20
ENDBRANCH  17  18
ENDBRANCH  16  17
ENDBRANCH   1  16
TORSDOF 6
