REMARK  Name = ZINC20438518
REMARK                            x       y       z     vdW  Elec       q    Type
REMARK                         _______ _______ _______ _____ _____    ______ ____
ROOT
ATOM      1  C   LIG    1       -2.592   9.103  -2.498  0.00  0.00    +0.041 C 
ATOM      2  C   LIG    1       -2.572   7.584  -2.311  0.00  0.00    +0.068 C 
ATOM      3  C   LIG    1       -3.766   7.154  -1.457  0.00  0.00    +0.041 C 
ATOM      4  C   LIG    1       -2.639   6.896  -3.676  0.00  0.00    +0.070 C 
ATOM      5  C   LIG    1       -2.333   5.430  -3.520  0.00  0.00    -0.024 A 
ATOM      6  C   LIG    1       -1.736   4.933  -2.404  0.00  0.00    +0.022 A 
ATOM      7  C   LIG    1       -1.347   5.827  -1.255  0.00  0.00    +0.199 C 
ATOM      8  C   LIG    1       -1.460   3.564  -2.313  0.00  0.00    +0.128 A 
ATOM      9  N   LIG    1       -1.791   2.746  -3.300  0.00  0.00    -0.224 NA
ATOM     10  C   LIG    1       -2.379   3.193  -4.389  0.00  0.00    +0.113 A 
ATOM     11  S   LIG    1       -2.955   2.407  -5.874  0.00  0.00    -0.064 S 
ATOM     12  C   LIG    1       -3.585   3.830  -6.721  0.00  0.00    +0.080 A 
ATOM     13  C   LIG    1       -4.199   4.037  -7.948  0.00  0.00    +0.137 A 
ATOM     14  N   LIG    1       -4.554   5.280  -8.274  0.00  0.00    -0.220 NA
ATOM     15  C   LIG    1       -4.320   6.275  -7.440  0.00  0.00    +0.224 A 
ATOM     16  N   LIG    1       -3.744   6.116  -6.275  0.00  0.00    -0.234 NA
ATOM     17  C   LIG    1       -3.345   4.897  -5.847  0.00  0.00    +0.093 A 
ATOM     18  C   LIG    1       -2.687   4.552  -4.573  0.00  0.00    +0.037 A 
ATOM     19  O   LIG    1       -1.353   7.194  -1.667  0.00  0.00    -0.369 OA
ENDROOT
BRANCH   8  20
ATOM     20  N   LIG    1       -0.839   3.061  -1.178  0.00  0.00    -0.310 N 
ATOM     21  C   LIG    1        0.094   1.979  -1.524  0.00  0.00    +0.134 C 
ATOM     22  C   LIG    1        0.799   1.494  -0.255  0.00  0.00    +0.178 C 
ATOM     23  O   LIG    1       -0.181   1.079   0.700  0.00  0.00    -0.377 OA
ATOM     24  C   LIG    1       -1.107   2.108   1.060  0.00  0.00    +0.178 C 
ATOM     25  C   LIG    1       -1.831   2.599  -0.197  0.00  0.00    +0.134 C 
ENDBRANCH   8  20
BRANCH  13  26
ATOM     26  N   LIG    1       -4.437   2.979  -8.812  0.00  0.00    -0.324 N 
ATOM     27  H   LIG    1       -4.138   1.959  -8.528  0.00  0.00    +0.148 HD
BRANCH  26  28
ATOM     28  C   LIG    1       -5.086   3.220 -10.103  0.00  0.00    +0.139 C 
BRANCH  28  29
ATOM     29  C   LIG    1       -5.226   1.915 -10.845  0.00  0.00    -0.012 A 
ATOM     30  C   LIG    1       -4.224   1.484 -11.701  0.00  0.00    +0.008 A 
ATOM     31  C   LIG    1       -4.394   0.275 -12.359  0.00  0.00    +0.020 A 
ATOM     32  C   LIG    1       -5.553  -0.449 -12.150  0.00  0.00    +0.111 A 
ATOM     33  N   LIG    1       -6.487  -0.004 -11.332  0.00  0.00    -0.263 NA
ATOM     34  C   LIG    1       -6.357   1.138 -10.686  0.00  0.00    +0.115 A 
ENDBRANCH  28  29
ENDBRANCH  26  28
ENDBRANCH  13  26
TORSDOF 4
