REMARK  Name = ZINC34349848
REMARK                            x       y       z     vdW  Elec       q    Type
REMARK                         _______ _______ _______ _____ _____    ______ ____
ROOT
ATOM      1  C   LIG    1        1.492  -2.540   2.454  0.00  0.00    +0.059 A 
ATOM      2  C   LIG    1        1.010  -3.409   3.363  0.00  0.00    +0.107 A 
ATOM      3  N   LIG    1        1.992  -3.587   4.300  0.00  0.00    -0.351 N 
ATOM      4  H   LIG    1        1.944  -4.158   5.083  0.00  0.00    +0.166 HD
ATOM      5  C   LIG    1        3.041  -2.821   3.930  0.00  0.00    +0.196 A 
ATOM      6  N   LIG    1        2.736  -2.201   2.822  0.00  0.00    -0.241 NA
ENDROOT
BRANCH   1   7
ATOM      7  C   LIG    1        0.763  -2.041   1.233  0.00  0.00    +0.057 C 
BRANCH   7   8
ATOM      8  C   LIG    1        0.742  -0.511   1.242  0.00  0.00    +0.006 C 
BRANCH   8  10
ATOM      9  C   LIG    1       -0.019   1.526   0.010  0.00  0.00    +0.004 C 
ATOM     10  C   LIG    1        0.002  -0.004   0.002  0.00  0.00    -0.003 C 
ENDBRANCH   8  10
ENDBRANCH   7   8
ENDBRANCH   1   7
TORSDOF 3
