REMARK  Name = ZINC33975407
REMARK                            x       y       z     vdW  Elec       q    Type
REMARK                         _______ _______ _______ _____ _____    ______ ____
ROOT
ATOM      1  C   LIG    1        1.057  -2.008  -0.851  0.00  0.00    -0.010 C 
ATOM      2  C   LIG    1        1.912  -2.851   0.127  0.00  0.00    +0.004 C 
ATOM      3  C   LIG    1        2.087  -4.204  -0.593  0.00  0.00    +0.006 C 
ATOM      4  C   LIG    1        1.899  -3.930  -2.095  0.00  0.00    -0.035 C 
ATOM      5  C   LIG    1        1.611  -2.420  -2.238  0.00  0.00    +0.009 C 
ENDROOT
BRANCH   1   6
ATOM      6  C   LIG    1        1.266  -0.513  -0.605  0.00  0.00    +0.003 C 
BRANCH   6   8
ATOM      7  C   LIG    1        0.865   1.368   0.989  0.00  0.00    +0.004 C 
ATOM      8  C   LIG    1        0.655  -0.127   0.743  0.00  0.00    -0.003 C 
ENDBRANCH   6   8
ENDBRANCH   1   6
BRANCH   4   9
ATOM      9  C   LIG    1        3.173  -4.298  -2.858  0.00  0.00    -0.079 C 
BRANCH   9  10
ATOM     10  N   LIG    1        3.417  -5.741  -2.738  0.00  0.00    +0.378 N 
ATOM     11  H   LIG    1        2.607  -6.248  -3.062  0.00  0.00    -0.090 HD
ATOM     12  H   LIG    1        3.595  -5.973  -1.772  0.00  0.00    -0.090 HD
ATOM     13  H   LIG    1        4.218  -5.995  -3.297  0.00  0.00    -0.090 HD
ENDBRANCH   9  10
ENDBRANCH   4   9
BRANCH   4  14
ATOM     14  C   LIG    1        0.715  -4.738  -2.631  0.00  0.00    +0.125 C 
BRANCH  14  15
ATOM     15  C   LIG    1        0.459  -4.362  -4.067  0.00  0.00    +0.305 C 
ATOM     16  O   LIG    1        1.210  -3.590  -4.639  0.00  0.00    -0.251 OA
BRANCH  15  17
ATOM     17  O   LIG    1       -0.500  -4.829  -4.658  0.00  0.00    -0.481 OA
ATOM     18  H   LIG    1       -1.077  -5.422  -4.219  0.00  0.00    +0.295 HD
ENDBRANCH  15  17
ENDBRANCH  14  15
ENDBRANCH   4  14
TORSDOF 7
