REMARK  Name = ZINC19737048
REMARK                            x       y       z     vdW  Elec       q    Type
REMARK                         _______ _______ _______ _____ _____    ______ ____
ROOT
ATOM      1  C   LIG    1        1.417   2.055  -0.000  0.00  0.00    +0.125 C 
ENDROOT
BRANCH   1   2
ATOM      2  P   LIG    1        1.392   3.878   0.010  0.00  0.00    +0.328 P 
ATOM      3  O   LIG    1        0.538   4.388  -1.173  0.00  0.00    -0.259 OA
BRANCH   2   4
ATOM      4  O   LIG    1        2.895   4.436  -0.134  0.00  0.00    -0.324 OA
ATOM      5  H   LIG    1        2.958   5.401  -0.136  0.00  0.00    +0.220 HD
ENDBRANCH   2   4
BRANCH   2   6
ATOM      6  O   LIG    1        0.782   4.378   1.338  0.00  0.00    -0.324 OA
ATOM      7  H   LIG    1       -0.124   4.041   1.425  0.00  0.00    +0.220 HD
ENDBRANCH   2   6
ENDBRANCH   1   2
BRANCH   1   8
ATOM      8  C   LIG    1       -0.019   1.526   0.010  0.00  0.00    -0.007 C 
BRANCH   8   9
ATOM      9  C   LIG    1        0.002  -0.004   0.002  0.00  0.00    -0.086 C 
BRANCH   9  10
ATOM     10  N   LIG    1       -1.376  -0.512   0.012  0.00  0.00    +0.378 N 
ATOM     11  H   LIG    1       -1.362  -1.521   0.007  0.00  0.00    -0.090 HD
ATOM     12  H   LIG    1       -1.864  -0.178  -0.805  0.00  0.00    -0.090 HD
ATOM     13  H   LIG    1       -1.848  -0.187   0.843  0.00  0.00    -0.090 HD
ENDBRANCH   9  10
ENDBRANCH   8   9
ENDBRANCH   1   8
TORSDOF 6
