REMARK  Name = ZINC00017887
REMARK                            x       y       z     vdW  Elec       q    Type
REMARK                         _______ _______ _______ _____ _____    ______ ____
ROOT
ATOM      1  C   LIG    1       -0.013   1.076   0.008  0.00  0.00    +0.001 A 
ATOM      2  C   LIG    1       -1.226   1.749   0.017  0.00  0.00    +0.004 A 
ATOM      3  C   LIG    1       -1.267   3.127   0.030  0.00  0.00    +0.047 A 
ATOM      4  C   LIG    1       -0.084   3.854   0.023  0.00  0.00    +0.136 A 
ATOM      5  C   LIG    1        1.143   3.167   0.008  0.00  0.00    +0.021 A 
ATOM      6  C   LIG    1        2.178   4.203   0.003  0.00  0.00    +0.061 A 
ATOM      7  C   LIG    1        1.520   5.390   0.015  0.00  0.00    +0.171 A 
ATOM      8  O   LIG    1        0.189   5.175   0.026  0.00  0.00    -0.452 OA
ATOM      9  C   LIG    1        1.164   1.771   0.001  0.00  0.00    +0.011 A 
ENDROOT
BRANCH   7  10
ATOM     10  C   LIG    1        2.164   6.714   0.014  0.00  0.00    +0.174 A 
ATOM     11  N   LIG    1        1.518   7.918   0.020  0.00  0.00    -0.342 N 
ATOM     12  C   LIG    1        2.483   8.889   0.021  0.00  0.00    +0.104 A 
ATOM     13  C   LIG    1        3.677   8.261   0.006  0.00  0.00    +0.130 A 
ATOM     14  H   LIG    1        0.528   8.063   0.023  0.00  0.00    +0.167 HD
ATOM     15  N   LIG    1        3.461   6.942   0.002  0.00  0.00    -0.233 NA
ENDBRANCH   7  10
TORSDOF 1
