REMARK  Name = ZINC14951244
REMARK                            x       y       z     vdW  Elec       q    Type
REMARK                         _______ _______ _______ _____ _____    ______ ____
ROOT
ATOM      1  C   LIG    1        3.645  -2.023   0.060  0.00  0.00    +0.393 C 
ATOM      2  N   LIG    1        4.783  -2.650   0.143  0.00  0.00    -0.129 NA
ATOM      3  H   LIG    1        5.610  -2.148   0.211  0.00  0.00    +0.306 HD
ENDROOT
BRANCH   1   4
ATOM      4  N   LIG    1        3.621  -0.651  -0.044  0.00  0.00    -0.243 N 
ATOM      5  H   LIG    1        4.451  -0.158  -0.142  0.00  0.00    +0.265 HD
BRANCH   4   9
ATOM      6  C   LIG    1       -0.011   1.385   0.066  0.00  0.00    +0.000 A 
ATOM      7  C   LIG    1        0.210   0.321   0.921  0.00  0.00    +0.003 A 
ATOM      8  C   LIG    1        1.413  -0.356   0.887  0.00  0.00    +0.042 A 
ATOM      9  C   LIG    1        2.402   0.033  -0.007  0.00  0.00    +0.100 A 
ATOM     10  C   LIG    1        2.177   1.101  -0.865  0.00  0.00    +0.042 A 
ATOM     11  C   LIG    1        0.971   1.774  -0.826  0.00  0.00    +0.003 A 
ENDBRANCH   4   9
ENDBRANCH   1   4
BRANCH   1  12
ATOM     12  N   LIG    1        2.463  -2.734   0.076  0.00  0.00    -0.186 N 
ATOM     13  H   LIG    1        1.615  -2.267   0.013  0.00  0.00    +0.271 HD
BRANCH  12  14
ATOM     14  C   LIG    1        2.486  -4.109   0.180  0.00  0.00    +0.385 C 
ATOM     15  N   LIG    1        3.624  -4.737   0.263  0.00  0.00    -0.129 NA
ATOM     16  H   LIG    1        3.641  -5.704   0.336  0.00  0.00    +0.306 HD
BRANCH  14  17
ATOM     17  N   LIG    1        1.308  -4.817   0.195  0.00  0.00    -0.289 N 
ATOM     18  H   LIG    1        1.325  -5.784   0.268  0.00  0.00    +0.255 HD
ATOM     19  H   LIG    1        0.460  -4.350   0.133  0.00  0.00    +0.255 HD
ENDBRANCH  14  17
ENDBRANCH  12  14
ENDBRANCH   1  12
TORSDOF 5
