REMARK  Name = ZINC40393731
REMARK                            x       y       z     vdW  Elec       q    Type
REMARK                         _______ _______ _______ _____ _____    ______ ____
ROOT
ATOM      1  C   LIG    1        2.374  -4.640   6.519  0.00  0.00    +0.192 A 
ATOM      2  N   LIG    1        1.971  -4.447   7.767  0.00  0.00    -0.207 NA
ATOM      3  C   LIG    1        2.732  -4.824   8.790  0.00  0.00    +0.125 A 
ATOM      4  C   LIG    1        3.964  -5.428   8.532  0.00  0.00    +0.083 A 
ATOM      5  C   LIG    1        4.346  -5.611   7.216  0.00  0.00    +0.135 A 
ATOM      6 CL   LIG    1        5.868  -6.356   6.840  0.00  0.00    -0.062 Cl
ATOM      7  N   LIG    1        3.536  -5.215   6.244  0.00  0.00    -0.210 NA
ENDROOT
BRANCH   3   8
ATOM      8  N   LIG    1        2.308  -4.621  10.093  0.00  0.00    -0.325 N 
ATOM      9  H   LIG    1        1.451  -4.201  10.264  0.00  0.00    +0.148 HD
BRANCH   8  10
ATOM     10  C   LIG    1        3.154  -5.041  11.213  0.00  0.00    +0.138 C 
BRANCH  10  11
ATOM     11  C   LIG    1        2.469  -4.709  12.513  0.00  0.00    -0.030 A 
ATOM     12  C   LIG    1        2.679  -3.479  13.109  0.00  0.00    +0.006 A 
ATOM     13  C   LIG    1        2.054  -3.169  14.300  0.00  0.00    +0.009 A 
ATOM     14  C   LIG    1        1.209  -4.099  14.902  0.00  0.00    -0.018 A 
ATOM     15  C   LIG    1        1.000  -5.337  14.297  0.00  0.00    +0.009 A 
ATOM     16  C   LIG    1        1.627  -5.634  13.104  0.00  0.00    +0.006 A 
BRANCH  14  17
ATOM     17  C   LIG    1        0.534  -3.773  16.182  0.00  0.00    -0.018 A 
ATOM     18  C   LIG    1        0.739  -2.533  16.784  0.00  0.00    +0.008 A 
ATOM     19  C   LIG    1        0.108  -2.234  17.975  0.00  0.00    +0.001 A 
ATOM     20  C   LIG    1       -0.725  -3.163  18.571  0.00  0.00    +0.000 A 
ATOM     21  C   LIG    1       -0.931  -4.396  17.979  0.00  0.00    +0.001 A 
ATOM     22  C   LIG    1       -0.311  -4.703  16.785  0.00  0.00    +0.008 A 
ENDBRANCH  14  17
ENDBRANCH  10  11
ENDBRANCH   8  10
ENDBRANCH   3   8
BRANCH   1  23
ATOM     23  S   LIG    1        1.334  -4.125   5.193  0.00  0.00    -0.071 S 
BRANCH  23  24
ATOM     24  C   LIG    1        2.264  -4.584   3.704  0.00  0.00    +0.162 C 
BRANCH  24  25
ATOM     25  C   LIG    1        2.392  -6.084   3.634  0.00  0.00    +0.318 C 
ATOM     26  O   LIG    1        3.454  -6.618   3.901  0.00  0.00    -0.250 OA
BRANCH  25  27
ATOM     27  O   LIG    1        1.432  -6.763   3.311  0.00  0.00    -0.480 OA
ATOM     28  H   LIG    1        0.615  -6.353   3.106  0.00  0.00    +0.295 HD
ENDBRANCH  25  27
ENDBRANCH  24  25
BRANCH  24  29
ATOM     29  C   LIG    1        1.524  -4.077   2.464  0.00  0.00    +0.026 C 
BRANCH  29  30
ATOM     30  C   LIG    1        1.503  -2.548   2.473  0.00  0.00    +0.002 C 
BRANCH  30  31
ATOM     31  C   LIG    1        0.763  -2.041   1.233  0.00  0.00    +0.000 C 
BRANCH  31  32
ATOM     32  C   LIG    1        0.742  -0.511   1.242  0.00  0.00    -0.000 C 
BRANCH  32  34
ATOM     33  C   LIG    1       -0.019   1.526   0.010  0.00  0.00    +0.004 C 
ATOM     34  C   LIG    1        0.002  -0.004   0.002  0.00  0.00    -0.003 C 
ENDBRANCH  32  34
ENDBRANCH  31  32
ENDBRANCH  30  31
ENDBRANCH  29  30
ENDBRANCH  24  29
ENDBRANCH  23  24
ENDBRANCH   1  23
TORSDOF 13
