REMARK  Name = ZINC45284946
REMARK                            x       y       z     vdW  Elec       q    Type
REMARK                         _______ _______ _______ _____ _____    ______ ____
ROOT
ATOM      1  S   LIG    1        0.055  -2.969   2.713  0.00  0.00    +0.076 S 
ATOM      2  O   LIG    1        0.020  -1.998   3.750  0.00  0.00    -0.150 OA
ATOM      3  O   LIG    1        1.093  -3.934   2.608  0.00  0.00    -0.150 OA
ENDROOT
BRANCH   1   9
ATOM      4  C   LIG    1       -0.018   1.503   0.010  0.00  0.00    +0.044 C 
ATOM      5  C   LIG    1        0.002  -0.004   0.002  0.00  0.00    -0.048 A 
ATOM      6  C   LIG    1        0.006  -0.688  -1.200  0.00  0.00    +0.007 A 
ATOM      7  C   LIG    1        0.024  -2.069  -1.210  0.00  0.00    +0.048 A 
ATOM      8  C   LIG    1        0.039  -2.770  -0.013  0.00  0.00    +0.147 A 
ATOM      9  C   LIG    1        0.036  -2.082   1.191  0.00  0.00    +0.150 A 
ATOM     10  C   LIG    1        0.023  -0.701   1.196  0.00  0.00    +0.036 A 
BRANCH   8  11
ATOM     11  O   LIG    1        0.057  -4.129  -0.021  0.00  0.00    -0.493 OA
ATOM     12  C   LIG    1        0.058  -4.771  -1.298  0.00  0.00    +0.277 C 
ENDBRANCH   8  11
ENDBRANCH   1   9
BRANCH   1  13
ATOM     13  N   LIG    1       -1.367  -3.812   2.807  0.00  0.00    -0.215 N 
ATOM     14  H   LIG    1       -2.013  -3.598   3.498  0.00  0.00    +0.174 HD
BRANCH  13  15
ATOM     15  C   LIG    1       -1.637  -4.831   1.890  0.00  0.00    +0.067 A 
ATOM     16  C   LIG    1       -2.878  -4.915   1.290  0.00  0.00    +0.036 A 
ATOM     17  C   LIG    1       -3.100  -5.959   0.374  0.00  0.00    +0.002 A 
ATOM     18  C   LIG    1       -4.336  -6.109  -0.277  0.00  0.00    +0.010 A 
ATOM     19  C   LIG    1       -4.514  -7.132  -1.157  0.00  0.00    +0.001 A 
ATOM     20  C   LIG    1       -3.485  -8.034  -1.422  0.00  0.00    +0.002 A 
ATOM     21  C   LIG    1       -2.275  -7.918  -0.810  0.00  0.00    +0.028 A 
ATOM     22  C   LIG    1       -2.052  -6.875   0.106  0.00  0.00    +0.071 A 
ATOM     23  N   LIG    1       -0.872  -6.740   0.719  0.00  0.00    -0.253 NA
ATOM     24  C   LIG    1       -0.648  -5.770   1.571  0.00  0.00    +0.135 A 
ENDBRANCH  13  15
ENDBRANCH   1  13
TORSDOF 4
