REMARK  Name = ZINC16957598
REMARK                            x       y       z     vdW  Elec       q    Type
REMARK                         _______ _______ _______ _____ _____    ______ ____
ROOT
ATOM      1  C   LIG    1       -1.946   9.919  -1.885  0.00  0.00    +0.067 C 
ATOM      2  C   LIG    1       -2.921   9.282  -0.929  0.00  0.00    +0.059 A 
ATOM      3  C   LIG    1       -2.505   8.325  -0.011  0.00  0.00    +0.083 A 
ATOM      4  S   LIG    1       -4.054   7.956   0.802  0.00  0.00    -0.044 S 
ATOM      5  C   LIG    1       -5.050   9.056  -0.099  0.00  0.00    +0.195 A 
ATOM      6  N   LIG    1       -4.186   9.610  -0.935  0.00  0.00    -0.226 NA
ENDROOT
BRANCH   5   7
ATOM      7  N   LIG    1       -6.412   9.291   0.022  0.00  0.00    -0.207 N 
ATOM      8  C   LIG    1       -7.397   8.340   0.018  0.00  0.00    +0.077 A 
ATOM      9  C   LIG    1       -8.590   8.986   0.160  0.00  0.00    +0.058 A 
ATOM     10  C   LIG    1       -8.325  10.364   0.252  0.00  0.00    +0.094 A 
ATOM     11  N   LIG    1       -7.022  10.542   0.175  0.00  0.00    -0.164 NA
BRANCH   8  12
ATOM     12  C   LIG    1       -7.203   6.880  -0.115  0.00  0.00    +0.001 A 
ATOM     13  C   LIG    1       -6.026   6.377  -0.671  0.00  0.00    +0.010 A 
ATOM     14  C   LIG    1       -5.849   5.014  -0.787  0.00  0.00    +0.001 A 
ATOM     15  C   LIG    1       -6.840   4.146  -0.365  0.00  0.00    +0.000 A 
ATOM     16  C   LIG    1       -8.012   4.638   0.182  0.00  0.00    +0.001 A 
ATOM     17  C   LIG    1       -8.199   5.999   0.309  0.00  0.00    +0.010 A 
ENDBRANCH   8  12
BRANCH  10  18
ATOM     18  C   LIG    1       -9.339  11.434   0.415  0.00  0.00    +0.002 A 
ATOM     19  C   LIG    1      -10.693  11.110   0.484  0.00  0.00    +0.010 A 
ATOM     20  C   LIG    1      -11.632  12.109   0.640  0.00  0.00    +0.001 A 
ATOM     21  C   LIG    1      -11.232  13.431   0.717  0.00  0.00    +0.000 A 
ATOM     22  C   LIG    1       -9.891  13.759   0.644  0.00  0.00    +0.001 A 
ATOM     23  C   LIG    1       -8.943  12.768   0.493  0.00  0.00    +0.010 A 
ENDBRANCH  10  18
ENDBRANCH   5   7
BRANCH   3  24
ATOM     24  C   LIG    1       -1.170   7.768   0.222  0.00  0.00    +0.194 C 
ATOM     25  O   LIG    1       -0.226   8.148  -0.449  0.00  0.00    -0.287 OA
BRANCH  24  26
ATOM     26  C   LIG    1       -0.970   6.754   1.260  0.00  0.00    +0.052 C 
ATOM     27  C   LIG    1        0.259   6.241   1.474  0.00  0.00    +0.012 C 
BRANCH  27  28
ATOM     28  C   LIG    1        0.460   5.223   2.518  0.00  0.00    -0.023 A 
ATOM     29  C   LIG    1       -0.621   4.785   3.290  0.00  0.00    +0.008 A 
ATOM     30  C   LIG    1       -0.425   3.826   4.262  0.00  0.00    +0.003 A 
ATOM     31  C   LIG    1        0.839   3.307   4.482  0.00  0.00    +0.032 A 
ATOM     32  C   LIG    1        1.913   3.736   3.723  0.00  0.00    +0.122 A 
ATOM     33  C   LIG    1        1.733   4.689   2.743  0.00  0.00    +0.040 A 
BRANCH  32  34
ATOM     34  N   LIG    1        3.260   3.169   3.962  0.00  0.00    +0.006 N 
ATOM     35  O   LIG    1        3.421   2.327   4.828  0.00  0.00    -0.130 OA
BRANCH  34  36
ATOM     36  O   LIG    1        4.206   3.545   3.295  0.00  0.00    -0.396 OA
ATOM     37  H   LIG    1        4.082   4.193   2.629  0.00  0.00    +0.329 HD
ENDBRANCH  34  36
ENDBRANCH  32  34
ENDBRANCH  27  28
ENDBRANCH  24  26
ENDBRANCH   3  24
TORSDOF 8
