REMARK  Name = ZINC44607942
REMARK                            x       y       z     vdW  Elec       q    Type
REMARK                         _______ _______ _______ _____ _____    ______ ____
ROOT
ATOM      1  C   LIG    1        3.711  -0.707  -0.038  0.00  0.00    +0.106 C 
ATOM      2  C   LIG    1        4.047  -1.204   1.371  0.00  0.00    +0.047 C 
ATOM      3  C   LIG    1        4.063  -0.036   2.353  0.00  0.00    +0.011 C 
ATOM      4  C   LIG    1        5.215   0.911   2.003  0.00  0.00    +0.030 C 
ATOM      5  C   LIG    1        6.526   0.118   2.015  0.00  0.00    +0.102 C 
ATOM      6  O   LIG    1        6.436  -0.949   1.070  0.00  0.00    -0.370 OA
ATOM      7  C   LIG    1        5.415  -1.882   1.350  0.00  0.00    +0.155 C 
ATOM      8  C   LIG    1        5.451  -2.932   0.268  0.00  0.00    +0.003 A 
ATOM      9  C   LIG    1        6.383  -3.952   0.356  0.00  0.00    +0.020 A 
ATOM     10  C   LIG    1        6.443  -4.926  -0.622  0.00  0.00    +0.055 A 
ATOM     11  C   LIG    1        5.572  -4.887  -1.696  0.00  0.00    +0.014 A 
ATOM     12  C   LIG    1        4.639  -3.874  -1.789  0.00  0.00    +0.024 A 
ATOM     13  C   LIG    1        4.575  -2.893  -0.804  0.00  0.00    +0.033 A 
ATOM     14  N   LIG    1        3.613  -1.882  -0.915  0.00  0.00    -0.336 N 
ATOM     15  H   LIG    1        2.893  -1.956  -1.561  0.00  0.00    +0.147 HD
ENDROOT
BRANCH   1  19
ATOM     16  C   LIG    1       -0.017   1.378   0.010  0.00  0.00    +0.000 A 
ATOM     17  C   LIG    1        1.171   2.086   0.002  0.00  0.00    +0.000 A 
ATOM     18  C   LIG    1        2.377   1.411  -0.013  0.00  0.00    +0.005 A 
ATOM     19  C   LIG    1        2.396   0.029  -0.020  0.00  0.00    -0.027 A 
ATOM     20  C   LIG    1        1.208  -0.679  -0.012  0.00  0.00    +0.005 A 
ATOM     21  C   LIG    1        0.002  -0.004   0.002  0.00  0.00    +0.000 A 
ENDBRANCH   1  19
BRANCH  10  22
ATOM     22  C   LIG    1        7.461  -6.033  -0.520  0.00  0.00    +0.417 C 
ATOM     23  F   LIG    1        8.595  -5.564   0.152  0.00  0.00    -0.166 F 
ATOM     24  F   LIG    1        7.821  -6.456  -1.804  0.00  0.00    -0.166 F 
ATOM     25  F   LIG    1        6.912  -7.108   0.188  0.00  0.00    -0.166 F 
ENDBRANCH  10  22
BRANCH   5  26
ATOM     26  C   LIG    1        7.686   1.041   1.636  0.00  0.00    -0.054 C 
BRANCH  26  27
ATOM     27  N   LIG    1        8.942   0.280   1.647  0.00  0.00    +0.380 N 
ATOM     28  H   LIG    1        9.707   0.889   1.397  0.00  0.00    -0.090 HD
ATOM     29  H   LIG    1        8.883  -0.476   0.982  0.00  0.00    -0.090 HD
ATOM     30  H   LIG    1        9.099  -0.096   2.570  0.00  0.00    -0.090 HD
ENDBRANCH  26  27
ENDBRANCH   5  26
TORSDOF 4
