REMARK  Name = ZINC19362693
REMARK                            x       y       z     vdW  Elec       q    Type
REMARK                         _______ _______ _______ _____ _____    ______ ____
ROOT
ATOM      1  N   LIG    1       -4.849  -3.284   1.645  0.00  0.00    -0.296 NA
ATOM      2  C   LIG    1       -5.253  -2.069   2.366  0.00  0.00    +0.100 C 
ATOM      3  C   LIG    1       -5.663  -2.439   3.793  0.00  0.00    +0.100 C 
ATOM      4  N   LIG    1       -6.764  -3.411   3.747  0.00  0.00    -0.289 NA
ATOM      5  C   LIG    1       -6.360  -4.626   3.027  0.00  0.00    +0.100 C 
ATOM      6  C   LIG    1       -5.950  -4.257   1.599  0.00  0.00    +0.100 C 
ENDROOT
BRANCH   1   7
ATOM      7  C   LIG    1       -4.375  -2.961   0.292  0.00  0.00    +0.123 C 
BRANCH   7  11
ATOM      8  C   LIG    1       -0.760  -0.687   0.552  0.00  0.00    +0.165 A 
ATOM      9  C   LIG    1       -1.970  -0.050   0.321  0.00  0.00    +0.050 A 
ATOM     10  C   LIG    1       -3.136  -0.788   0.237  0.00  0.00    +0.012 A 
ATOM     11  C   LIG    1       -3.101  -2.162   0.384  0.00  0.00    +0.012 A 
ATOM     12  C   LIG    1       -1.895  -2.806   0.616  0.00  0.00    +0.170 A 
ATOM     13  C   LIG    1       -0.719  -2.068   0.694  0.00  0.00    +0.204 A 
BRANCH   8  15
ATOM     14  C   LIG    1        0.270   1.456   0.479  0.00  0.00    +0.277 C 
ATOM     15  O   LIG    1        0.387   0.040   0.635  0.00  0.00    -0.491 OA
ENDBRANCH   8  15
BRANCH  12  16
ATOM     16  O   LIG    1       -1.862  -4.158   0.761  0.00  0.00    -0.491 OA
ATOM     17  C   LIG    1       -1.675  -4.933  -0.425  0.00  0.00    +0.277 C 
ENDBRANCH  12  16
BRANCH  13  18
ATOM     18  O   LIG    1        0.467  -2.697   0.916  0.00  0.00    -0.488 OA
ATOM     19  C   LIG    1        0.864  -2.873   2.278  0.00  0.00    +0.277 C 
ENDBRANCH  13  18
ENDBRANCH   7  11
ENDBRANCH   1   7
BRANCH   4  20
ATOM     20  C   LIG    1       -7.238  -3.734   5.100  0.00  0.00    +0.117 C 
BRANCH  20  21
ATOM     21  C   LIG    1       -8.409  -4.679   5.010  0.00  0.00    -0.026 A 
ATOM     22  C   LIG    1       -9.412  -4.449   4.087  0.00  0.00    +0.008 A 
ATOM     23  C   LIG    1      -10.486  -5.314   4.004  0.00  0.00    +0.038 A 
ATOM     24  C   LIG    1      -10.557  -6.412   4.844  0.00  0.00    +0.123 A 
ATOM     25  F   LIG    1      -11.607  -7.259   4.763  0.00  0.00    -0.205 F 
ATOM     26  C   LIG    1       -9.551  -6.641   5.768  0.00  0.00    +0.038 A 
ATOM     27  C   LIG    1       -8.476  -5.777   5.846  0.00  0.00    +0.008 A 
ENDBRANCH  20  21
BRANCH  20  28
ATOM     28  C   LIG    1       -7.665  -2.469   5.798  0.00  0.00    -0.026 A 
ATOM     29  C   LIG    1       -8.425  -1.531   5.124  0.00  0.00    +0.008 A 
ATOM     30  C   LIG    1       -8.818  -0.371   5.763  0.00  0.00    +0.038 A 
ATOM     31  C   LIG    1       -8.451  -0.148   7.080  0.00  0.00    +0.123 A 
ATOM     32  F   LIG    1       -8.834   0.987   7.705  0.00  0.00    -0.205 F 
ATOM     33  C   LIG    1       -7.690  -1.088   7.754  0.00  0.00    +0.038 A 
ATOM     34  C   LIG    1       -7.302  -2.250   7.114  0.00  0.00    +0.008 A 
ENDBRANCH  20  28
ENDBRANCH   4  20
TORSDOF 8
