REMARK  Name = ZINC28950583
REMARK                            x       y       z     vdW  Elec       q    Type
REMARK                         _______ _______ _______ _____ _____    ______ ____
ROOT
ATOM      1  C   LIG    1        0.953   2.007   0.876  0.00  0.00    +0.128 A 
ATOM      2  C   LIG    1        1.831   1.240   1.645  0.00  0.00    +0.063 A 
ATOM      3  C   LIG    1        2.501   1.852   2.687  0.00  0.00    +0.118 A 
ATOM      4  N   LIG    1        2.292   3.139   2.924  0.00  0.00    -0.223 NA
ATOM      5  C   LIG    1        1.453   3.842   2.178  0.00  0.00    +0.221 A 
ATOM      6  N   LIG    1        0.796   3.294   1.167  0.00  0.00    -0.199 NA
ENDROOT
BRANCH   1   7
ATOM      7  N   LIG    1        0.260   1.434  -0.179  0.00  0.00    -0.299 N 
ATOM      8  H   LIG    1       -0.348   2.065  -0.845  0.00  0.00    +0.154 HD
BRANCH   7  19
ATOM      9  C   LIG    1       -1.986  -0.150   0.509  0.00  0.00    +0.045 C 
ATOM     10  C   LIG    1       -0.737  -0.754  -0.079  0.00  0.00    -0.029 A 
ATOM     11  C   LIG    1       -0.669  -2.124  -0.295  0.00  0.00    +0.007 A 
ATOM     12  C   LIG    1        0.463  -2.696  -0.830  0.00  0.00    +0.028 A 
ATOM     13  C   LIG    1        1.556  -1.899  -1.161  0.00  0.00    +0.068 A 
ATOM     14  C   LIG    1        1.496  -0.509  -0.951  0.00  0.00    +0.041 A 
ATOM     15  C   LIG    1        2.737   0.025  -1.370  0.00  0.00    +0.144 A 
ATOM     16  N   LIG    1        3.484  -0.948  -1.805  0.00  0.00    -0.181 NA
ATOM     17  N   LIG    1        2.793  -2.160  -1.694  0.00  0.00    -0.277 N 
ATOM     18  H   LIG    1        3.074  -3.193  -1.950  0.00  0.00    +0.189 HD
ATOM     19  C   LIG    1        0.334   0.059  -0.398  0.00  0.00    +0.046 A 
ENDBRANCH   7  19
ENDBRANCH   1   7
BRANCH   5  20
ATOM     20  N   LIG    1        1.262   5.185   2.459  0.00  0.00    -0.284 N 
ATOM     21  H   LIG    1        0.630   5.800   1.801  0.00  0.00    +0.155 HD
BRANCH  20  22
ATOM     22  C   LIG    1        1.873   5.759   3.578  0.00  0.00    +0.034 A 
ATOM     23  C   LIG    1        2.051   5.008   4.734  0.00  0.00    +0.023 A 
ATOM     24  C   LIG    1        2.660   5.569   5.841  0.00  0.00    +0.003 A 
ATOM     25  C   LIG    1        3.085   6.882   5.810  0.00  0.00    +0.013 A 
ATOM     26  C   LIG    1        2.906   7.646   4.655  0.00  0.00    +0.038 A 
ATOM     27  C   LIG    1        2.297   7.079   3.536  0.00  0.00    +0.036 A 
BRANCH  26  28
ATOM     28  C   LIG    1        3.359   9.053   4.619  0.00  0.00    +0.242 C 
ATOM     29  N   LIG    1        3.947   9.600   5.702  0.00  0.00    -0.325 N 
ATOM     30  H   LIG    1        4.090   8.999   6.612  0.00  0.00    +0.145 HD
ATOM     31  H   LIG    1        4.285  10.646   5.675  0.00  0.00    +0.145 HD
ATOM     32  O   LIG    1        3.202   9.717   3.613  0.00  0.00    -0.270 OA
ENDBRANCH  26  28
ENDBRANCH  20  22
ENDBRANCH   5  20
TORSDOF 5
