REMARK  Name = ZINC28711056
REMARK                            x       y       z     vdW  Elec       q    Type
REMARK                         _______ _______ _______ _____ _____    ______ ____
ROOT
ATOM      1  C   LIG    1       -0.076   5.330   0.030  0.00  0.00    +0.090 A 
ATOM      2  C   LIG    1        1.127   6.049  -0.077  0.00  0.00    +0.141 A 
ATOM      3  N   LIG    1        1.124   7.363  -0.078  0.00  0.00    -0.232 NA
ATOM      4  C   LIG    1       -0.033   8.023   0.037  0.00  0.00    +0.185 A 
ATOM      5  C   LIG    1       -1.245   7.297   0.151  0.00  0.00    +0.148 A 
ATOM      6  C   LIG    1       -2.489   8.059   0.274  0.00  0.00    +0.149 A 
ATOM      7  N   LIG    1       -2.405   9.382   0.271  0.00  0.00    -0.198 NA
ATOM      8  C   LIG    1       -1.232   9.998   0.160  0.00  0.00    +0.216 A 
ATOM      9  N   LIG    1       -0.084   9.361   0.047  0.00  0.00    -0.193 NA
ATOM     10  N   LIG    1       -1.230   5.969   0.145  0.00  0.00    -0.239 NA
ENDROOT
BRANCH   1  13
ATOM     11  C   LIG    1       -1.220   1.748   0.017  0.00  0.00    +0.004 A 
ATOM     12  C   LIG    1       -1.246   3.129   0.030  0.00  0.00    +0.010 A 
ATOM     13  C   LIG    1       -0.051   3.848   0.022  0.00  0.00    +0.005 A 
ATOM     14  C   LIG    1        1.165   3.169   0.007  0.00  0.00    +0.055 A 
ATOM     15  C   LIG    1        1.181   1.784   0.000  0.00  0.00    +0.117 A 
ATOM     16  C   LIG    1       -0.013   1.076   0.008  0.00  0.00    +0.045 A 
BRANCH  15  17
ATOM     17  O   LIG    1        2.366   1.119  -0.014  0.00  0.00    -0.507 OA
ATOM     18  H   LIG    1        2.379   0.019  -0.019  0.00  0.00    +0.292 HD
ENDBRANCH  15  17
ENDBRANCH   1  13
BRANCH   6  19
ATOM     19  N   LIG    1       -3.706   7.423   0.390  0.00  0.00    -0.341 N 
ATOM     20  H   LIG    1       -3.754   6.324   0.391  0.00  0.00    +0.144 HD
ATOM     21  H   LIG    1       -4.629   8.014   0.481  0.00  0.00    +0.144 HD
ENDBRANCH   6  19
BRANCH   8  22
ATOM     22  N   LIG    1       -1.216  11.380   0.163  0.00  0.00    -0.327 N 
ATOM     23  H   LIG    1       -2.158  11.940   0.256  0.00  0.00    +0.145 HD
ATOM     24  H   LIG    1       -0.262  11.919   0.073  0.00  0.00    +0.145 HD
ENDBRANCH   8  22
TORSDOF 4
