REMARK  Name = ZINC21992002
REMARK                            x       y       z     vdW  Elec       q    Type
REMARK                         _______ _______ _______ _____ _____    ______ ____
ROOT
ATOM      1  C   LIG    1       -0.091   5.865  -1.409  0.00  0.00    +0.271 C 
ENDROOT
BRANCH   1   2
ATOM      2  P   LIG    1       -0.116   7.688  -1.398  0.00  0.00    +0.371 P 
ATOM      3  O   LIG    1       -1.324   8.161  -0.686  0.00  0.00    -0.255 OA
BRANCH   2   4
ATOM      4  O   LIG    1       -0.138   8.232  -2.913  0.00  0.00    -0.322 OA
ATOM      5  H   LIG    1       -0.154   9.315  -3.108  0.00  0.00    +0.220 HD
ENDBRANCH   2   4
BRANCH   2   6
ATOM      6  O   LIG    1        1.198   8.238  -0.649  0.00  0.00    -0.322 OA
ATOM      7  H   LIG    1        1.211   7.910   0.264  0.00  0.00    +0.220 HD
ENDBRANCH   2   6
ENDBRANCH   1   2
BRANCH   1   8
ATOM      8  P   LIG    1       -1.579   5.242  -2.257  0.00  0.00    +0.371 P 
ATOM      9  O   LIG    1       -1.599   5.742  -3.650  0.00  0.00    -0.255 OA
BRANCH   8  10
ATOM     10  O   LIG    1       -2.894   5.756  -1.483  0.00  0.00    -0.322 OA
ATOM     11  H   LIG    1       -2.907   6.726  -1.477  0.00  0.00    +0.220 HD
ENDBRANCH   8  10
BRANCH   8  12
ATOM     12  O   LIG    1       -1.558   3.632  -2.266  0.00  0.00    -0.322 OA
ATOM     13  H   LIG    1       -2.380   3.073  -2.737  0.00  0.00    +0.220 HD
ENDBRANCH   8  12
ENDBRANCH   1   8
BRANCH   1  14
ATOM     14  O   LIG    1        1.075   5.408  -2.096  0.00  0.00    -0.367 OA
ATOM     15  H   LIG    1        1.236   5.682  -3.149  0.00  0.00    +0.212 HD
ENDBRANCH   1  14
BRANCH   1  16
ATOM     16  C   LIG    1       -0.070   5.347   0.031  0.00  0.00    +0.095 C 
BRANCH  16  20
ATOM     17  C   LIG    1       -0.013   1.076   0.008  0.00  0.00    +0.000 A 
ATOM     18  C   LIG    1       -1.219   1.751   0.017  0.00  0.00    +0.000 A 
ATOM     19  C   LIG    1       -1.238   3.133   0.030  0.00  0.00    +0.004 A 
ATOM     20  C   LIG    1       -0.050   3.840   0.023  0.00  0.00    -0.043 A 
ATOM     21  C   LIG    1        1.156   3.165   0.008  0.00  0.00    +0.004 A 
ATOM     22  C   LIG    1        1.175   1.783   0.000  0.00  0.00    +0.000 A 
ENDBRANCH  16  20
ENDBRANCH   1  16
TORSDOF 9
