REMARK  Name = ZINC66258612
REMARK                            x       y       z     vdW  Elec       q    Type
REMARK                         _______ _______ _______ _____ _____    ______ ____
ROOT
ATOM      1  N   LIG    1        1.991  -4.653   1.083  0.00  0.00    -0.307 N 
ATOM      2  H   LIG    1        2.475  -4.059   1.678  0.00  0.00    +0.149 HD
ATOM      3  C   LIG    1        2.036  -5.986   1.278  0.00  0.00    +0.299 C 
ATOM      4  O   LIG    1        1.431  -6.729   0.533  0.00  0.00    -0.265 OA
ENDROOT
BRANCH   3   5
ATOM      5  C   LIG    1        2.830  -6.549   2.410  0.00  0.00    +0.303 C 
ATOM      6  N   LIG    1        2.875  -7.881   2.605  0.00  0.00    -0.278 N 
ATOM      7  H   LIG    1        2.339  -8.471   2.052  0.00  0.00    +0.155 HD
ATOM      8  O   LIG    1        3.436  -5.806   3.155  0.00  0.00    -0.265 OA
BRANCH   6   9
ATOM      9  C   LIG    1        3.694  -8.415   3.604  0.00  0.00    +0.037 A 
ATOM     10  C   LIG    1        4.332  -9.633   3.405  0.00  0.00    +0.025 A 
ATOM     11  C   LIG    1        5.141 -10.158   4.393  0.00  0.00    +0.025 A 
ATOM     12  C   LIG    1        5.318  -9.473   5.582  0.00  0.00    +0.076 A 
ATOM     13 CL   LIG    1        6.336 -10.137   6.822  0.00  0.00    -0.081 Cl
ATOM     14  C   LIG    1        4.684  -8.257   5.785  0.00  0.00    +0.143 A 
ATOM     15  F   LIG    1        4.858  -7.590   6.946  0.00  0.00    -0.204 F 
ATOM     16  C   LIG    1        3.877  -7.724   4.796  0.00  0.00    +0.063 A 
ENDBRANCH   6   9
ENDBRANCH   3   5
BRANCH   1  17
ATOM     17  C   LIG    1        1.212  -4.101  -0.028  0.00  0.00    +0.108 C 
BRANCH  17  23
ATOM     18  C   LIG    1       -0.016   1.468   0.019  0.00  0.00    -0.096 C 
ATOM     19  N   LIG    1        0.001  -0.001   0.013  0.00  0.00    +0.378 N 
ATOM     20  H   LIG    1       -0.947  -0.347   0.030  0.00  0.00    -0.082 HD
ATOM     21  C   LIG    1        0.670  -0.476  -1.204  0.00  0.00    -0.079 C 
ATOM     22  C   LIG    1        0.619  -2.004  -1.255  0.00  0.00    -0.014 C 
ATOM     23  C   LIG    1        1.329  -2.575  -0.024  0.00  0.00    +0.003 C 
ATOM     24  C   LIG    1        0.669  -2.015   1.239  0.00  0.00    -0.014 C 
ATOM     25  C   LIG    1        0.718  -0.486   1.198  0.00  0.00    -0.079 C 
ENDBRANCH  17  23
ENDBRANCH   1  17
TORSDOF 4
