REMARK  Name = ZINC28637746
REMARK                            x       y       z     vdW  Elec       q    Type
REMARK                         _______ _______ _______ _____ _____    ______ ____
ROOT
ATOM      1  C   LIG    1       -0.627   1.665   3.743  0.00  0.00    +0.202 C 
ATOM      2  N   LIG    1       -0.509   2.952   4.125  0.00  0.00    -0.291 N 
ATOM      3  C   LIG    1        0.274   3.987   3.425  0.00  0.00    +0.108 C 
ATOM      4  C   LIG    1        0.602   5.039   4.514  0.00  0.00    +0.021 C 
ATOM      5  C   LIG    1       -0.703   5.036   5.353  0.00  0.00    +0.033 C 
ATOM      6  C   LIG    1       -1.145   3.558   5.304  0.00  0.00    +0.162 C 
ATOM      7  O   LIG    1       -1.301   0.897   4.397  0.00  0.00    -0.277 OA
ENDROOT
BRANCH   6   8
ATOM      8  C   LIG    1       -2.644   3.471   5.178  0.00  0.00    +0.231 C 
ATOM      9  N   LIG    1       -3.431   3.969   6.153  0.00  0.00    -0.328 N 
ATOM     10  H   LIG    1       -2.979   4.437   7.040  0.00  0.00    +0.145 HD
ATOM     11  H   LIG    1       -4.526   3.906   6.062  0.00  0.00    +0.145 HD
ATOM     12  O   LIG    1       -3.142   2.955   4.201  0.00  0.00    -0.274 OA
ENDBRANCH   6   8
BRANCH   1  13
ATOM     13  C   LIG    1        0.079   1.179   2.503  0.00  0.00    +0.016 C 
BRANCH  13  14
ATOM     14  N   LIG    1        0.204  -0.284   2.553  0.00  0.00    +0.386 N 
ATOM     15  H   LIG    1       -0.797  -0.737   2.606  0.00  0.00    -0.089 HD
ATOM     16  H   LIG    1        0.719  -0.639   1.648  0.00  0.00    -0.089 HD
ATOM     17  H   LIG    1        0.785  -0.572   3.442  0.00  0.00    -0.089 HD
ENDBRANCH  13  14
BRANCH  13  18
ATOM     18  C   LIG    1       -0.729   1.579   1.267  0.00  0.00    -0.020 C 
ATOM     19  C   LIG    1       -2.121   0.950   1.341  0.00  0.00    +0.006 C 
BRANCH  18  21
ATOM     20  C   LIG    1       -0.753   1.593  -1.232  0.00  0.00    +0.004 C 
ATOM     21  C   LIG    1       -0.013   1.086   0.008  0.00  0.00    -0.001 C 
ENDBRANCH  18  21
ENDBRANCH  13  18
ENDBRANCH   1  13
TORSDOF 5
