REMARK  Name = ZINC29555908
REMARK                            x       y       z     vdW  Elec       q    Type
REMARK                         _______ _______ _______ _____ _____    ______ ____
ROOT
ATOM      1  C   LIG    1        2.420   3.936   0.000  0.00  0.00    +0.139 A 
ATOM      2  C   LIG    1        2.366   5.296   0.007  0.00  0.00    +0.098 A 
ATOM      3  C   LIG    1        3.569   6.040   0.000  0.00  0.00    +0.193 A 
ATOM      4  C   LIG    1        4.836   5.282  -0.015  0.00  0.00    +0.067 A 
ATOM      5  C   LIG    1        6.069   5.932  -0.022  0.00  0.00    +0.053 A 
ATOM      6  C   LIG    1        7.231   5.187  -0.036  0.00  0.00    +0.124 A 
ATOM      7  F   LIG    1        8.430   5.810  -0.043  0.00  0.00    -0.205 F 
ATOM      8  C   LIG    1        7.172   3.799  -0.043  0.00  0.00    +0.042 A 
ATOM      9  C   LIG    1        5.957   3.147  -0.036  0.00  0.00    +0.050 A 
ATOM     10  C   LIG    1        4.777   3.880  -0.021  0.00  0.00    +0.139 A 
ATOM     11  O   LIG    1        3.560   7.260   0.007  0.00  0.00    -0.287 OA
ATOM     12  O   LIG    1        3.578   3.259  -0.008  0.00  0.00    -0.455 OA
ENDROOT
BRANCH   1  15
ATOM     13  C   LIG    1       -0.013   1.076   0.008  0.00  0.00    +0.002 A 
ATOM     14  C   LIG    1        1.174   1.780   0.000  0.00  0.00    +0.011 A 
ATOM     15  C   LIG    1        1.154   3.176   0.008  0.00  0.00    +0.019 A 
ATOM     16  C   LIG    1       -0.069   3.851   0.022  0.00  0.00    +0.031 A 
ATOM     17  C   LIG    1       -1.249   3.134   0.030  0.00  0.00    +0.042 A 
ATOM     18 CL   LIG    1       -2.770   3.970   0.048  0.00  0.00    -0.084 Cl
ATOM     19  C   LIG    1       -1.221   1.749   0.017  0.00  0.00    +0.020 A 
ENDBRANCH   1  15
TORSDOF 1
