REMARK  Name = ZINC52956332
REMARK                            x       y       z     vdW  Elec       q    Type
REMARK                         _______ _______ _______ _____ _____    ______ ____
ROOT
ATOM      1  N   LIG    1       -4.604  -2.340  -0.060  0.00  0.00    -0.325 N 
ATOM      2  C   LIG    1       -5.197  -1.263  -0.867  0.00  0.00    +0.120 C 
ATOM      3  C   LIG    1       -5.005   0.064  -0.124  0.00  0.00    +0.103 C 
ATOM      4  N   LIG    1       -5.541  -0.059   1.238  0.00  0.00    -0.295 NA
ATOM      5  C   LIG    1       -4.806  -1.069   2.011  0.00  0.00    +0.103 C 
ATOM      6  C   LIG    1       -4.994  -2.446   1.355  0.00  0.00    +0.120 C 
ENDROOT
BRANCH   1  12
ATOM      7  C   LIG    1       -2.331  -2.970  -0.599  0.00  0.00    +0.142 A 
ATOM      8  C   LIG    1       -1.437  -3.871  -1.154  0.00  0.00    +0.047 A 
ATOM      9  C   LIG    1       -1.901  -5.037  -1.736  0.00  0.00    +0.004 A 
ATOM     10  C   LIG    1       -3.256  -5.307  -1.766  0.00  0.00    +0.002 A 
ATOM     11  C   LIG    1       -4.155  -4.413  -1.214  0.00  0.00    +0.027 A 
ATOM     12  C   LIG    1       -3.696  -3.244  -0.624  0.00  0.00    +0.072 A 
BRANCH   7  13
ATOM     13  O   LIG    1       -1.876  -1.823  -0.027  0.00  0.00    -0.488 OA
BRANCH  13  15
ATOM     14  C   LIG    1       -0.257  -0.040  -0.225  0.00  0.00    +0.051 C 
ATOM     15  C   LIG    1       -0.478  -1.551  -0.141  0.00  0.00    +0.167 C 
ATOM     16  C   LIG    1        0.251  -2.106   1.085  0.00  0.00    +0.051 C 
ENDBRANCH  13  15
ENDBRANCH   7  13
ENDBRANCH   1  12
BRANCH   4  17
ATOM     17  C   LIG    1       -5.533   1.239   1.926  0.00  0.00    +0.119 C 
BRANCH  17  18
ATOM     18  C   LIG    1       -6.306   1.129   3.215  0.00  0.00    -0.033 A 
ATOM     19  C   LIG    1       -7.666   1.385   3.227  0.00  0.00    +0.005 A 
ATOM     20  C   LIG    1       -8.384   1.287   4.406  0.00  0.00    +0.001 A 
ATOM     21  C   LIG    1       -7.747   0.932   5.577  0.00  0.00    +0.013 A 
ATOM     22  C   LIG    1       -6.376   0.672   5.572  0.00  0.00    +0.037 A 
ATOM     23  C   LIG    1       -5.659   0.768   4.378  0.00  0.00    +0.018 A 
BRANCH  22  24
ATOM     24  C   LIG    1       -5.687   0.292   6.823  0.00  0.00    +0.247 C 
ATOM     25  N   LIG    1       -4.515   0.871   7.150  0.00  0.00    -0.298 N 
ATOM     26  C   LIG    1       -3.864   1.815   6.230  0.00  0.00    +0.108 C 
ATOM     27  C   LIG    1       -3.577   3.118   6.983  0.00  0.00    +0.019 C 
ATOM     28  C   LIG    1       -2.765   2.807   8.242  0.00  0.00    +0.003 C 
ATOM     29  C   LIG    1       -3.576   1.888   9.159  0.00  0.00    +0.019 C 
ATOM     30  C   LIG    1       -3.866   0.576   8.434  0.00  0.00    +0.108 C 
ATOM     31  O   LIG    1       -6.178  -0.542   7.558  0.00  0.00    -0.270 OA
ENDBRANCH  22  24
ENDBRANCH  17  18
ENDBRANCH   4  17
TORSDOF 6
