REMARK  Name = ZINC22418574
REMARK                            x       y       z     vdW  Elec       q    Type
REMARK                         _______ _______ _______ _____ _____    ______ ____
ROOT
ATOM      1  C   LIG    1       -1.437   3.611  -2.409  0.00  0.00    +0.104 C 
ENDROOT
BRANCH   1   7
ATOM      2  C   LIG    1       -0.163   0.674   2.244  0.00  0.00    -0.096 C 
ATOM      3  N   LIG    1       -0.764   1.277   1.048  0.00  0.00    +0.379 N 
ATOM      4  H   LIG    1       -1.760   0.831   0.909  0.00  0.00    -0.082 HD
ATOM      5  C   LIG    1        0.036   0.982  -0.149  0.00  0.00    -0.064 C 
ATOM      6  C   LIG    1       -0.664   1.558  -1.383  0.00  0.00    +0.066 C 
ATOM      7  N   LIG    1       -0.836   3.008  -1.212  0.00  0.00    -0.297 NA
ATOM      8  C   LIG    1       -1.636   3.303  -0.016  0.00  0.00    +0.066 C 
ATOM      9  C   LIG    1       -0.937   2.727   1.218  0.00  0.00    -0.064 C 
ENDBRANCH   1   7
BRANCH   1  10
ATOM     10  C   LIG    1       -1.623   5.090  -2.187  0.00  0.00    -0.029 A 
ATOM     11  C   LIG    1       -0.650   5.816  -1.526  0.00  0.00    +0.007 A 
ATOM     12  C   LIG    1       -0.816   7.173  -1.325  0.00  0.00    +0.023 A 
ATOM     13  C   LIG    1       -1.966   7.805  -1.779  0.00  0.00    +0.029 A 
ATOM     14  C   LIG    1       -2.944   7.071  -2.439  0.00  0.00    +0.023 A 
ATOM     15  C   LIG    1       -2.770   5.716  -2.641  0.00  0.00    +0.007 A 
BRANCH  13  16
ATOM     16  N   LIG    1       -2.139   9.175  -1.573  0.00  0.00    -0.336 N 
ATOM     17  C   LIG    1       -1.107   9.948  -0.877  0.00  0.00    +0.129 C 
ATOM     18  C   LIG    1       -3.353   9.841  -2.052  0.00  0.00    +0.129 C 
ENDBRANCH  13  16
ENDBRANCH   1  10
BRANCH   1  19
ATOM     19  C   LIG    1       -0.515   3.388  -3.610  0.00  0.00    +0.129 C 
BRANCH  19  20
ATOM     20  N   LIG    1       -1.157   3.904  -4.821  0.00  0.00    -0.297 N 
ATOM     21  H   LIG    1       -2.122   4.429  -4.752  0.00  0.00    +0.150 HD
ATOM     22  C   LIG    1       -0.567   3.737  -6.021  0.00  0.00    +0.304 C 
ATOM     23  N   LIG    1       -1.157   4.212  -7.136  0.00  0.00    -0.269 N 
ATOM     24  H   LIG    1       -2.157   4.668  -7.077  0.00  0.00    +0.156 HD
ATOM     25  O   LIG    1        0.500   3.157  -6.098  0.00  0.00    -0.253 OA
BRANCH  23  26
ATOM     26  C   LIG    1       -0.499   4.125  -8.369  0.00  0.00    +0.035 A 
ATOM     27  C   LIG    1       -0.645   5.137  -9.307  0.00  0.00    +0.026 A 
ATOM     28  C   LIG    1        0.010   5.052 -10.521  0.00  0.00    +0.040 A 
ATOM     29  C   LIG    1        0.802   3.953 -10.805  0.00  0.00    +0.124 A 
ATOM     30  F   LIG    1        1.438   3.869 -11.995  0.00  0.00    -0.205 F 
ATOM     31  C   LIG    1        0.944   2.939  -9.873  0.00  0.00    +0.040 A 
ATOM     32  C   LIG    1        0.295   3.023  -8.656  0.00  0.00    +0.026 A 
ENDBRANCH  23  26
ENDBRANCH  19  20
ENDBRANCH   1  19
TORSDOF 6
