REMARK  Name = ZINC33696848
REMARK                            x       y       z     vdW  Elec       q    Type
REMARK                         _______ _______ _______ _____ _____    ______ ____
ROOT
ATOM      1  C   LIG    1       -5.349   5.481  -2.297  0.00  0.00    +0.012 C 
ATOM      2  C   LIG    1       -4.218   4.585  -2.819  0.00  0.00    -0.018 C 
ATOM      3  C   LIG    1       -2.847   5.195  -2.554  0.00  0.00    +0.008 C 
ATOM      4  C   LIG    1       -2.450   5.125  -1.090  0.00  0.00    +0.005 C 
ATOM      5  C   LIG    1       -2.496   3.720  -0.513  0.00  0.00    +0.000 C 
ATOM      6  C   LIG    1       -3.744   2.968  -0.881  0.00  0.00    -0.004 C 
ATOM      7  C   LIG    1       -3.757   1.503  -0.464  0.00  0.00    +0.006 C 
ATOM      8  C   LIG    1       -2.423   0.802  -0.694  0.00  0.00    +0.023 C 
ATOM      9  C   LIG    1       -1.310   1.593  -0.021  0.00  0.00    +0.079 C 
ATOM     10  N   LIG    1       -0.037   0.893  -0.065  0.00  0.00    -0.312 N 
ATOM     11  H   LIG    1       -0.015  -0.206  -0.095  0.00  0.00    +0.149 HD
ATOM     12  C   LIG    1        1.137   1.533  -0.071  0.00  0.00    +0.213 C 
ATOM     13  O   LIG    1        2.150   0.868  -0.022  0.00  0.00    -0.276 OA
ATOM     14  C   LIG    1        1.269   3.024  -0.142  0.00  0.00    +0.096 C 
ATOM     15  C   LIG    1       -0.070   3.722   0.086  0.00  0.00    +0.018 C 
ATOM     16  C   LIG    1       -1.184   2.975  -0.668  0.00  0.00    -0.010 C 
ATOM     17  C   LIG    1       -0.768   2.834  -2.128  0.00  0.00    +0.013 C 
ATOM     18  C   LIG    1       -4.351   4.353  -4.349  0.00  0.00    +0.081 C 
ATOM     19  C   LIG    1       -3.572   3.045  -4.593  0.00  0.00    +0.013 C 
ATOM     20  C   LIG    1       -3.805   2.196  -3.323  0.00  0.00    +0.005 C 
ATOM     21  C   LIG    1       -4.317   3.163  -2.253  0.00  0.00    -0.001 C 
ENDROOT
BRANCH  18  22
ATOM     22  C   LIG    1       -3.771   5.481  -5.147  0.00  0.00    +0.217 C 
ATOM     23  N   LIG    1       -4.520   6.567  -5.422  0.00  0.00    -0.310 N 
ATOM     24  H   LIG    1       -5.558   6.626  -5.061  0.00  0.00    +0.149 HD
ATOM     25  O   LIG    1       -2.627   5.417  -5.545  0.00  0.00    -0.275 OA
BRANCH  23  26
ATOM     26  C   LIG    1       -3.953   7.670  -6.202  0.00  0.00    +0.026 C 
ATOM     27  C   LIG    1       -2.735   8.238  -5.471  0.00  0.00    +0.031 C 
ATOM     28  C   LIG    1       -5.004   8.770  -6.370  0.00  0.00    +0.031 C 
ATOM     29  C   LIG    1       -3.529   7.156  -7.579  0.00  0.00    +0.031 C 
ENDBRANCH  23  26
ENDBRANCH  18  22
TORSDOF 2
