REMARK  Name = ZINC45356413
REMARK                            x       y       z     vdW  Elec       q    Type
REMARK                         _______ _______ _______ _____ _____    ______ ____
ROOT
ATOM      1  C   LIG    1        4.163   2.222   1.425  0.00  0.00    -0.064 C 
ATOM      2  C   LIG    1        3.124   2.955   2.277  0.00  0.00    +0.006 C 
ATOM      3  C   LIG    1        2.934   4.375   1.735  0.00  0.00    +0.105 C 
ATOM      4  N   LIG    1        4.244   5.038   1.677  0.00  0.00    -0.315 N 
ATOM      5  C   LIG    1        5.341   4.375   0.959  0.00  0.00    +0.105 C 
ATOM      6  C   LIG    1        5.504   2.955   1.510  0.00  0.00    +0.006 C 
ENDROOT
BRANCH   4   7
ATOM      7  C   LIG    1        4.441   6.264   2.288  0.00  0.00    +0.134 A 
ATOM      8  C   LIG    1        4.214   7.460   1.589  0.00  0.00    +0.059 A 
ATOM      9  C   LIG    1        3.776   7.803   0.237  0.00  0.00    +0.032 A 
ATOM     10  C   LIG    1        3.752   9.144   0.166  0.00  0.00    +0.085 A 
ATOM     11  N   LIG    1        4.140   9.681   1.366  0.00  0.00    -0.346 N 
ATOM     12  H   LIG    1        4.200  10.629   1.558  0.00  0.00    +0.167 HD
ATOM     13  C   LIG    1        4.428   8.681   2.254  0.00  0.00    +0.143 A 
ATOM     14  N   LIG    1        4.838   8.652   3.522  0.00  0.00    -0.218 NA
ATOM     15  C   LIG    1        5.039   7.508   4.137  0.00  0.00    +0.225 A 
ATOM     16  N   LIG    1        4.844   6.339   3.552  0.00  0.00    -0.220 NA
ENDBRANCH   4   7
BRANCH   1  17
ATOM     17  N   LIG    1        4.323   0.850   1.922  0.00  0.00    +0.382 N 
ATOM     18  H   LIG    1        3.439   0.366   1.866  0.00  0.00    -0.089 HD
ATOM     19  H   LIG    1        4.633   0.873   2.882  0.00  0.00    -0.089 HD
ATOM     20  H   LIG    1        5.007   0.366   1.360  0.00  0.00    -0.089 HD
ENDBRANCH   1  17
BRANCH   1  21
ATOM     21  C   LIG    1        3.694   2.186  -0.031  0.00  0.00    +0.024 C 
BRANCH  21  24
ATOM     22  C   LIG    1       -0.015   1.523  -0.280  0.00  0.00    +0.020 A 
ATOM     23  C   LIG    1        1.197   2.184  -0.202  0.00  0.00    +0.006 A 
ATOM     24  C   LIG    1        2.373   1.464  -0.115  0.00  0.00    -0.030 A 
ATOM     25  C   LIG    1        2.339   0.081  -0.106  0.00  0.00    +0.045 A 
ATOM     26 CL   LIG    1        3.817  -0.823   0.003  0.00  0.00    -0.083 Cl
ATOM     27  C   LIG    1        1.127  -0.581  -0.184  0.00  0.00    +0.040 A 
ATOM     28  C   LIG    1       -0.050   0.140  -0.271  0.00  0.00    +0.042 A 
ATOM     29 CL   LIG    1       -1.572  -0.690  -0.369  0.00  0.00    -0.083 Cl
ENDBRANCH  21  24
ENDBRANCH   1  21
TORSDOF 4
