REMARK  Name = ZINC36924410
REMARK                            x       y       z     vdW  Elec       q    Type
REMARK                         _______ _______ _______ _____ _____    ______ ____
ROOT
ATOM      1  C   LIG    1        0.606  -0.608  -1.056  0.00  0.00    +0.162 A 
ATOM      2  C   LIG    1        1.172   0.155  -2.061  0.00  0.00    +0.053 A 
ATOM      3  C   LIG    1        1.795  -0.451  -3.145  0.00  0.00    -0.038 A 
ATOM      4  C   LIG    1        1.853  -1.826  -3.216  0.00  0.00    -0.025 A 
ATOM      5  C   LIG    1        2.539  -2.547  -4.349  0.00  0.00    +0.146 C 
ATOM      6  N   LIG    1        2.843  -1.599  -5.426  0.00  0.00    -0.162 NA
ATOM      7  C   LIG    1        3.416  -0.299  -5.040  0.00  0.00    +0.115 C 
ATOM      8  C   LIG    1        1.280  -2.597  -2.213  0.00  0.00    +0.054 A 
ATOM      9  C   LIG    1        2.374   0.446  -4.207  0.00  0.00    +0.052 C 
ATOM     10  C   LIG    1        0.663  -1.996  -1.131  0.00  0.00    +0.162 A 
ENDROOT
BRANCH   6  11
ATOM     11  S   LIG    1        2.553  -1.975  -7.013  0.00  0.00    +0.095 S 
ATOM     12  O   LIG    1        2.554  -3.393  -7.100  0.00  0.00    -0.141 OA
ATOM     13  O   LIG    1        3.424  -1.163  -7.788  0.00  0.00    -0.141 OA
BRANCH  11  14
ATOM     14  N   LIG    1        1.011  -1.480  -7.359  0.00  0.00    -0.193 NA
ATOM     15  H   LIG    1        0.336  -1.471  -6.662  0.00  0.00    +0.145 HD
ATOM     16  H   LIG    1        0.782  -1.200  -8.259  0.00  0.00    +0.145 HD
ENDBRANCH  11  14
ENDBRANCH   6  11
BRANCH   1  18
ATOM     17  C   LIG    1       -0.017   1.425   0.010  0.00  0.00    +0.277 C 
ATOM     18  O   LIG    1        0.002  -0.004   0.002  0.00  0.00    -0.491 OA
ENDBRANCH   1  18
BRANCH  10  19
ATOM     19  O   LIG    1        0.110  -2.757  -0.149  0.00  0.00    -0.491 OA
ATOM     20  C   LIG    1        0.208  -4.175  -0.295  0.00  0.00    +0.277 C 
ENDBRANCH  10  19
TORSDOF 4
