REMARK  Name = ZINC29039424
REMARK                            x       y       z     vdW  Elec       q    Type
REMARK                         _______ _______ _______ _____ _____    ______ ____
ROOT
ATOM      1  C   LIG    1       -2.145   5.437  -3.595  0.00  0.00    +0.053 A 
ATOM      2  C   LIG    1       -1.565   5.204  -2.358  0.00  0.00    +0.048 A 
ATOM      3  C   LIG    1       -1.424   3.903  -1.893  0.00  0.00    +0.031 A 
ATOM      4  C   LIG    1       -1.857   2.836  -2.670  0.00  0.00    +0.025 A 
ATOM      5  C   LIG    1       -2.441   3.067  -3.901  0.00  0.00    +0.027 A 
ATOM      6  C   LIG    1       -2.585   4.364  -4.370  0.00  0.00    +0.055 A 
ENDROOT
BRANCH   3   7
ATOM      7  N   LIG    1       -0.839   3.667  -0.645  0.00  0.00    -0.333 N 
ATOM      8  C   LIG    1       -0.788   2.228  -0.351  0.00  0.00    +0.086 C 
ATOM      9  C   LIG    1       -0.071   2.007   0.983  0.00  0.00    -0.060 C 
ATOM     10  N   LIG    1       -0.782   2.734   2.045  0.00  0.00    +0.380 N 
ATOM     11  H   LIG    1       -1.815   2.358   2.081  0.00  0.00    -0.082 HD
ATOM     12  C   LIG    1       -0.167   2.486   3.355  0.00  0.00    -0.096 C 
ATOM     13  C   LIG    1       -0.833   4.173   1.750  0.00  0.00    -0.060 C 
ATOM     14  C   LIG    1       -1.550   4.393   0.416  0.00  0.00    +0.086 C 
ENDBRANCH   3   7
BRANCH   1  19
ATOM     15  C   LIG    1       -1.795  10.809  -5.301  0.00  0.00    +0.007 C 
ATOM     16  C   LIG    1       -1.449   9.422  -4.755  0.00  0.00    -0.011 C 
ATOM     17  C   LIG    1       -1.741   8.364  -5.822  0.00  0.00    +0.022 C 
ATOM     18  C   LIG    1       -1.451   6.975  -5.250  0.00  0.00    +0.105 C 
ATOM     19  N   LIG    1       -2.289   6.746  -4.066  0.00  0.00    -0.328 N 
ATOM     20  C   LIG    1       -1.992   7.721  -3.009  0.00  0.00    +0.105 C 
ATOM     21  C   LIG    1       -2.299   9.133  -3.515  0.00  0.00    +0.022 C 
ENDBRANCH   1  19
BRANCH   6  22
ATOM     22  N   LIG    1       -3.173   4.596  -5.622  0.00  0.00    -0.279 N 
ATOM     23  H   LIG    1       -3.670   5.556  -5.827  0.00  0.00    +0.155 HD
ATOM     24  C   LIG    1       -3.129   3.643  -6.575  0.00  0.00    +0.265 C 
ATOM     25  O   LIG    1       -2.641   2.556  -6.326  0.00  0.00    -0.268 OA
BRANCH  24  26
ATOM     26  C   LIG    1       -3.670   3.916  -7.911  0.00  0.00    +0.103 A 
ATOM     27  C   LIG    1       -3.688   3.043  -8.960  0.00  0.00    +0.051 A 
ATOM     28  C   LIG    1       -4.295   3.713 -10.046  0.00  0.00    +0.070 A 
ATOM     29  C   LIG    1       -4.625   4.981  -9.607  0.00  0.00    +0.102 A 
ATOM     30  N   LIG    1       -4.252   5.096  -8.321  0.00  0.00    -0.356 N 
ATOM     31  H   LIG    1       -4.345   5.936  -7.617  0.00  0.00    +0.166 HD
BRANCH  28  32
ATOM     32  C   LIG    1       -4.525   3.178 -11.354  0.00  0.00    +0.101 C 
ATOM     33  N   LIG    1       -4.707   2.754 -12.392  0.00  0.00    -0.191 NA
ENDBRANCH  28  32
ENDBRANCH  24  26
ENDBRANCH   6  22
TORSDOF 5
