REMARK  Name = ZINC53151269
REMARK                            x       y       z     vdW  Elec       q    Type
REMARK                         _______ _______ _______ _____ _____    ______ ____
ROOT
ATOM      1  C   LIG    1        5.422  -1.804   1.383  0.00  0.00    +0.231 C 
ATOM      2  N   LIG    1        5.334  -3.138   1.209  0.00  0.00    -0.302 N 
ATOM      3  H   LIG    1        4.467  -3.557   1.094  0.00  0.00    +0.150 HD
ATOM      4  O   LIG    1        6.506  -1.282   1.528  0.00  0.00    -0.274 OA
ENDROOT
BRANCH   1   5
ATOM      5  C   LIG    1        4.171  -0.963   1.399  0.00  0.00    +0.142 C 
BRANCH   5   6
ATOM      6  N   LIG    1        4.452   0.319   2.059  0.00  0.00    -0.320 NA
ATOM      7  H   LIG    1        3.614   0.875   2.140  0.00  0.00    +0.119 HD
ATOM      8  H   LIG    1        5.176   0.825   1.573  0.00  0.00    +0.119 HD
ENDBRANCH   5   6
BRANCH   5   9
ATOM      9  C   LIG    1        3.711  -0.707  -0.038  0.00  0.00    +0.063 C 
BRANCH   9  13
ATOM     10  C   LIG    1       -0.017   1.378   0.010  0.00  0.00    +0.000 A 
ATOM     11  C   LIG    1        1.171   2.086   0.002  0.00  0.00    +0.000 A 
ATOM     12  C   LIG    1        2.377   1.411  -0.013  0.00  0.00    +0.004 A 
ATOM     13  C   LIG    1        2.396   0.029  -0.020  0.00  0.00    -0.045 A 
ATOM     14  C   LIG    1        1.208  -0.679  -0.012  0.00  0.00    +0.004 A 
ATOM     15  C   LIG    1        0.002  -0.004   0.002  0.00  0.00    +0.000 A 
ENDBRANCH   9  13
ENDBRANCH   5   9
ENDBRANCH   1   5
BRANCH   2  16
ATOM     16  C   LIG    1        6.550  -3.956   1.194  0.00  0.00    +0.163 C 
BRANCH  16  17
ATOM     17  C   LIG    1        7.136  -3.958  -0.194  0.00  0.00    +0.231 C 
ATOM     18  N   LIG    1        8.265  -4.650  -0.447  0.00  0.00    -0.328 N 
ATOM     19  H   LIG    1        8.643  -4.652  -1.341  0.00  0.00    +0.145 HD
ATOM     20  H   LIG    1        8.700  -5.146   0.264  0.00  0.00    +0.145 HD
ATOM     21  O   LIG    1        6.593  -3.338  -1.083  0.00  0.00    -0.274 OA
ENDBRANCH  16  17
BRANCH  16  22
ATOM     22  C   LIG    1        6.205  -5.389   1.605  0.00  0.00    +0.067 C 
BRANCH  22  23
ATOM     23  C   LIG    1        5.734  -5.402   3.036  0.00  0.00    -0.045 A 
ATOM     24  C   LIG    1        6.645  -5.567   4.063  0.00  0.00    +0.004 A 
ATOM     25  C   LIG    1        6.213  -5.579   5.375  0.00  0.00    +0.000 A 
ATOM     26  C   LIG    1        4.869  -5.425   5.662  0.00  0.00    +0.000 A 
ATOM     27  C   LIG    1        3.958  -5.259   4.636  0.00  0.00    +0.000 A 
ATOM     28  C   LIG    1        4.391  -5.243   3.323  0.00  0.00    +0.004 A 
ENDBRANCH  22  23
ENDBRANCH  16  22
ENDBRANCH   2  16
TORSDOF 8
