REMARK  Name = ZINC19720037
REMARK                            x       y       z     vdW  Elec       q    Type
REMARK                         _______ _______ _______ _____ _____    ______ ____
ROOT
ATOM      1  N   LIG    1       -2.578   2.857   4.686  0.00  0.00    -0.332 N 
ATOM      2  C   LIG    1       -2.873   1.705   5.340  0.00  0.00    +0.174 A 
ATOM      3  N   LIG    1       -2.593   0.695   4.561  0.00  0.00    -0.352 N 
ATOM      4  H   LIG    1       -2.760  -0.334   4.914  0.00  0.00    +0.166 HD
ATOM      5  C   LIG    1       -2.119   1.145   3.394  0.00  0.00    +0.110 A 
ATOM      6  C   LIG    1       -2.103   2.505   3.443  0.00  0.00    +0.070 A 
ENDROOT
BRANCH   6   7
ATOM      7  C   LIG    1       -1.656   3.424   2.374  0.00  0.00    +0.045 A 
ATOM      8  C   LIG    1       -0.765   4.458   2.668  0.00  0.00    +0.063 A 
ATOM      9  C   LIG    1       -0.357   5.316   1.664  0.00  0.00    +0.163 A 
ATOM     10  C   LIG    1       -0.825   5.148   0.366  0.00  0.00    +0.165 A 
ATOM     11  O   LIG    1       -0.414   6.005  -0.614  0.00  0.00    -0.488 OA
ATOM     12  C   LIG    1        0.963   5.913  -0.987  0.00  0.00    +0.232 C 
ATOM     13  C   LIG    1        1.831   6.743  -0.054  0.00  0.00    +0.082 C 
ATOM     14  C   LIG    1        1.815   6.217   1.373  0.00  0.00    +0.232 C 
ATOM     15  C   LIG    1       -1.704   4.120   0.067  0.00  0.00    +0.095 A 
ATOM     16  O   LIG    1        0.509   6.335   1.941  0.00  0.00    -0.488 OA
ATOM     17  C   LIG    1       -2.120   3.255   1.065  0.00  0.00    +0.133 A 
BRANCH  17  18
ATOM     18  O   LIG    1       -2.983   2.245   0.774  0.00  0.00    -0.494 OA
ATOM     19  C   LIG    1       -3.420   2.136  -0.582  0.00  0.00    +0.277 C 
ENDBRANCH  17  18
ENDBRANCH   6   7
BRANCH   1  20
ATOM     20  C   LIG    1       -2.737   4.218   5.204  0.00  0.00    +0.125 C 
BRANCH  20  21
ATOM     21  C   LIG    1       -4.082   4.785   4.743  0.00  0.00    +0.043 C 
BRANCH  21  22
ATOM     22  C   LIG    1       -4.249   6.206   5.284  0.00  0.00    +0.124 C 
BRANCH  22  29
ATOM     23  C   LIG    1       -6.969   5.771   6.702  0.00  0.00    +0.084 C 
ATOM     24  C   LIG    1       -6.731   6.570   5.446  0.00  0.00    +0.084 A 
ATOM     25  N   LIG    1       -7.644   7.204   4.763  0.00  0.00    -0.350 N 
ATOM     26  H   LIG    1       -8.693   7.181   5.094  0.00  0.00    +0.166 HD
ATOM     27  C   LIG    1       -7.071   7.804   3.709  0.00  0.00    +0.101 A 
ATOM     28  C   LIG    1       -5.752   7.537   3.744  0.00  0.00    +0.104 A 
ATOM     29  N   LIG    1       -5.536   6.749   4.842  0.00  0.00    -0.336 N 
ENDBRANCH  22  29
ENDBRANCH  21  22
ENDBRANCH  20  21
ENDBRANCH   1  20
TORSDOF 6
