REMARK  Name = ZINC16320090
REMARK                            x       y       z     vdW  Elec       q    Type
REMARK                         _______ _______ _______ _____ _____    ______ ____
ROOT
ATOM      1  C   LIG    1       -2.567   6.045   3.537  0.00  0.00    -0.003 C 
ATOM      2  C   LIG    1       -3.029   4.791   4.284  0.00  0.00    +0.015 C 
ATOM      3  C   LIG    1       -4.052   4.037   3.432  0.00  0.00    -0.009 C 
ATOM      4  C   LIG    1       -5.256   4.942   3.162  0.00  0.00    +0.007 C 
ATOM      5  C   LIG    1       -4.795   6.195   2.415  0.00  0.00    -0.009 C 
ATOM      6  C   LIG    1       -4.152   5.790   1.087  0.00  0.00    +0.019 C 
ATOM      7  C   LIG    1       -2.949   4.886   1.357  0.00  0.00    +0.048 C 
ATOM      8  C   LIG    1       -3.410   3.632   2.104  0.00  0.00    +0.019 C 
ATOM      9  C   LIG    1       -1.925   5.639   2.209  0.00  0.00    +0.027 C 
ATOM     10  C   LIG    1       -3.772   6.949   3.267  0.00  0.00    +0.015 C 
ENDROOT
BRANCH   7  11
ATOM     11  C   LIG    1       -2.316   4.487   0.049  0.00  0.00    +0.222 C 
ATOM     12  N   LIG    1       -1.257   3.653   0.038  0.00  0.00    -0.301 N 
ATOM     13  C   LIG    1       -0.703   3.163  -1.231  0.00  0.00    +0.108 C 
ATOM     14  C   LIG    1       -0.645   1.633  -1.186  0.00  0.00    +0.019 C 
ATOM     15  C   LIG    1        0.138   1.192   0.054  0.00  0.00    +0.003 C 
ATOM     16  C   LIG    1       -0.579   1.686   1.313  0.00  0.00    +0.019 C 
ATOM     17  C   LIG    1       -0.636   3.217   1.296  0.00  0.00    +0.108 C 
ATOM     18  O   LIG    1       -2.760   4.916  -0.995  0.00  0.00    -0.275 OA
ENDBRANCH   7  11
BRANCH   1  22
ATOM     19  C   LIG    1        0.289   8.149   5.916  0.00  0.00    +0.000 A 
ATOM     20  C   LIG    1       -0.989   7.936   6.398  0.00  0.00    +0.000 A 
ATOM     21  C   LIG    1       -1.913   7.255   5.628  0.00  0.00    +0.004 A 
ATOM     22  C   LIG    1       -1.560   6.787   4.377  0.00  0.00    -0.041 A 
ATOM     23  C   LIG    1       -0.280   6.995   3.897  0.00  0.00    +0.004 A 
ATOM     24  C   LIG    1        0.643   7.680   4.665  0.00  0.00    +0.000 A 
ENDBRANCH   1  22
TORSDOF 2
