REMARK  Name = ZINC00037188
REMARK                            x       y       z     vdW  Elec       q    Type
REMARK                         _______ _______ _______ _____ _____    ______ ____
ROOT
ATOM      1  C   LIG    1        1.382   4.280   0.011  0.00  0.00    +0.278 C 
ATOM      2  N   LIG    1        0.596   3.186   0.037  0.00  0.00    -0.202 N 
ATOM      3  C   LIG    1       -0.766   3.176   0.059  0.00  0.00    +0.133 A 
ATOM      4  C   LIG    1       -1.164   1.885   0.074  0.00  0.00    +0.056 A 
ATOM      5 BR   LIG    1       -2.953   1.272   0.101  0.00  0.00    -0.047 Br
ATOM      6  C   LIG    1       -0.017   1.078   0.071  0.00  0.00    +0.150 A 
ATOM      7  N   LIG    1        1.034   1.855   0.045  0.00  0.00    -0.171 NA
ATOM      8  O   LIG    1        0.884   5.384  -0.091  0.00  0.00    -0.265 OA
ENDROOT
BRANCH   1  13
ATOM      9  C   LIG    1        7.096   3.728   0.389  0.00  0.00    +0.044 C 
ATOM     10  C   LIG    1        5.599   3.873   0.290  0.00  0.00    -0.050 A 
ATOM     11  C   LIG    1        5.027   5.132   0.302  0.00  0.00    +0.004 A 
ATOM     12  C   LIG    1        3.658   5.272   0.212  0.00  0.00    +0.013 A 
ATOM     13  C   LIG    1        2.849   4.139   0.108  0.00  0.00    +0.041 A 
ATOM     14  C   LIG    1        3.433   2.870   0.103  0.00  0.00    +0.013 A 
ATOM     15  C   LIG    1        4.804   2.745   0.188  0.00  0.00    +0.004 A 
ENDBRANCH   1  13
TORSDOF 1
