REMARK  Name = ZINC45356794
REMARK                            x       y       z     vdW  Elec       q    Type
REMARK                         _______ _______ _______ _____ _____    ______ ____
ROOT
ATOM      1  C   LIG    1        2.511  -0.928  -5.942  0.00  0.00    -0.064 C 
ATOM      2  C   LIG    1        3.135   0.438  -5.646  0.00  0.00    +0.006 C 
ATOM      3  C   LIG    1        4.625   0.259  -5.339  0.00  0.00    +0.105 C 
ATOM      4  N   LIG    1        5.254  -0.463  -6.454  0.00  0.00    -0.315 N 
ATOM      5  C   LIG    1        4.677  -1.745  -6.881  0.00  0.00    +0.105 C 
ATOM      6  C   LIG    1        3.186  -1.543  -7.170  0.00  0.00    +0.006 C 
ENDROOT
BRANCH   4   7
ATOM      7  C   LIG    1        6.367   0.056  -7.091  0.00  0.00    +0.134 A 
ATOM      8  C   LIG    1        7.661  -0.256  -6.645  0.00  0.00    +0.059 A 
ATOM      9  C   LIG    1        8.216  -1.073  -5.567  0.00  0.00    +0.032 A 
ATOM     10  C   LIG    1        9.553  -0.974  -5.654  0.00  0.00    +0.085 A 
ATOM     11  N   LIG    1        9.891  -0.157  -6.702  0.00  0.00    -0.346 N 
ATOM     12  H   LIG    1       10.798   0.066  -6.964  0.00  0.00    +0.167 HD
ATOM     13  C   LIG    1        8.761   0.296  -7.326  0.00  0.00    +0.143 A 
ATOM     14  N   LIG    1        8.530   1.094  -8.368  0.00  0.00    -0.218 NA
ATOM     15  C   LIG    1        7.300   1.359  -8.751  0.00  0.00    +0.225 A 
ATOM     16  N   LIG    1        6.239   0.857  -8.144  0.00  0.00    -0.220 NA
ENDBRANCH   4   7
BRANCH   1  17
ATOM     17  N   LIG    1        1.075  -0.763  -6.204  0.00  0.00    +0.382 N 
ATOM     18  H   LIG    1        0.663  -1.663  -6.399  0.00  0.00    -0.089 HD
ATOM     19  H   LIG    1        0.946  -0.155  -6.999  0.00  0.00    -0.089 HD
ATOM     20  H   LIG    1        0.630  -0.358  -5.394  0.00  0.00    -0.089 HD
ENDBRANCH   1  17
BRANCH   1  21
ATOM     21  C   LIG    1        2.707  -1.850  -4.737  0.00  0.00    +0.022 C 
BRANCH  21  25
ATOM     22  C   LIG    1        0.534  -0.312  -1.397  0.00  0.00    -0.042 A 
ATOM     23  C   LIG    1       -0.073  -1.196  -2.268  0.00  0.00    +0.004 A 
ATOM     24  C   LIG    1        0.630  -1.694  -3.350  0.00  0.00    +0.004 A 
ATOM     25  C   LIG    1        1.940  -1.307  -3.559  0.00  0.00    -0.049 A 
ATOM     26  C   LIG    1        2.547  -0.422  -2.688  0.00  0.00    +0.004 A 
ATOM     27  C   LIG    1        1.843   0.079  -1.609  0.00  0.00    +0.004 A 
BRANCH  22  29
ATOM     28  C   LIG    1       -0.314   1.755  -0.320  0.00  0.00    +0.015 C 
ATOM     29  C   LIG    1       -0.233   0.230  -0.218  0.00  0.00    -0.013 C 
ATOM     30  C   LIG    1       -1.645  -0.357  -0.214  0.00  0.00    +0.015 C 
ATOM     31  C   LIG    1        0.483  -0.156   1.078  0.00  0.00    +0.015 C 
ENDBRANCH  22  29
ENDBRANCH  21  25
ENDBRANCH   1  21
TORSDOF 5
