REMARK  Name = ZINC35902489
REMARK                            x       y       z     vdW  Elec       q    Type
REMARK                         _______ _______ _______ _____ _____    ______ ____
ROOT
ATOM      1  C   LIG    1       -0.108  -0.775  -2.245  0.00  0.00    +0.161 A 
ATOM      2  C   LIG    1       -1.472  -0.539  -2.213  0.00  0.00    +0.059 A 
ATOM      3  C   LIG    1       -2.231  -0.874  -3.339  0.00  0.00    +0.007 A 
ATOM      4  C   LIG    1       -1.595  -1.428  -4.444  0.00  0.00    +0.121 A 
ATOM      5  N   LIG    1       -0.293  -1.639  -4.438  0.00  0.00    -0.236 NA
ATOM      6  C   LIG    1        0.459  -1.330  -3.394  0.00  0.00    +0.158 A 
ENDROOT
BRANCH   3   7
ATOM      7  C   LIG    1       -3.698  -0.641  -3.353  0.00  0.00    +0.021 A 
ATOM      8  C   LIG    1       -4.463  -0.085  -2.310  0.00  0.00    +0.143 A 
ATOM      9  N   LIG    1       -5.710  -0.041  -2.699  0.00  0.00    -0.179 NA
ATOM     10  N   LIG    1       -5.790  -0.564  -3.995  0.00  0.00    -0.268 N 
ATOM     11  C   LIG    1       -4.548  -0.922  -4.383  0.00  0.00    +0.117 A 
BRANCH  10  12
ATOM     12  C   LIG    1       -7.010  -0.695  -4.795  0.00  0.00    +0.104 C 
ATOM     13  C   LIG    1       -6.927  -1.960  -5.653  0.00  0.00    +0.008 C 
ATOM     14  C   LIG    1       -8.168  -2.049  -6.543  0.00  0.00    -0.081 C 
ATOM     15  N   LIG    1       -8.236  -0.869  -7.414  0.00  0.00    +0.379 N 
ATOM     16  H   LIG    1       -9.025  -0.956  -8.037  0.00  0.00    -0.086 HD
ATOM     17  H   LIG    1       -7.387  -0.804  -7.957  0.00  0.00    -0.086 HD
ATOM     18  C   LIG    1       -8.388   0.343  -6.600  0.00  0.00    -0.081 C 
ATOM     19  C   LIG    1       -7.155   0.523  -5.712  0.00  0.00    +0.008 C 
ENDBRANCH  10  12
ENDBRANCH   3   7
BRANCH   6  20
ATOM     20  N   LIG    1        1.831  -1.566  -3.440  0.00  0.00    -0.340 N 
ATOM     21  H   LIG    1        2.231  -1.951  -4.235  0.00  0.00    +0.144 HD
ATOM     22  H   LIG    1        2.387  -1.345  -2.676  0.00  0.00    +0.144 HD
ENDBRANCH   6  20
BRANCH   1  23
ATOM     23  O   LIG    1        0.671  -0.465  -1.174  0.00  0.00    -0.481 OA
BRANCH  23  25
ATOM     24  C   LIG    1       -0.237   1.501  -0.100  0.00  0.00    +0.057 C 
ATOM     25  C   LIG    1        0.002  -0.007   0.003  0.00  0.00    +0.204 C 
BRANCH  25  26
ATOM     26  C   LIG    1        0.855  -0.299   1.211  0.00  0.00    +0.032 A 
ATOM     27  C   LIG    1        2.209  -0.018   1.186  0.00  0.00    +0.049 A 
ATOM     28 CL   LIG    1        2.926   0.671  -0.237  0.00  0.00    -0.083 Cl
ATOM     29  C   LIG    1        2.993  -0.285   2.294  0.00  0.00    +0.023 A 
ATOM     30  C   LIG    1        2.423  -0.833   3.428  0.00  0.00    +0.041 A 
ATOM     31  C   LIG    1        1.068  -1.114   3.455  0.00  0.00    +0.142 A 
ATOM     32  F   LIG    1        0.511  -1.650   4.563  0.00  0.00    -0.204 F 
ATOM     33  C   LIG    1        0.282  -0.842   2.346  0.00  0.00    +0.084 A 
ATOM     34 CL   LIG    1       -1.418  -1.188   2.381  0.00  0.00    -0.080 Cl
ENDBRANCH  25  26
ENDBRANCH  23  25
ENDBRANCH   1  23
TORSDOF 6
