REMARK  Name = ZINC27433245
REMARK                            x       y       z     vdW  Elec       q    Type
REMARK                         _______ _______ _______ _____ _____    ______ ____
ROOT
ATOM      1  C   LIG    1       -0.037  -0.006   0.037  0.00  0.00    +0.138 C 
ATOM      2  N   LIG    1       -0.069   1.459   0.029  0.00  0.00    -0.271 N 
ATOM      3  C   LIG    1        1.146   2.124  -0.029  0.00  0.00    +0.045 A 
ATOM      4  C   LIG    1        2.197   1.609   0.732  0.00  0.00    +0.024 A 
ATOM      5  C   LIG    1        3.434   2.215   0.723  0.00  0.00    +0.002 A 
ATOM      6  C   LIG    1        3.647   3.346  -0.047  0.00  0.00    +0.001 A 
ATOM      7  C   LIG    1        2.624   3.868  -0.803  0.00  0.00    +0.012 A 
ATOM      8  C   LIG    1        1.358   3.263  -0.803  0.00  0.00    +0.022 A 
ATOM      9  C   LIG    1        0.308   3.877  -1.632  0.00  0.00    +0.077 C 
ATOM     10  N   LIG    1       -0.921   4.011  -1.282  0.00  0.00    -0.251 NA
ATOM     11  C   LIG    1       -1.410   3.542   0.014  0.00  0.00    +0.280 C 
ATOM     12  C   LIG    1       -1.262   2.047   0.074  0.00  0.00    +0.262 C 
ATOM     13  O   LIG    1       -2.256   1.359   0.170  0.00  0.00    -0.271 OA
ENDROOT
BRANCH   9  14
ATOM     14  C   LIG    1        0.698   4.379  -2.971  0.00  0.00    +0.001 A 
ATOM     15  C   LIG    1       -0.045   5.387  -3.584  0.00  0.00    +0.010 A 
ATOM     16  C   LIG    1        0.326   5.853  -4.829  0.00  0.00    +0.001 A 
ATOM     17  C   LIG    1        1.426   5.315  -5.473  0.00  0.00    +0.000 A 
ATOM     18  C   LIG    1        2.164   4.311  -4.872  0.00  0.00    +0.001 A 
ATOM     19  C   LIG    1        1.806   3.840  -3.625  0.00  0.00    +0.010 A 
ENDBRANCH   9  14
BRANCH  11  20
ATOM     20  N   LIG    1       -0.628   4.162   1.087  0.00  0.00    -0.270 N 
ATOM     21  H   LIG    1        0.395   3.815   1.293  0.00  0.00    +0.153 HD
ATOM     22  C   LIG    1       -1.162   5.159   1.821  0.00  0.00    +0.306 C 
ATOM     23  N   LIG    1       -0.442   5.729   2.807  0.00  0.00    -0.269 N 
ATOM     24  H   LIG    1        0.610   5.444   2.956  0.00  0.00    +0.156 HD
ATOM     25  O   LIG    1       -2.293   5.543   1.593  0.00  0.00    -0.252 OA
BRANCH  23  26
ATOM     26  C   LIG    1       -1.033   6.684   3.642  0.00  0.00    +0.036 A 
ATOM     27  C   LIG    1       -0.279   7.746   4.126  0.00  0.00    +0.023 A 
ATOM     28  C   LIG    1       -0.859   8.695   4.947  0.00  0.00    +0.003 A 
ATOM     29  C   LIG    1       -2.189   8.589   5.301  0.00  0.00    +0.019 A 
ATOM     30  C   LIG    1       -2.954   7.522   4.824  0.00  0.00    +0.054 A 
ATOM     31  C   LIG    1       -2.369   6.567   3.991  0.00  0.00    +0.042 A 
BRANCH  30  32
ATOM     32  C   LIG    1       -4.334   7.408   5.190  0.00  0.00    +0.099 C 
ATOM     33  N   LIG    1       -5.428   7.318   5.480  0.00  0.00    -0.191 NA
ENDBRANCH  30  32
ENDBRANCH  23  26
ENDBRANCH  11  20
TORSDOF 4
