REMARK  Name = ZINC34849755
REMARK                            x       y       z     vdW  Elec       q    Type
REMARK                         _______ _______ _______ _____ _____    ______ ____
ROOT
ATOM      1  C   LIG    1       -0.017   1.378   0.010  0.00  0.00    +0.006 A 
ATOM      2  C   LIG    1        1.171   2.086   0.002  0.00  0.00    +0.015 A 
ATOM      3  C   LIG    1        2.378   1.411  -0.013  0.00  0.00    +0.013 A 
ATOM      4  I   LIG    1        4.178   2.482  -0.025  0.00  0.00    -0.044 I 
ATOM      5  C   LIG    1        2.396   0.028  -0.021  0.00  0.00    +0.015 A 
ATOM      6  C   LIG    1        1.208  -0.679  -0.013  0.00  0.00    +0.006 A 
ATOM      7  C   LIG    1        0.002  -0.004   0.002  0.00  0.00    -0.028 A 
ENDROOT
BRANCH   7   8
ATOM      8  C   LIG    1       -1.293  -0.775   0.011  0.00  0.00    +0.157 C 
BRANCH   8   9
ATOM      9  N   LIG    1       -1.726  -1.018  -1.367  0.00  0.00    -0.332 N 
ATOM     10  C   LIG    1       -2.525  -0.203  -2.123  0.00  0.00    +0.107 A 
ATOM     11  C   LIG    1       -2.671  -0.801  -3.321  0.00  0.00    +0.130 A 
ATOM     12  N   LIG    1       -1.979  -1.950  -3.297  0.00  0.00    -0.244 NA
ATOM     13  C   LIG    1       -1.407  -2.084  -2.132  0.00  0.00    +0.199 A 
ENDBRANCH   8   9
ENDBRANCH   7   8
TORSDOF 2
