REMARK  Name = ZINC25973342
REMARK                            x       y       z     vdW  Elec       q    Type
REMARK                         _______ _______ _______ _____ _____    ______ ____
ROOT
ATOM      1  N   MET A  1       -1.861   1.370  -1.343  0.00  0.00    -0.302 N 
ATOM      2  H   MET A  1       -2.546   2.001  -1.070  0.00  0.00    +0.150 HD
ATOM      3  C   MET A  1       -0.792   1.798  -2.044  0.00  0.00    +0.234 C 
ATOM      4  O   MET A  1        0.018   0.999  -2.463  0.00  0.00    -0.274 OA
ENDROOT
BRANCH   3   5
ATOM      5  CA  MET A  1       -0.604   3.270  -2.307  0.00  0.00    +0.161 C 
BRANCH   5   6
ATOM      6  N   MET A  1        0.622   3.474  -3.083  0.00  0.00    -0.288 N 
ATOM      7  H   MET A  1        0.967   2.761  -3.642  0.00  0.00    +0.151 HD
ATOM      8  C   UNK A  0        1.271   4.654  -3.019  0.00  0.00    +0.304 C 
ATOM      9  N   UNK A  0        2.398   4.842  -3.732  0.00  0.00    -0.269 N 
ATOM     10  H   UNK A  0        2.704   4.156  -4.346  0.00  0.00    +0.156 HD
ATOM     11  O   UNK A  0        0.839   5.549  -2.318  0.00  0.00    -0.252 OA
BRANCH   9  12
ATOM     12  C   UNK A  0        3.130   6.029  -3.587  0.00  0.00    +0.035 A 
ATOM     13  C   UNK A  0        3.189   6.661  -2.353  0.00  0.00    +0.027 A 
ATOM     14  C   UNK A  0        3.910   7.830  -2.210  0.00  0.00    +0.047 A 
ATOM     15  C   UNK A  0        4.575   8.373  -3.300  0.00  0.00    +0.120 A 
ATOM     16  C   UNK A  0        4.516   7.742  -4.534  0.00  0.00    +0.047 A 
ATOM     17  C   UNK A  0        3.800   6.570  -4.677  0.00  0.00    +0.027 A 
BRANCH  15  18
ATOM     18  O   UNK A  0        5.285   9.524  -3.159  0.00  0.00    -0.495 OA
ATOM     19  C   UNK A  0        5.945  10.026  -4.324  0.00  0.00    +0.277 C 
ENDBRANCH  15  18
ENDBRANCH   9  12
ENDBRANCH   5   6
BRANCH   5  20
ATOM     20  CB  MET A  1       -1.802   3.804  -3.096  0.00  0.00    +0.042 C 
BRANCH  20  21
ATOM     21  CG  MET A  1       -1.672   5.320  -3.255  0.00  0.00    +0.071 C 
BRANCH  21  22
ATOM     22  SD  MET A  1       -3.091   5.954  -4.190  0.00  0.00    -0.164 S 
ATOM     23  CE  MET A  1       -2.789   7.740  -4.290  0.00  0.00    +0.084 C 
ENDBRANCH  21  22
ENDBRANCH  20  21
ENDBRANCH   5  20
ENDBRANCH   3   5
BRANCH   1  24
ATOM     24  CA  MET A  1       -1.988  -0.046  -0.993  0.00  0.00    +0.159 C 
BRANCH  24  25
ATOM     25  C   MET A  1       -3.447  -0.409  -0.886  0.00  0.00    +0.234 C 
ATOM     26  N   PHE A  2       -3.826  -1.701  -0.944  0.00  0.00    -0.301 N 
ATOM     27  H   PHE A  2       -3.156  -2.401  -0.988  0.00  0.00    +0.150 HD
ATOM     28  O   MET A  1       -4.279   0.462  -0.747  0.00  0.00    -0.274 OA
BRANCH  26  29
ATOM     29  CA  PHE A  2       -5.250  -2.047  -0.941  0.00  0.00    +0.186 C 
BRANCH  29  30
ATOM     30  C   PHE A  2       -5.747  -2.116   0.479  0.00  0.00    +0.326 C 
ATOM     31  O   PHE A  2       -4.983  -1.896   1.404  0.00  0.00    -0.249 OA
BRANCH  30  32
ATOM     32  OXT PHE A  2       -6.913  -2.391   0.705  0.00  0.00    -0.479 OA
ATOM     33  HXT PHE A  2       -7.500  -2.560  -0.006  0.00  0.00    +0.295 HD
ENDBRANCH  30  32
ENDBRANCH  29  30
BRANCH  29  34
ATOM     34  CB  PHE A  2       -5.445  -3.406  -1.616  0.00  0.00    +0.069 C 
BRANCH  34  35
ATOM     35  CG  PHE A  2       -5.062  -3.305  -3.070  0.00  0.00    -0.045 A 
ATOM     36  CD2 PHE A  2       -6.012  -2.954  -4.012  0.00  0.00    +0.004 A 
ATOM     37  CE2 PHE A  2       -5.661  -2.861  -5.346  0.00  0.00    +0.000 A 
ATOM     38  CZ  PHE A  2       -4.360  -3.118  -5.738  0.00  0.00    +0.000 A 
ATOM     39  CE1 PHE A  2       -3.411  -3.468  -4.796  0.00  0.00    +0.000 A 
ATOM     40  CD1 PHE A  2       -3.761  -3.557  -3.462  0.00  0.00    +0.004 A 
ENDBRANCH  34  35
ENDBRANCH  29  34
ENDBRANCH  26  29
ENDBRANCH  24  25
BRANCH  24  41
ATOM     41  CB  MET A  1       -1.299  -0.304   0.349  0.00  0.00    +0.034 C 
BRANCH  41  43
ATOM     42  CD1 MET A  1       -0.466  -2.546  -0.372  0.00  0.00    +0.007 C 
ATOM     43  CG  MET A  1       -1.322  -1.803   0.655  0.00  0.00    -0.015 C 
ATOM     44  CD2 MET A  1       -0.761  -2.046   2.058  0.00  0.00    +0.007 C 
ENDBRANCH  41  43
ENDBRANCH  24  41
ENDBRANCH   1  24
TORSDOF 16
