REMARK  Name = ZINC66113544
REMARK                            x       y       z     vdW  Elec       q    Type
REMARK                         _______ _______ _______ _____ _____    ______ ____
ROOT
ATOM      1  C   LIG    1       -0.864  -0.562   3.381  0.00  0.00    +0.040 A 
ATOM      2  C   LIG    1       -2.184  -0.131   3.398  0.00  0.00    +0.127 A 
ATOM      3  C   LIG    1       -3.108  -0.710   4.259  0.00  0.00    +0.092 A 
ATOM      4  C   LIG    1       -2.717  -1.726   5.113  0.00  0.00    +0.134 A 
ATOM      5  C   LIG    1       -1.384  -2.163   5.103  0.00  0.00    +0.101 A 
ATOM      6  C   LIG    1       -0.939  -3.230   6.006  0.00  0.00    +0.174 C 
ATOM      7  O   LIG    1       -1.629  -3.616   6.927  0.00  0.00    -0.292 OA
ATOM      8  C   LIG    1        0.424  -3.838   5.718  0.00  0.00    +0.129 C 
ATOM      9  C   LIG    1        1.358  -2.682   5.331  0.00  0.00    +0.211 C 
ATOM     10  O   LIG    1        0.830  -2.010   4.187  0.00  0.00    -0.483 OA
ATOM     11  C   LIG    1       -0.454  -1.582   4.221  0.00  0.00    +0.142 A 
ENDROOT
BRANCH   9  12
ATOM     12  C   LIG    1        2.726  -3.226   5.007  0.00  0.00    -0.003 A 
ATOM     13  C   LIG    1        2.999  -3.693   3.735  0.00  0.00    +0.011 A 
ATOM     14  C   LIG    1        4.252  -4.193   3.433  0.00  0.00    +0.050 A 
ATOM     15  C   LIG    1        5.237  -4.226   4.407  0.00  0.00    +0.161 A 
ATOM     16  C   LIG    1        4.962  -3.756   5.688  0.00  0.00    +0.159 A 
ATOM     17  C   LIG    1        3.706  -3.252   5.982  0.00  0.00    +0.056 A 
BRANCH  15  18
ATOM     18  O   LIG    1        6.471  -4.718   4.112  0.00  0.00    -0.491 OA
ATOM     19  C   LIG    1        6.681  -5.184   2.778  0.00  0.00    +0.277 C 
ENDBRANCH  15  18
BRANCH  16  20
ATOM     20  O   LIG    1        5.926  -3.787   6.646  0.00  0.00    -0.503 OA
ATOM     21  H   LIG    1        6.470  -2.987   6.684  0.00  0.00    +0.292 HD
ENDBRANCH  16  20
ENDBRANCH   9  12
BRANCH   2  22
ATOM     22  O   LIG    1       -2.576   0.867   2.566  0.00  0.00    -0.506 OA
ATOM     23  H   LIG    1       -2.892   0.560   1.705  0.00  0.00    +0.292 HD
ENDBRANCH   2  22
BRANCH   4  24
ATOM     24  O   LIG    1       -3.616  -2.294   5.954  0.00  0.00    -0.506 OA
ATOM     25  H   LIG    1       -4.078  -3.057   5.580  0.00  0.00    +0.292 HD
ENDBRANCH   4  24
BRANCH   1  26
ATOM     26  C   LIG    1        0.123   0.078   2.439  0.00  0.00    +0.069 C 
BRANCH  26  30
ATOM     27  C   LIG    1       -0.166   1.491   0.016  0.00  0.00    +0.038 C 
ATOM     28  C   LIG    1       -0.072  -0.013   0.007  0.00  0.00    -0.079 C 
ATOM     29  C   LIG    1       -0.200  -0.768  -1.291  0.00  0.00    +0.038 C 
ATOM     30  C   LIG    1        0.121  -0.664   1.128  0.00  0.00    -0.023 C 
ENDBRANCH  26  30
ENDBRANCH   1  26
TORSDOF 7
