REMARK  Name = ZINC00073711
REMARK                            x       y       z     vdW  Elec       q    Type
REMARK                         _______ _______ _______ _____ _____    ______ ____
ROOT
ATOM      1  C   LIG    1       -0.017   1.375   0.010  0.00  0.00    +0.002 A 
ATOM      2  C   LIG    1        1.170   2.095   0.002  0.00  0.00    +0.002 A 
ATOM      3  C   LIG    1        2.375   1.451  -0.013  0.00  0.00    +0.030 A 
ATOM      4  C   LIG    1        2.418   0.053  -0.021  0.00  0.00    +0.090 A 
ATOM      5  C   LIG    1        1.216  -0.675  -0.013  0.00  0.00    +0.067 A 
ATOM      6  N   LIG    1        1.574  -2.011  -0.024  0.00  0.00    -0.337 N 
ATOM      7  C   LIG    1        2.942  -2.063  -0.038  0.00  0.00    +0.158 A 
ATOM      8  H   LIG    1        0.969  -2.769  -0.023  0.00  0.00    +0.167 HD
ATOM      9  N   LIG    1        3.433  -0.847  -0.036  0.00  0.00    -0.226 NA
ATOM     10  C   LIG    1        0.002  -0.004   0.002  0.00  0.00    +0.028 A 
ENDROOT
BRANCH   7  11
ATOM     11  C   LIG    1        3.745  -3.303  -0.052  0.00  0.00    +0.113 A 
ATOM     12  C   LIG    1        5.117  -3.276  -0.060  0.00  0.00    +0.078 A 
ATOM     13  S   LIG    1        5.480  -5.024  -0.075  0.00  0.00    -0.083 S 
ATOM     14  C   LIG    1        3.897  -5.594  -0.070  0.00  0.00    +0.156 A 
ATOM     15  N   LIG    1        3.179  -4.503  -0.053  0.00  0.00    -0.244 NA
ENDBRANCH   7  11
TORSDOF 1
