REMARK  Name = ZINC22115071
REMARK                            x       y       z     vdW  Elec       q    Type
REMARK                         _______ _______ _______ _____ _____    ______ ____
ROOT
ATOM      1  C   LIG    1        6.397  -4.623   0.361  0.00  0.00    +0.248 C 
ATOM      2  N   LIG    1        6.654  -5.928   0.141  0.00  0.00    -0.229 N 
ATOM      3  H   LIG    1        5.922  -6.551   0.008  0.00  0.00    +0.175 HD
ATOM      4  O   LIG    1        7.312  -3.845   0.528  0.00  0.00    -0.272 OA
ENDROOT
BRANCH   2   5
ATOM      5  N   LIG    1        7.978  -6.385   0.105  0.00  0.00    -0.311 N 
ATOM      6  H   LIG    1        8.709  -5.762   0.239  0.00  0.00    +0.184 HD
ATOM      7  C   LIG    1        8.233  -7.685  -0.114  0.00  0.00    +0.110 C 
BRANCH   7   8
ATOM      8  C   LIG    1        9.550  -8.126  -0.234  0.00  0.00    +0.036 A 
ATOM      9  C   LIG    1        9.840  -9.505  -0.350  0.00  0.00    +0.032 A 
ATOM     10  C   LIG    1       11.126  -9.921  -0.467  0.00  0.00    +0.061 A 
ATOM     11 BR   LIG    1       11.490 -11.770  -0.621  0.00  0.00    -0.046 Br
ATOM     12  C   LIG    1       12.190  -9.011  -0.474  0.00  0.00    +0.148 A 
ATOM     13  C   LIG    1       11.971  -7.654  -0.364  0.00  0.00    +0.102 A 
ATOM     14 BR   LIG    1       13.432  -6.454  -0.377  0.00  0.00    -0.043 Br
ATOM     15  C   LIG    1       10.662  -7.165  -0.247  0.00  0.00    +0.143 A 
BRANCH  12  16
ATOM     16  O   LIG    1       13.460  -9.472  -0.592  0.00  0.00    -0.504 OA
ATOM     17  H   LIG    1       13.618 -10.393  -0.668  0.00  0.00    +0.292 HD
ENDBRANCH  12  16
BRANCH  15  18
ATOM     18  O   LIG    1       10.450  -5.964  -0.152  0.00  0.00    -0.505 OA
ATOM     19  H   LIG    1        9.571  -5.648  -0.074  0.00  0.00    +0.292 HD
ENDBRANCH  15  18
ENDBRANCH   7   8
ENDBRANCH   2   5
BRANCH   1  20
ATOM     20  C   LIG    1        4.973  -4.132   0.400  0.00  0.00    +0.199 C 
BRANCH  20  21
ATOM     21  N   LIG    1        4.961  -2.689   0.653  0.00  0.00    -0.335 N 
ATOM     22  H   LIG    1        5.797  -2.209   0.764  0.00  0.00    +0.147 HD
BRANCH  21  28
ATOM     23  C   LIG    1        0.082   1.352   1.199  0.00  0.00    +0.001 A 
ATOM     24  C   LIG    1        1.274   2.056   1.362  0.00  0.00    +0.001 A 
ATOM     25  C   LIG    1        2.477   1.423   1.291  0.00  0.00    +0.008 A 
ATOM     26  C   LIG    1        2.521   0.039   1.049  0.00  0.00    -0.016 A 
ATOM     27  C   LIG    1        3.744  -0.647   0.970  0.00  0.00    +0.031 A 
ATOM     28  C   LIG    1        3.747  -2.004   0.732  0.00  0.00    +0.028 A 
ATOM     29  C   LIG    1        2.545  -2.703   0.569  0.00  0.00    +0.023 A 
ATOM     30  C   LIG    1        1.349  -2.062   0.642  0.00  0.00    +0.010 A 
ATOM     31  C   LIG    1        1.309  -0.677   0.884  0.00  0.00    -0.018 A 
ATOM     32  C   LIG    1        0.087   0.011   0.964  0.00  0.00    +0.008 A 
ENDBRANCH  21  28
ENDBRANCH  20  21
ENDBRANCH   1  20
TORSDOF 7
