REMARK  Name = ZINC28232233
REMARK                            x       y       z     vdW  Elec       q    Type
REMARK                         _______ _______ _______ _____ _____    ______ ____
ROOT
ATOM      1  N   LIG    1       -4.283  -0.193  -0.308  0.00  0.00    -0.333 N 
ATOM      2  C   LIG    1       -3.302  -0.790   0.608  0.00  0.00    +0.086 C 
ATOM      3  C   LIG    1       -1.938  -0.130   0.392  0.00  0.00    -0.059 C 
ATOM      4  N   LIG    1       -1.526  -0.310  -1.007  0.00  0.00    +0.385 N 
ATOM      5  H   LIG    1       -1.483  -1.390  -1.212  0.00  0.00    -0.081 HD
ATOM      6  C   LIG    1       -2.506   0.287  -1.923  0.00  0.00    -0.059 C 
ATOM      7  C   LIG    1       -3.870  -0.373  -1.707  0.00  0.00    +0.086 C 
ENDROOT
BRANCH   1  14
ATOM      8  C   LIG    1       -7.333  -4.046  -0.369  0.00  0.00    +0.044 C 
ATOM      9  C   LIG    1       -7.065  -2.585  -0.112  0.00  0.00    -0.049 A 
ATOM     10  C   LIG    1       -8.083  -1.766   0.342  0.00  0.00    +0.004 A 
ATOM     11  C   LIG    1       -7.841  -0.425   0.580  0.00  0.00    +0.005 A 
ATOM     12  C   LIG    1       -6.581   0.099   0.370  0.00  0.00    -0.029 A 
ATOM     13  C   LIG    1       -6.317   1.558   0.635  0.00  0.00    +0.045 C 
ATOM     14  C   LIG    1       -5.558  -0.720  -0.091  0.00  0.00    +0.033 A 
ATOM     15  C   LIG    1       -5.804  -2.067  -0.329  0.00  0.00    +0.026 A 
ENDBRANCH   1  14
BRANCH   4  16
ATOM     16  C   LIG    1       -0.185   0.244  -1.236  0.00  0.00    -0.039 C 
ATOM     17  C   LIG    1       -0.219   1.761  -1.035  0.00  0.00    -0.013 C 
ATOM     18  C   LIG    1        1.177   2.339  -1.274  0.00  0.00    -0.001 C 
ATOM     19  C   LIG    1        1.622   2.023  -2.703  0.00  0.00    +0.002 C 
ATOM     20  C   LIG    1        1.657   0.507  -2.904  0.00  0.00    +0.030 C 
ATOM     21  C   LIG    1        0.260  -0.071  -2.665  0.00  0.00    +0.101 C 
BRANCH  21  22
ATOM     22  O   LIG    1        0.293  -1.487  -2.852  0.00  0.00    -0.393 OA
ATOM     23  H   LIG    1        0.592  -1.907  -3.824  0.00  0.00    +0.210 HD
ENDBRANCH  21  22
ENDBRANCH   4  16
TORSDOF 3
