REMARK  Name = ZINC00056582
REMARK                            x       y       z     vdW  Elec       q    Type
REMARK                         _______ _______ _______ _____ _____    ______ ____
ROOT
ATOM      1  C   LIG    1       -0.018   1.503   0.010  0.00  0.00    +0.048 C 
ATOM      2  C   LIG    1        0.002  -0.004   0.002  0.00  0.00    -0.002 A 
ATOM      3  C   LIG    1        0.006  -0.689  -1.196  0.00  0.00    -0.002 A 
ATOM      4  C   LIG    1       -0.013   0.074  -2.496  0.00  0.00    +0.048 C 
ATOM      5  C   LIG    1        0.026  -2.079  -1.210  0.00  0.00    +0.129 A 
ATOM      6  C   LIG    1        0.045  -2.778  -0.015  0.00  0.00    +0.001 A 
ATOM      7  C   LIG    1        0.078  -4.285   0.012  0.00  0.00    +0.043 C 
ATOM      8  C   LIG    1       -0.357  -4.836  -1.348  0.00  0.00    +0.064 C 
ATOM      9  C   LIG    1        0.417  -4.088  -2.441  0.00  0.00    +0.203 C 
ATOM     10  C   LIG    1        1.920  -4.199  -2.176  0.00  0.00    +0.068 C 
ATOM     11  C   LIG    1        0.039  -2.091   1.186  0.00  0.00    -0.002 A 
ATOM     12  C   LIG    1        0.054  -2.852   2.487  0.00  0.00    +0.048 C 
ATOM     13  O   LIG    1        0.023  -2.715  -2.411  0.00  0.00    -0.474 OA
ATOM     14  C   LIG    1        0.023  -0.705   1.198  0.00  0.00    +0.123 A 
ENDROOT
BRANCH   9  15
ATOM     15  C   LIG    1        0.093  -4.680  -3.788  0.00  0.00    +0.349 C 
ATOM     16  O   LIG    1       -0.411  -3.985  -4.654  0.00  0.00    -0.246 OA
BRANCH  15  17
ATOM     17  O   LIG    1        0.334  -5.854  -4.012  0.00  0.00    -0.478 OA
ATOM     18  H   LIG    1        0.721  -6.388  -3.346  0.00  0.00    +0.295 HD
ENDBRANCH  15  17
ENDBRANCH   9  15
BRANCH  14  19
ATOM     19  O   LIG    1        0.022  -0.034   2.381  0.00  0.00    -0.506 OA
ATOM     20  H   LIG    1       -0.861   0.147   2.731  0.00  0.00    +0.292 HD
ENDBRANCH  14  19
TORSDOF 3
