REMARK  Name = ZINC28759893
REMARK                            x       y       z     vdW  Elec       q    Type
REMARK                         _______ _______ _______ _____ _____    ______ ____
ROOT
ATOM      1  C   LIG    1        2.397   0.029  -0.063  0.00  0.00    +0.002 A 
ATOM      2  C   LIG    1        1.235  -0.679  -0.014  0.00  0.00    +0.008 A 
ATOM      3  C   LIG    1        0.003  -0.004   0.045  0.00  0.00    -0.016 A 
ATOM      4  C   LIG    1       -1.211  -0.711   0.097  0.00  0.00    +0.012 A 
ATOM      5  C   LIG    1       -2.387  -0.030   0.155  0.00  0.00    +0.046 A 
ATOM      6  C   LIG    1       -2.407   1.368   0.163  0.00  0.00    +0.118 A 
ATOM      7  C   LIG    1       -1.245   2.086   0.120  0.00  0.00    +0.055 A 
ATOM      8  C   LIG    1       -0.016   1.412   0.054  0.00  0.00    +0.007 A 
ATOM      9  C   LIG    1        1.204   2.120   0.002  0.00  0.00    +0.037 A 
ATOM     10  C   LIG    1        2.391   1.421  -0.055  0.00  0.00    +0.024 A 
ENDROOT
BRANCH   9  11
ATOM     11  N   LIG    1        1.209   3.514   0.009  0.00  0.00    -0.333 N 
ATOM     12  C   LIG    1        2.568   4.035   0.209  0.00  0.00    +0.086 C 
ATOM     13  C   LIG    1        2.519   5.563   0.290  0.00  0.00    -0.063 C 
ATOM     14  N   LIG    1        1.930   6.098  -0.945  0.00  0.00    +0.381 N 
ATOM     15  H   LIG    1        2.552   5.805  -1.804  0.00  0.00    -0.086 HD
ATOM     16  H   LIG    1        1.883   7.195  -0.884  0.00  0.00    -0.086 HD
ATOM     17  C   LIG    1        0.571   5.577  -1.145  0.00  0.00    -0.063 C 
ATOM     18  C   LIG    1        0.620   4.049  -1.226  0.00  0.00    +0.086 C 
ENDBRANCH   9  11
BRANCH   6  19
ATOM     19  O   LIG    1       -3.598   2.022   0.221  0.00  0.00    -0.507 OA
ATOM     20  H   LIG    1       -3.622   3.121   0.228  0.00  0.00    +0.292 HD
ENDBRANCH   6  19
TORSDOF 2
