REMARK  Name = ZINC19364273
REMARK                            x       y       z     vdW  Elec       q    Type
REMARK                         _______ _______ _______ _____ _____    ______ ____
ROOT
ATOM      1  C   LIG    1        4.491  -1.747  -1.214  0.00  0.00    +0.055 C 
ATOM      2  C   LIG    1        5.840  -2.310  -0.758  0.00  0.00    -0.050 C 
ATOM      3  C   LIG    1        6.861  -2.125  -1.887  0.00  0.00    -0.021 C 
ATOM      4  C   LIG    1        6.351  -2.858  -3.134  0.00  0.00    +0.017 C 
ATOM      5  C   LIG    1        4.988  -2.279  -3.525  0.00  0.00    +0.085 C 
ATOM      6  C   LIG    1        6.969  -0.629  -2.209  0.00  0.00    +0.017 C 
ATOM      7  C   LIG    1        5.588  -0.112  -2.626  0.00  0.00    +0.085 C 
ATOM      8  N   LIG    1        4.620  -1.217  -2.578  0.00  0.00    -0.300 NA
ENDROOT
BRANCH   2   9
ATOM      9  N   LIG    1        6.293  -1.593   0.441  0.00  0.00    +0.385 N 
ATOM     10  H   LIG    1        5.621  -1.720   1.183  0.00  0.00    -0.085 HD
ATOM     11  H   LIG    1        6.380  -0.609   0.232  0.00  0.00    -0.085 HD
BRANCH   9  12
ATOM     12  C   LIG    1        7.597  -2.120   0.865  0.00  0.00    -0.045 C 
BRANCH  12  13
ATOM     13  C   LIG    1        7.997  -1.483   2.170  0.00  0.00    -0.051 A 
ATOM     14  C   LIG    1        8.854  -0.398   2.175  0.00  0.00    +0.003 A 
ATOM     15  C   LIG    1        9.221   0.187   3.373  0.00  0.00    +0.000 A 
ATOM     16  C   LIG    1        8.732  -0.312   4.565  0.00  0.00    +0.001 A 
ATOM     17  C   LIG    1        7.875  -1.397   4.561  0.00  0.00    +0.014 A 
ATOM     18  C   LIG    1        7.503  -1.979   3.362  0.00  0.00    +0.015 A 
ATOM     19  I   LIG    1        6.198  -3.618   3.354  0.00  0.00    -0.044 I 
ENDBRANCH  12  13
ENDBRANCH   9  12
ENDBRANCH   2   9
BRANCH   1  20
ATOM     20  C   LIG    1        4.061  -0.623  -0.269  0.00  0.00    +0.064 C 
BRANCH  20  24
ATOM     21  C   LIG    1        0.769   1.494  -1.981  0.00  0.00    +0.000 A 
ATOM     22  C   LIG    1        1.902   2.180  -1.584  0.00  0.00    +0.000 A 
ATOM     23  C   LIG    1        2.967   1.495  -1.030  0.00  0.00    +0.004 A 
ATOM     24  C   LIG    1        2.900   0.124  -0.872  0.00  0.00    -0.039 A 
ATOM     25  C   LIG    1        1.767  -0.563  -1.268  0.00  0.00    +0.004 A 
ATOM     26  C   LIG    1        0.703   0.122  -1.824  0.00  0.00    +0.000 A 
ENDBRANCH  20  24
BRANCH  20  27
ATOM     27  C   LIG    1        3.647  -1.212   1.055  0.00  0.00    -0.039 A 
ATOM     28  C   LIG    1        4.059  -0.620   2.234  0.00  0.00    +0.004 A 
ATOM     29  C   LIG    1        3.679  -1.159   3.449  0.00  0.00    +0.000 A 
ATOM     30  C   LIG    1        2.886  -2.291   3.484  0.00  0.00    +0.000 A 
ATOM     31  C   LIG    1        2.473  -2.883   2.305  0.00  0.00    +0.000 A 
ATOM     32  C   LIG    1        2.850  -2.341   1.091  0.00  0.00    +0.004 A 
ENDBRANCH  20  27
ENDBRANCH   1  20
TORSDOF 6
