REMARK  Name = ZINC29400609
REMARK                            x       y       z     vdW  Elec       q    Type
REMARK                         _______ _______ _______ _____ _____    ______ ____
ROOT
ATOM      1  C   LIG    1       -2.938   4.103   0.053  0.00  0.00    +0.018 A 
ATOM      2  C   LIG    1       -1.592   4.328   0.041  0.00  0.00    +0.047 A 
ATOM      3  C   LIG    1       -0.702   3.259   0.026  0.00  0.00    +0.135 A 
ATOM      4  C   LIG    1       -1.198   1.942   0.018  0.00  0.00    +0.021 A 
ATOM      5  C   LIG    1       -0.013   1.076   0.008  0.00  0.00    +0.055 A 
ATOM      6  C   LIG    1        1.047   1.895   0.002  0.00  0.00    +0.126 A 
ATOM      7  C   LIG    1       -2.569   1.711   0.036  0.00  0.00    +0.026 A 
ATOM      8  O   LIG    1        0.643   3.177   0.013  0.00  0.00    -0.458 OA
ATOM      9  C   LIG    1       -3.444   2.796   0.051  0.00  0.00    +0.060 A 
ENDROOT
BRANCH   9  10
ATOM     10  C   LIG    1       -4.902   2.569   0.064  0.00  0.00    +0.337 C 
ATOM     11  O   LIG    1       -5.340   1.436   0.062  0.00  0.00    -0.245 OA
BRANCH  10  12
ATOM     12  O   LIG    1       -5.747   3.618   0.078  0.00  0.00    -0.477 OA
ATOM     13  H   LIG    1       -5.409   4.492   0.079  0.00  0.00    +0.295 HD
ENDBRANCH  10  12
ENDBRANCH   9  10
BRANCH   6  14
ATOM     14  C   LIG    1        2.485   1.444  -0.014  0.00  0.00    +0.197 C 
BRANCH  14  15
ATOM     15  N   LIG    1        2.938   1.306  -1.401  0.00  0.00    -0.329 N 
ATOM     16  C   LIG    1        3.518   2.281  -2.167  0.00  0.00    +0.107 A 
ATOM     17  C   LIG    1        3.775   1.731  -3.369  0.00  0.00    +0.130 A 
ATOM     18  N   LIG    1        3.363   0.455  -3.338  0.00  0.00    -0.244 NA
ATOM     19  C   LIG    1        2.865   0.192  -2.160  0.00  0.00    +0.199 A 
ENDBRANCH  14  15
ENDBRANCH   6  14
TORSDOF 4
