REMARK  Name = ZINC20289393
REMARK                            x       y       z     vdW  Elec       q    Type
REMARK                         _______ _______ _______ _____ _____    ______ ____
ROOT
ATOM      1  C   LIG    1       -3.723   6.334  -0.568  0.00  0.00    +0.114 C 
ENDROOT
BRANCH   1   2
ATOM      2  N   LIG    1       -3.881   7.782  -0.758  0.00  0.00    -0.290 NA
ATOM      3  C   LIG    1       -5.186   8.095  -1.357  0.00  0.00    +0.104 C 
ATOM      4  C   LIG    1       -5.344   9.614  -1.465  0.00  0.00    +0.120 C 
ATOM      5  N   LIG    1       -4.249  10.161  -2.279  0.00  0.00    -0.327 N 
ATOM      6  C   LIG    1       -2.944   9.848  -1.680  0.00  0.00    +0.120 C 
ATOM      7  C   LIG    1       -2.787   8.329  -1.572  0.00  0.00    +0.104 C 
BRANCH   5   8
ATOM      8  C   LIG    1       -4.400  11.540  -2.460  0.00  0.00    +0.030 A 
ATOM      9  C   LIG    1       -3.383  12.406  -2.079  0.00  0.00    +0.027 A 
ATOM     10  C   LIG    1       -3.530  13.767  -2.264  0.00  0.00    +0.047 A 
ATOM     11  C   LIG    1       -4.698  14.270  -2.818  0.00  0.00    +0.120 A 
ATOM     12  C   LIG    1       -5.716  13.406  -3.193  0.00  0.00    +0.047 A 
ATOM     13  C   LIG    1       -5.569  12.044  -3.015  0.00  0.00    +0.027 A 
BRANCH  11  14
ATOM     14  O   LIG    1       -4.845  15.610  -2.994  0.00  0.00    -0.495 OA
ATOM     15  C   LIG    1       -3.756  16.441  -2.584  0.00  0.00    +0.277 C 
ENDBRANCH  11  14
ENDBRANCH   5   8
ENDBRANCH   1   2
BRANCH   1  16
ATOM     16  C   LIG    1       -4.860   5.811   0.271  0.00  0.00    +0.009 A 
ATOM     17  C   LIG    1       -5.564   4.661   0.133  0.00  0.00    +0.013 A 
ATOM     18  C   LIG    1       -6.577   4.382   1.031  0.00  0.00    +0.008 A 
ATOM     19  C   LIG    1       -6.836   5.268   2.025  0.00  0.00    +0.045 A 
ATOM     20  S   LIG    1       -5.624   6.540   1.710  0.00  0.00    -0.100 S 
ENDBRANCH   1  16
BRANCH   1  22
ATOM     21  C   LIG    1       -2.339   6.847   1.447  0.00  0.00    +0.030 C 
ATOM     22  C   LIG    1       -2.396   6.055   0.140  0.00  0.00    +0.092 C 
BRANCH  22  23
ATOM     23  N   LIG    1       -2.290   4.623   0.431  0.00  0.00    -0.303 N 
ATOM     24  H   LIG    1       -3.200   4.013   0.534  0.00  0.00    +0.149 HD
ATOM     25  C   LIG    1       -1.077   4.052   0.573  0.00  0.00    +0.299 C 
ATOM     26  O   LIG    1       -0.073   4.724   0.460  0.00  0.00    -0.265 OA
BRANCH  25  27
ATOM     27  C   LIG    1       -0.969   2.591   0.870  0.00  0.00    +0.299 C 
ATOM     28  N   LIG    1        0.244   2.021   1.012  0.00  0.00    -0.300 N 
ATOM     29  H   LIG    1        1.154   2.630   0.909  0.00  0.00    +0.150 HD
ATOM     30  O   LIG    1       -1.973   1.919   0.984  0.00  0.00    -0.265 OA
BRANCH  28  31
ATOM     31  C   LIG    1        0.350   0.589   1.303  0.00  0.00    +0.179 C 
BRANCH  31  32
ATOM     32  C   LIG    1        1.803   0.203   1.406  0.00  0.00    +0.122 A 
ATOM     33  C   LIG    1        2.543   0.218   2.529  0.00  0.00    +0.046 A 
ATOM     34  C   LIG    1        3.840  -0.215   2.171  0.00  0.00    +0.041 A 
ATOM     35  C   LIG    1        3.815  -0.468   0.850  0.00  0.00    +0.195 A 
ATOM     36  O   LIG    1        2.577  -0.219   0.393  0.00  0.00    -0.466 OA
ENDBRANCH  31  32
ENDBRANCH  28  31
ENDBRANCH  25  27
ENDBRANCH  22  23
ENDBRANCH   1  22
TORSDOF 9
