REMARK  Name = ZINC26666856
REMARK                            x       y       z     vdW  Elec       q    Type
REMARK                         _______ _______ _______ _____ _____    ______ ____
ROOT
ATOM      1  N   ILE A  1       -0.011   0.966   0.007  0.00  0.00    -0.272 N 
ATOM      2  H   ILE A  1        0.004  -0.134   0.006  0.00  0.00    +0.153 HD
ATOM      3  C   UNK A  0        1.147   1.655   0.000  0.00  0.00    +0.401 C 
ATOM      4  O   UNK A  0        1.130   2.870   0.007  0.00  0.00    -0.226 OA
ENDROOT
BRANCH   1   5
ATOM      5  CA  ILE A  1       -1.290   1.681   0.017  0.00  0.00    +0.142 C 
BRANCH   5   6
ATOM      6  CB  ILE A  1       -2.370   0.786   0.627  0.00  0.00    +0.013 C 
ATOM      7  CG2 ILE A  1       -2.506  -0.490  -0.206  0.00  0.00    +0.010 C 
BRANCH   6   9
ATOM      8  CD1 ILE A  1       -4.757   0.687   1.359  0.00  0.00    +0.004 C 
ATOM      9  CG1 ILE A  1       -3.705   1.533   0.638  0.00  0.00    +0.002 C 
ENDBRANCH   6   9
ENDBRANCH   5   6
BRANCH   5  10
ATOM     10  C   ILE A  1       -1.674   2.042  -1.394  0.00  0.00    +0.245 C 
ATOM     11  O   ILE A  1       -0.955   1.734  -2.314  0.00  0.00    -0.299 OA
ENDBRANCH   5  10
ENDBRANCH   1   5
BRANCH   3  12
ATOM     12  O   UNK A  0        2.322   0.998  -0.015  0.00  0.00    -0.445 OA
BRANCH  12  13
ATOM     13  C   UNK A  0        3.529   1.806  -0.022  0.00  0.00    +0.107 C 
ATOM     14  C   UNK A  0        3.540   2.695  -1.267  0.00  0.00    +0.055 C 
ATOM     15  C   UNK A  0        4.755   0.890  -0.039  0.00  0.00    +0.055 C 
ATOM     16  C   UNK A  0        3.563   2.682   1.232  0.00  0.00    +0.055 C 
ENDBRANCH  12  13
ENDBRANCH   3  12
TORSDOF 6
