REMARK  Name = ZINC28764148
REMARK                            x       y       z     vdW  Elec       q    Type
REMARK                         _______ _______ _______ _____ _____    ______ ____
ROOT
ATOM      1  C   LIG    1       -4.059  -3.831   0.059  0.00  0.00    -0.079 C 
ENDROOT
BRANCH   1   5
ATOM      2  N   LIG    1       -1.199  -0.722   0.009  0.00  0.00    -0.331 N 
ATOM      3  C   LIG    1       -1.329  -1.519   1.237  0.00  0.00    +0.086 C 
ATOM      4  C   LIG    1       -2.687  -2.225   1.243  0.00  0.00    -0.060 C 
ATOM      5  N   LIG    1       -2.798  -3.077   0.051  0.00  0.00    +0.382 N 
ATOM      6  H   LIG    1       -1.972  -3.803   0.074  0.00  0.00    -0.082 HD
ATOM      7  C   LIG    1       -2.668  -2.281  -1.177  0.00  0.00    -0.060 C 
ATOM      8  C   LIG    1       -1.310  -1.575  -1.183  0.00  0.00    +0.086 C 
BRANCH   2  14
ATOM      9  C   LIG    1       -0.017   1.389   0.010  0.00  0.00    +0.141 A 
ATOM     10  C   LIG    1        1.175   2.094   0.002  0.00  0.00    +0.047 A 
ATOM     11  C   LIG    1        2.380   1.416  -0.013  0.00  0.00    +0.004 A 
ATOM     12  C   LIG    1        2.400   0.034  -0.021  0.00  0.00    +0.002 A 
ATOM     13  C   LIG    1        1.215  -0.677  -0.013  0.00  0.00    +0.027 A 
ATOM     14  C   LIG    1        0.002  -0.004   0.002  0.00  0.00    +0.072 A 
BRANCH   9  16
ATOM     15  C   LIG    1       -1.145   3.482   0.026  0.00  0.00    +0.277 C 
ATOM     16  O   LIG    1       -1.203   2.055   0.019  0.00  0.00    -0.493 OA
ENDBRANCH   9  16
ENDBRANCH   2  14
ENDBRANCH   1   5
BRANCH   1  17
ATOM     17  C   LIG    1       -4.049  -4.830   1.217  0.00  0.00    -0.017 C 
BRANCH  17  18
ATOM     18  C   LIG    1       -5.362  -5.615   1.225  0.00  0.00    +0.018 C 
BRANCH  18  19
ATOM     19  C   LIG    1       -5.353  -6.614   2.384  0.00  0.00    +0.116 C 
BRANCH  19  20
ATOM     20  N   LIG    1       -6.610  -7.366   2.391  0.00  0.00    -0.242 N 
ATOM     21  C   LIG    1       -7.640  -6.886   3.103  0.00  0.00    +0.222 C 
ATOM     22  C   LIG    1       -8.957  -7.616   3.163  0.00  0.00    +0.103 C 
ATOM     23  C   LIG    1       -9.144  -8.426   1.882  0.00  0.00    -0.013 C 
ATOM     24  C   LIG    1       -7.936  -9.338   1.670  0.00  0.00    +0.103 C 
ATOM     25  C   LIG    1      -10.429  -9.261   1.966  0.00  0.00    +0.008 C 
ATOM     26  C   LIG    1      -11.334  -8.789   0.808  0.00  0.00    +0.001 C 
ATOM     27  C   LIG    1      -10.349  -8.181  -0.221  0.00  0.00    +0.001 C 
ATOM     28  C   LIG    1       -9.302  -7.478   0.680  0.00  0.00    +0.008 C 
ATOM     29  O   LIG    1       -7.511  -5.842   3.706  0.00  0.00    -0.275 OA
ATOM     30  C   LIG    1       -6.679  -8.507   1.690  0.00  0.00    +0.222 C 
ATOM     31  O   LIG    1       -5.712  -8.878   1.060  0.00  0.00    -0.275 OA
ENDBRANCH  19  20
ENDBRANCH  18  19
ENDBRANCH  17  18
ENDBRANCH   1  17
TORSDOF 7
