REMARK  Name = ZINC28233951
REMARK                            x       y       z     vdW  Elec       q    Type
REMARK                         _______ _______ _______ _____ _____    ______ ____
ROOT
ATOM      1  C   LIG    1       -0.665   1.569   3.687  0.00  0.00    -0.095 C 
ATOM      2  N   LIG    1       -0.018   1.093   2.457  0.00  0.00    +0.384 N 
ATOM      3  H   LIG    1        0.118   0.005   2.546  0.00  0.00    -0.081 HD
ENDROOT
BRANCH   2   4
ATOM      4  C   LIG    1       -0.867   1.346   1.285  0.00  0.00    -0.039 C 
ATOM      5  C   LIG    1       -0.861   2.843   0.966  0.00  0.00    -0.013 C 
ATOM      6  C   LIG    1       -1.745   3.107  -0.255  0.00  0.00    -0.001 C 
ATOM      7  C   LIG    1       -1.202   2.328  -1.455  0.00  0.00    +0.002 C 
ATOM      8  C   LIG    1       -1.208   0.831  -1.136  0.00  0.00    +0.030 C 
ATOM      9  C   LIG    1       -0.324   0.567   0.085  0.00  0.00    +0.101 C 
BRANCH   9  10
ATOM     10  O   LIG    1       -0.329  -0.831   0.383  0.00  0.00    -0.393 OA
ATOM     11  H   LIG    1        0.028  -1.554  -0.365  0.00  0.00    +0.210 HD
ENDBRANCH   9  10
ENDBRANCH   2   4
BRANCH   2  12
ATOM     12  C   LIG    1        1.308   1.702   2.289  0.00  0.00    -0.043 C 
BRANCH  12  13
ATOM     13  C   LIG    1        2.224   1.221   3.385  0.00  0.00    -0.064 A 
ATOM     14  C   LIG    1        2.312   1.925   4.571  0.00  0.00    +0.002 A 
ATOM     15  C   LIG    1        3.148   1.481   5.578  0.00  0.00    +0.000 A 
ATOM     16  C   LIG    1        3.905   0.339   5.394  0.00  0.00    +0.000 A 
ATOM     17  C   LIG    1        3.822  -0.362   4.206  0.00  0.00    +0.000 A 
ATOM     18  C   LIG    1        2.981   0.079   3.201  0.00  0.00    +0.002 A 
ENDBRANCH  12  13
ENDBRANCH   2  12
TORSDOF 4
