REMARK  Name = ZINC40379392
REMARK                            x       y       z     vdW  Elec       q    Type
REMARK                         _______ _______ _______ _____ _____    ______ ____
ROOT
ATOM      1  C   UNK    1       -0.017   1.377   0.010  0.00  0.00    +0.049 A 
ATOM      2  C   UNK    1       -1.249   2.036   0.031  0.00  0.00    +0.092 A 
ATOM      3  N   UNK    1       -1.636   3.333   0.043  0.00  0.00    -0.236 NA
ATOM      4  C   UNK    1       -2.937   3.399   0.062  0.00  0.00    +0.197 A 
ATOM      5  N   UNK    1       -3.469   2.147   0.047  0.00  0.00    -0.343 N 
ATOM      6  H   UNK    1       -4.413   1.924   0.054  0.00  0.00    +0.167 HD
ATOM      7  C   UNK    1       -2.423   1.256   0.032  0.00  0.00    +0.097 A 
ATOM      8  C   UNK    1       -2.311  -0.137   0.023  0.00  0.00    +0.151 A 
ATOM      9  N   UNK    1       -1.112  -0.708   0.008  0.00  0.00    -0.248 NA
ATOM     10  C   UNK    1        0.002  -0.004   0.002  0.00  0.00    +0.114 A 
ENDROOT
BRANCH   8  11
ATOM     11  C   UNK    1       -3.528  -0.976   0.029  0.00  0.00    +0.265 C 
ATOM     12  N   UNK    1       -3.421  -2.319   0.020  0.00  0.00    -0.300 N 
ATOM     13  H   UNK    1       -2.545  -2.736   0.009  0.00  0.00    +0.150 HD
ATOM     14  O   UNK    1       -4.626  -0.454   0.042  0.00  0.00    -0.268 OA
BRANCH  12  15
ATOM     15  C   UNK    1       -4.627  -3.150   0.026  0.00  0.00    +0.225 C 
BRANCH  15  16
ATOM     16  C   UNK    1       -4.235  -4.605   0.013  0.00  0.00    +0.322 C 
ATOM     17  O   UNK    1       -3.067  -4.916   0.001  0.00  0.00    -0.249 OA
BRANCH  16  18
ATOM     18  O   UNK    1       -5.182  -5.556   0.016  0.00  0.00    -0.480 OA
ATOM     19  H   UNK    1       -4.834  -6.458   0.008  0.00  0.00    +0.295 HD
ENDBRANCH  16  18
ENDBRANCH  15  16
ENDBRANCH  12  15
ENDBRANCH   8  11
TORSDOF 4
