REMARK  Name = ZINC13808164
REMARK                            x       y       z     vdW  Elec       q    Type
REMARK                         _______ _______ _______ _____ _____    ______ ____
ROOT
ATOM      1  S   LIG    1        1.156  -4.311  -0.216  0.00  0.00    +0.086 S 
ATOM      2  O   LIG    1        1.718  -4.621   1.052  0.00  0.00    -0.151 OA
ATOM      3  O   LIG    1        1.911  -4.369  -1.418  0.00  0.00    -0.151 OA
ENDROOT
BRANCH   1   9
ATOM      4  C   LIG    1       -1.023   1.301   0.187  0.00  0.00    +0.044 C 
ATOM      5  C   LIG    1       -0.478  -0.101   0.086  0.00  0.00    -0.050 A 
ATOM      6  C   LIG    1       -0.085  -0.603  -1.140  0.00  0.00    +0.008 A 
ATOM      7  C   LIG    1        0.414  -1.889  -1.232  0.00  0.00    -0.024 A 
ATOM      8  C   LIG    1        0.842  -2.437  -2.569  0.00  0.00    +0.046 C 
ATOM      9  C   LIG    1        0.521  -2.672  -0.098  0.00  0.00    +0.114 A 
ATOM     10  C   LIG    1        0.128  -2.169   1.128  0.00  0.00    -0.024 A 
ATOM     11  C   LIG    1        0.244  -3.023   2.365  0.00  0.00    +0.046 C 
ATOM     12  C   LIG    1       -0.367  -0.882   1.221  0.00  0.00    +0.008 A 
ENDBRANCH   1   9
BRANCH   1  13
ATOM     13  N   LIG    1       -0.138  -5.324  -0.421  0.00  0.00    -0.050 NA
ATOM     14  H   LIG    1       -0.313  -6.024   0.227  0.00  0.00    +0.191 HD
BRANCH  13  15
ATOM     15  N   LIG    1       -0.979  -5.170  -1.531  0.00  0.00    -0.182 N 
ATOM     16  H   LIG    1       -1.398  -4.314  -1.706  0.00  0.00    +0.285 HD
BRANCH  15  17
ATOM     17  C   LIG    1       -1.210  -6.234  -2.371  0.00  0.00    +0.394 C 
ATOM     18  N   LIG    1       -0.646  -7.385  -2.135  0.00  0.00    -0.128 NA
ATOM     19  H   LIG    1       -0.809  -8.136  -2.728  0.00  0.00    +0.306 HD
BRANCH  17  20
ATOM     20  N   LIG    1       -2.035  -6.083  -3.460  0.00  0.00    -0.288 N 
ATOM     21  H   LIG    1       -2.198  -6.833  -4.053  0.00  0.00    +0.255 HD
ATOM     22  H   LIG    1       -2.455  -5.226  -3.635  0.00  0.00    +0.255 HD
ENDBRANCH  17  20
ENDBRANCH  15  17
ENDBRANCH  13  15
ENDBRANCH   1  13
TORSDOF 5
