REMARK  Name = ZINC43206679
REMARK                            x       y       z     vdW  Elec       q    Type
REMARK                         _______ _______ _______ _____ _____    ______ ____
ROOT
ATOM      1  C   LIG    1       -1.113  -1.964  -0.054  0.00  0.00    +0.116 A 
ATOM      2  N   LIG    1       -1.043  -2.695  -1.139  0.00  0.00    -0.236 NA
ATOM      3  C   LIG    1       -0.949  -3.985  -0.810  0.00  0.00    +0.066 A 
ATOM      4  C   LIG    1       -0.850  -5.143  -1.769  0.00  0.00    +0.068 C 
ATOM      5  C   LIG    1       -0.961  -4.065   0.565  0.00  0.00    +0.092 A 
ATOM      6  C   LIG    1       -0.892  -5.131   1.485  0.00  0.00    +0.065 A 
ATOM      7  C   LIG    1       -0.778  -6.547   0.980  0.00  0.00    +0.068 C 
ATOM      8  N   LIG    1       -0.912  -4.903   2.771  0.00  0.00    -0.247 NA
ATOM      9  C   LIG    1       -1.013  -3.641   3.262  0.00  0.00    +0.107 A 
ATOM     10  C   LIG    1       -1.041  -3.417   4.646  0.00  0.00    +0.036 A 
ATOM     11  C   LIG    1       -1.144  -2.117   5.098  0.00  0.00    +0.069 A 
ATOM     12  C   LIG    1       -1.216  -1.077   4.176  0.00  0.00    +0.216 A 
ATOM     13  N   LIG    1       -1.187  -1.311   2.875  0.00  0.00    -0.193 NA
ATOM     14  C   LIG    1       -1.090  -2.540   2.393  0.00  0.00    +0.169 A 
ATOM     15  N   LIG    1       -1.061  -2.763   1.026  0.00  0.00    -0.277 N 
ENDROOT
BRANCH  12  16
ATOM     16  O   LIG    1       -1.317   0.201   4.620  0.00  0.00    -0.480 OA
ATOM     17  C   LIG    1       -1.387   1.229   3.630  0.00  0.00    +0.279 C 
ENDBRANCH  12  16
BRANCH   1  18
ATOM     18  C   LIG    1       -1.227  -0.461  -0.022  0.00  0.00    +0.074 C 
BRANCH  18  20
ATOM     19  C   LIG    1        0.058   1.681   0.033  0.00  0.00    +0.004 C 
ATOM     20  C   LIG    1        0.173   0.156   0.001  0.00  0.00    +0.004 C 
ENDBRANCH  18  20
ENDBRANCH   1  18
TORSDOF 3
