REMARK  Name = ZINC26384924
REMARK                            x       y       z     vdW  Elec       q    Type
REMARK                         _______ _______ _______ _____ _____    ______ ____
ROOT
ATOM      1  C   LIG    1        0.216  -3.845  -0.718  0.00  0.00    +0.338 C 
ATOM      2  O   LIG    1        1.336  -4.168  -1.067  0.00  0.00    -0.245 OA
ENDROOT
BRANCH   1   7
ATOM      3  C   LIG    1        0.067   1.290   1.665  0.00  0.00    +0.061 C 
ATOM      4  C   LIG    1       -0.087  -0.035   0.965  0.00  0.00    +0.016 C 
ATOM      5  C   LIG    1       -0.009  -0.091  -0.376  0.00  0.00    +0.065 C 
ATOM      6  C   LIG    1       -0.165  -1.389  -1.116  0.00  0.00    +0.096 C 
ATOM      7  C   LIG    1       -0.013  -2.556  -0.183  0.00  0.00    +0.065 C 
ATOM      8  C   LIG    1       -0.091  -2.402   1.150  0.00  0.00    +0.016 C 
ATOM      9  C   LIG    1        0.058  -3.603   2.048  0.00  0.00    +0.061 C 
ATOM     10  N   LIG    1       -0.299  -1.169   1.702  0.00  0.00    -0.321 N 
ATOM     11  H   LIG    1       -0.602  -1.097   2.621  0.00  0.00    +0.152 HD
BRANCH   6  12
ATOM     12  C   LIG    1       -1.532  -1.437  -1.751  0.00  0.00    -0.033 A 
ATOM     13  C   LIG    1       -2.664  -1.355  -0.961  0.00  0.00    +0.005 A 
ATOM     14  C   LIG    1       -3.917  -1.398  -1.543  0.00  0.00    +0.003 A 
ATOM     15  C   LIG    1       -4.038  -1.524  -2.914  0.00  0.00    +0.032 A 
ATOM     16  C   LIG    1       -2.906  -1.605  -3.704  0.00  0.00    +0.122 A 
ATOM     17  C   LIG    1       -1.653  -1.557  -3.122  0.00  0.00    +0.037 A 
BRANCH  16  18
ATOM     18  N   LIG    1       -3.036  -1.740  -5.172  0.00  0.00    +0.006 N 
ATOM     19  O   LIG    1       -4.132  -1.779  -5.681  0.00  0.00    -0.130 OA
BRANCH  18  20
ATOM     20  O   LIG    1       -2.046  -1.811  -5.862  0.00  0.00    -0.396 OA
ATOM     21  H   LIG    1       -1.197  -1.780  -5.468  0.00  0.00    +0.329 HD
ENDBRANCH  18  20
ENDBRANCH  16  18
ENDBRANCH   6  12
BRANCH   5  22
ATOM     22  C   LIG    1        0.225   1.098  -1.105  0.00  0.00    +0.337 C 
ATOM     23  O   LIG    1        0.353   2.156  -0.518  0.00  0.00    -0.245 OA
BRANCH  22  24
ATOM     24  O   LIG    1        0.306   1.059  -2.451  0.00  0.00    -0.465 OA
ATOM     25  C   LIG    1        0.544   2.297  -3.123  0.00  0.00    +0.280 C 
ENDBRANCH  22  24
ENDBRANCH   5  22
ENDBRANCH   1   7
BRANCH   1  26
ATOM     26  O   LIG    1       -0.807  -4.716  -0.841  0.00  0.00    -0.461 OA
BRANCH  26  27
ATOM     27  C   LIG    1       -0.502  -6.000  -1.390  0.00  0.00    +0.230 C 
BRANCH  27  28
ATOM     28  C   LIG    1       -1.778  -6.843  -1.451  0.00  0.00    +0.023 C 
BRANCH  28  29
ATOM     29  C   LIG    1       -1.452  -8.218  -2.038  0.00  0.00    -0.076 C 
BRANCH  29  30
ATOM     30  N   LIG    1       -2.676  -9.028  -2.098  0.00  0.00    +0.380 N 
ATOM     31  H   LIG    1       -3.384  -8.528  -2.615  0.00  0.00    -0.082 HD
ATOM     32  C   LIG    1       -3.159  -9.283  -0.735  0.00  0.00    -0.078 C 
ATOM     33  C   LIG    1       -4.477 -10.057  -0.793  0.00  0.00    -0.003 C 
ATOM     34  C   LIG    1       -4.250 -11.389  -1.514  0.00  0.00    +0.017 C 
ATOM     35  C   LIG    1       -3.676 -11.113  -2.906  0.00  0.00    -0.003 C 
ATOM     36  C   LIG    1       -2.387 -10.300  -2.770  0.00  0.00    -0.078 C 
BRANCH  34  37
ATOM     37  C   LIG    1       -3.277 -12.228  -0.725  0.00  0.00    -0.037 A 
ATOM     38  C   LIG    1       -3.493 -12.455   0.621  0.00  0.00    +0.004 A 
ATOM     39  C   LIG    1       -2.601 -13.225   1.344  0.00  0.00    +0.000 A 
ATOM     40  C   LIG    1       -1.493 -13.768   0.721  0.00  0.00    +0.000 A 
ATOM     41  C   LIG    1       -1.278 -13.542  -0.626  0.00  0.00    +0.000 A 
ATOM     42  C   LIG    1       -2.172 -12.775  -1.350  0.00  0.00    +0.004 A 
ENDBRANCH  34  37
BRANCH  34  43
ATOM     43  C   LIG    1       -5.560 -12.122  -1.644  0.00  0.00    -0.037 A 
ATOM     44  C   LIG    1       -6.731 -11.525  -1.215  0.00  0.00    +0.004 A 
ATOM     45  C   LIG    1       -7.933 -12.197  -1.335  0.00  0.00    +0.000 A 
ATOM     46  C   LIG    1       -7.964 -13.466  -1.883  0.00  0.00    +0.000 A 
ATOM     47  C   LIG    1       -6.793 -14.062  -2.312  0.00  0.00    +0.000 A 
ATOM     48  C   LIG    1       -5.592 -13.388  -2.197  0.00  0.00    +0.004 A 
ENDBRANCH  34  43
ENDBRANCH  29  30
ENDBRANCH  28  29
ENDBRANCH  27  28
ENDBRANCH  26  27
ENDBRANCH   1  26
TORSDOF 13
