REMARK  Name = ZINC00004855
REMARK                            x       y       z     vdW  Elec       q    Type
REMARK                         _______ _______ _______ _____ _____    ______ ____
ROOT
ATOM      1  C   LIG    1       -0.017   1.378   0.010  0.00  0.00    +0.000 A 
ATOM      2  C   LIG    1        1.174   2.082   0.002  0.00  0.00    +0.002 A 
ATOM      3  C   LIG    1        2.377   1.411  -0.013  0.00  0.00    +0.025 A 
ATOM      4  C   LIG    1        2.405   0.014  -0.021  0.00  0.00    +0.048 A 
ATOM      5  C   LIG    1        1.206  -0.682  -0.014  0.00  0.00    -0.024 A 
ATOM      6  C   LIG    1        1.510  -2.163  -0.025  0.00  0.00    +0.057 C 
ATOM      7  C   LIG    1        3.046  -2.241  -0.040  0.00  0.00    +0.129 C 
ATOM      8  N   LIG    1        3.501  -0.849  -0.037  0.00  0.00    -0.266 N 
ATOM      9  C   LIG    1        0.002  -0.004   0.002  0.00  0.00    +0.005 A 
ENDROOT
BRANCH   8  10
ATOM     10  N   LIG    1        4.842  -0.443  -0.048  0.00  0.00    -0.237 NA
ATOM     11  H   LIG    1        5.361  -0.505  -0.866  0.00  0.00    +0.145 HD
BRANCH  10  12
ATOM     12  C   LIG    1        5.430   0.051   1.113  0.00  0.00    +0.075 C 
ATOM     13  C   LIG    1        4.702   0.144   2.299  0.00  0.00    +0.035 C 
ATOM     14  C   LIG    1        5.321   0.639   3.428  0.00  0.00    +0.082 C 
ATOM     15  N   LIG    1        6.584   1.022   3.394  0.00  0.00    -0.316 NA
ATOM     16  H   LIG    1        6.993   1.366   4.203  0.00  0.00    +0.122 HD
ATOM     17  C   LIG    1        7.306   0.950   2.291  0.00  0.00    +0.082 C 
ATOM     18  C   LIG    1        6.763   0.460   1.122  0.00  0.00    +0.035 C 
ENDBRANCH  10  12
ENDBRANCH   8  10
TORSDOF 2
