REMARK  Name = ZINC15303951
REMARK                            x       y       z     vdW  Elec       q    Type
REMARK                         _______ _______ _______ _____ _____    ______ ____
ROOT
ATOM      1  N   LIG    1        4.287   2.122   1.305  0.00  0.00    -0.307 N 
ATOM      2  H   LIG    1        3.851   1.631   2.019  0.00  0.00    +0.149 HD
ATOM      3  C   LIG    1        5.460   2.745   1.534  0.00  0.00    +0.246 C 
ATOM      4  O   LIG    1        6.007   3.360   0.639  0.00  0.00    -0.270 OA
ENDROOT
BRANCH   3   5
ATOM      5  C   LIG    1        6.080   2.681   2.870  0.00  0.00    +0.053 A 
ATOM      6  C   LIG    1        5.451   1.962   3.915  0.00  0.00    +0.020 A 
ATOM      7  C   LIG    1        6.045   1.919   5.138  0.00  0.00    +0.071 A 
ATOM      8  C   LIG    1        7.267   2.588   5.338  0.00  0.00    +0.249 A 
ATOM      9  N   LIG    1        7.848   3.266   4.331  0.00  0.00    -0.328 N 
ATOM     10  H   LIG    1        8.691   3.721   4.485  0.00  0.00    +0.168 HD
ATOM     11  O   LIG    1        7.804   2.554   6.432  0.00  0.00    -0.268 OA
ATOM     12  C   LIG    1        7.281   3.317   3.111  0.00  0.00    +0.099 A 
ENDBRANCH   3   5
BRANCH   1  13
ATOM     13  C   LIG    1        3.671   2.185  -0.023  0.00  0.00    +0.141 C 
BRANCH  13  16
ATOM     14  C   LIG    1       -0.017   1.379   0.010  0.00  0.00    +0.020 A 
ATOM     15  C   LIG    1        1.171   2.087   0.002  0.00  0.00    +0.008 A 
ATOM     16  C   LIG    1        2.377   1.413  -0.013  0.00  0.00    -0.012 A 
ATOM     17  C   LIG    1        2.397   0.029  -0.021  0.00  0.00    +0.047 A 
ATOM     18 CL   LIG    1        3.913  -0.817  -0.041  0.00  0.00    -0.083 Cl
ATOM     19  C   LIG    1        1.210  -0.679  -0.013  0.00  0.00    +0.040 A 
ATOM     20  C   LIG    1        0.002  -0.004   0.002  0.00  0.00    +0.042 A 
ATOM     21 CL   LIG    1       -1.489  -0.893   0.012  0.00  0.00    -0.083 Cl
ENDBRANCH  13  16
ENDBRANCH   1  13
TORSDOF 3
