REMARK  Name = ZINC00010228
REMARK                            x       y       z     vdW  Elec       q    Type
REMARK                         _______ _______ _______ _____ _____    ______ ____
ROOT
ATOM      1  C   LIG    1       -3.592   5.904  -0.051  0.00  0.00    +0.222 A 
ATOM      2  N   LIG    1       -3.665   7.200  -0.289  0.00  0.00    -0.214 NA
ATOM      3  C   LIG    1       -2.566   7.965  -0.226  0.00  0.00    +0.078 A 
ATOM      4  C   LIG    1       -2.607   9.344  -0.472  0.00  0.00    +0.028 A 
ATOM      5  C   LIG    1       -1.462  10.079  -0.379  0.00  0.00    +0.002 A 
ATOM      6  C   LIG    1       -0.249   9.479  -0.058  0.00  0.00    +0.001 A 
ATOM      7  C   LIG    1       -0.172   8.138   0.182  0.00  0.00    +0.013 A 
ATOM      8  C   LIG    1       -1.330   7.357   0.105  0.00  0.00    +0.041 A 
ATOM      9  C   LIG    1       -1.311   5.960   0.345  0.00  0.00    +0.136 A 
ATOM     10  N   LIG    1       -2.453   5.293   0.258  0.00  0.00    -0.199 NA
ENDROOT
BRANCH   1  11
ATOM     11  N   LIG    1       -4.750   5.150  -0.127  0.00  0.00    -0.283 N 
ATOM     12  H   LIG    1       -4.706   4.184  -0.047  0.00  0.00    +0.155 HD
BRANCH  11  19
ATOM     13  C   LIG    1       -6.775   3.735  -1.539  0.00  0.00    +0.045 C 
ATOM     14  C   LIG    1       -7.000   5.126  -1.004  0.00  0.00    -0.029 A 
ATOM     15  C   LIG    1       -8.217   5.751  -1.192  0.00  0.00    +0.005 A 
ATOM     16  C   LIG    1       -8.424   7.027  -0.701  0.00  0.00    +0.000 A 
ATOM     17  C   LIG    1       -7.414   7.681  -0.019  0.00  0.00    +0.002 A 
ATOM     18  C   LIG    1       -6.197   7.059   0.177  0.00  0.00    +0.023 A 
ATOM     19  C   LIG    1       -5.984   5.780  -0.320  0.00  0.00    +0.036 A 
ENDBRANCH  11  19
ENDBRANCH   1  11
BRANCH   9  20
ATOM     20  N   LIG    1       -0.136   5.314   0.667  0.00  0.00    -0.299 N 
ATOM     21  H   LIG    1        0.677   5.824   0.802  0.00  0.00    +0.154 HD
BRANCH  20  22
ATOM     22  C   LIG    1       -0.118   3.922   0.799  0.00  0.00    +0.032 A 
ATOM     23  C   LIG    1       -0.918   3.135  -0.019  0.00  0.00    +0.023 A 
ATOM     24  C   LIG    1       -0.897   1.760   0.113  0.00  0.00    +0.002 A 
ATOM     25  C   LIG    1       -0.081   1.167   1.059  0.00  0.00    +0.000 A 
ATOM     26  C   LIG    1        0.713   1.949   1.878  0.00  0.00    +0.002 A 
ATOM     27  C   LIG    1        0.702   3.323   1.747  0.00  0.00    +0.023 A 
ENDBRANCH  20  22
ENDBRANCH   9  20
TORSDOF 4
