REMARK  Name = ZINC00008741
REMARK                            x       y       z     vdW  Elec       q    Type
REMARK                         _______ _______ _______ _____ _____    ______ ____
ROOT
ATOM      1  C   LIG    1       -0.013   4.115   0.023  0.00  0.00    +0.164 A 
ATOM      2  C   LIG    1        1.183   3.458   0.009  0.00  0.00    +0.079 A 
ATOM      3  C   LIG    1        1.207   2.053   0.002  0.00  0.00    +0.093 A 
ATOM      4  C   LIG    1       -0.016   1.335   0.009  0.00  0.00    +0.095 A 
ATOM      5  N   LIG    1        0.002  -0.004   0.002  0.00  0.00    -0.229 NA
ATOM      6  C   LIG    1        1.158  -0.641  -0.012  0.00  0.00    +0.138 A 
ATOM      7  C   LIG    1        2.367   0.074  -0.020  0.00  0.00    +0.154 A 
ATOM      8  C   LIG    1       -1.231   2.040   0.019  0.00  0.00    +0.079 A 
ATOM      9  N   LIG    1        2.367   1.385  -0.013  0.00  0.00    -0.250 NA
ATOM     10  C   LIG    1       -1.223   3.404   0.032  0.00  0.00    +0.164 A 
ENDROOT
BRANCH   1  12
ATOM     11  C   LIG    1        1.232   6.141   0.021  0.00  0.00    +0.277 C 
ATOM     12  O   LIG    1       -0.032   5.474   0.030  0.00  0.00    -0.491 OA
ENDBRANCH   1  12
BRANCH   6  13
ATOM     13  N   LIG    1        1.178  -2.029  -0.020  0.00  0.00    -0.325 N 
ATOM     14  H   LIG    1        0.346  -2.527  -0.014  0.00  0.00    +0.148 HD
BRANCH  13  15
ATOM     15  C   LIG    1        2.458  -2.743  -0.036  0.00  0.00    +0.072 C 
ATOM     16  C   LIG    1        2.951  -2.874  -1.478  0.00  0.00    +0.025 C 
ATOM     17  C   LIG    1        1.922  -3.654  -2.300  0.00  0.00    +0.033 C 
ATOM     18  C   LIG    1        1.737  -5.047  -1.695  0.00  0.00    +0.115 C 
ATOM     19  C   LIG    1        1.244  -4.915  -0.253  0.00  0.00    +0.033 C 
ATOM     20  C   LIG    1        2.273  -4.136   0.569  0.00  0.00    +0.025 C 
BRANCH  18  21
ATOM     21  O   LIG    1        0.776  -5.775  -2.462  0.00  0.00    -0.392 OA
ATOM     22  H   LIG    1        1.023  -5.896  -3.389  0.00  0.00    +0.210 HD
ENDBRANCH  18  21
ENDBRANCH  13  15
ENDBRANCH   6  13
BRANCH  10  23
ATOM     23  O   LIG    1       -2.400   4.083   0.046  0.00  0.00    -0.491 OA
ATOM     24  C   LIG    1       -3.598   3.304   0.054  0.00  0.00    +0.277 C 
ENDBRANCH  10  23
TORSDOF 5
