REMARK  Name = ZINC28710524
REMARK                            x       y       z     vdW  Elec       q    Type
REMARK                         _______ _______ _______ _____ _____    ______ ____
ROOT
ATOM      1  N   LIG    1        0.711  -0.489   1.189  0.00  0.00    -0.297 N 
ATOM      2  H   LIG    1        1.370   0.073   1.624  0.00  0.00    +0.151 HD
ATOM      3  C   LIG    1        0.446  -1.718   1.676  0.00  0.00    +0.300 C 
ATOM      4  N   LIG    1        1.098  -2.164   2.768  0.00  0.00    -0.294 N 
ATOM      5  H   LIG    1        1.758  -1.601   3.203  0.00  0.00    +0.151 HD
ATOM      6  O   LIG    1       -0.381  -2.423   1.131  0.00  0.00    -0.253 OA
ENDROOT
BRANCH   4   7
ATOM      7  C   LIG    1        0.810  -3.499   3.298  0.00  0.00    +0.037 C 
ATOM      8  C   LIG    1        1.118  -4.550   2.229  0.00  0.00    +0.029 C 
ATOM      9  C   LIG    1        0.818  -5.944   2.782  0.00  0.00    -0.008 C 
ATOM     10  C   LIG    1        1.687  -6.202   4.015  0.00  0.00    +0.007 C 
ATOM     11  C   LIG    1        1.379  -5.151   5.084  0.00  0.00    -0.008 C 
ATOM     12  C   LIG    1       -0.098  -5.238   5.474  0.00  0.00    +0.007 C 
ATOM     13  C   LIG    1       -0.967  -4.981   4.241  0.00  0.00    -0.008 C 
ATOM     14  C   LIG    1       -0.659  -6.031   3.172  0.00  0.00    +0.007 C 
ATOM     15  C   LIG    1       -0.666  -3.586   3.688  0.00  0.00    +0.029 C 
ATOM     16  C   LIG    1        1.679  -3.757   4.531  0.00  0.00    +0.029 C 
ENDBRANCH   4   7
BRANCH   1  22
ATOM     17  C   LIG    1       -0.019   1.526   0.010  0.00  0.00    +0.025 C 
ATOM     18  C   LIG    1        1.417   2.055  -0.000  0.00  0.00    +0.033 C 
ATOM     19  C   LIG    1        2.133   1.562  -1.259  0.00  0.00    +0.115 C 
ATOM     20  C   LIG    1        2.154   0.032  -1.268  0.00  0.00    +0.033 C 
ATOM     21  C   LIG    1        0.718  -0.497  -1.257  0.00  0.00    +0.025 C 
ATOM     22  C   LIG    1        0.002  -0.004   0.002  0.00  0.00    +0.075 C 
BRANCH  19  23
ATOM     23  O   LIG    1        3.474   2.057  -1.269  0.00  0.00    -0.392 OA
ATOM     24  H   LIG    1        3.988   1.782  -2.041  0.00  0.00    +0.210 HD
ENDBRANCH  19  23
ENDBRANCH   1  22
TORSDOF 3
