REMARK  Name = ZINC28231333
REMARK                            x       y       z     vdW  Elec       q    Type
REMARK                         _______ _______ _______ _____ _____    ______ ____
ROOT
ATOM      1  N   LIG    1       -2.194   1.294  -3.604  0.00  0.00    -0.327 N 
ATOM      2  C   LIG    1       -0.784   1.709  -3.626  0.00  0.00    +0.120 C 
ATOM      3  C   LIG    1       -0.062   1.117  -2.413  0.00  0.00    +0.103 C 
ATOM      4  N   LIG    1       -0.723   1.572  -1.182  0.00  0.00    -0.294 NA
ATOM      5  C   LIG    1       -2.133   1.158  -1.160  0.00  0.00    +0.103 C 
ATOM      6  C   LIG    1       -2.855   1.750  -2.373  0.00  0.00    +0.120 C 
ENDROOT
BRANCH   1  10
ATOM      7  C   LIG    1       -4.210   2.675  -6.981  0.00  0.00    +0.120 A 
ATOM      8  C   LIG    1       -4.886   1.929  -6.027  0.00  0.00    +0.047 A 
ATOM      9  C   LIG    1       -4.219   1.471  -4.907  0.00  0.00    +0.027 A 
ATOM     10  C   LIG    1       -2.871   1.758  -4.737  0.00  0.00    +0.030 A 
ATOM     11  C   LIG    1       -2.196   2.509  -5.691  0.00  0.00    +0.027 A 
ATOM     12  C   LIG    1       -2.863   2.961  -6.812  0.00  0.00    +0.047 A 
BRANCH   7  14
ATOM     13  C   LIG    1       -4.110   3.888  -9.024  0.00  0.00    +0.277 C 
ATOM     14  O   LIG    1       -4.868   3.126  -8.082  0.00  0.00    -0.495 OA
ENDBRANCH   7  14
ENDBRANCH   1  10
BRANCH   4  15
ATOM     15  C   LIG    1       -0.013   1.086   0.008  0.00  0.00    +0.085 C 
ATOM     16  C   LIG    1        1.423   1.615  -0.003  0.00  0.00    +0.021 C 
ATOM     17  C   LIG    1        2.163   1.109   1.237  0.00  0.00    +0.002 C 
ATOM     18  C   LIG    1        1.446   1.602   2.495  0.00  0.00    +0.003 C 
ATOM     19  C   LIG    1        0.011   1.072   2.506  0.00  0.00    +0.033 C 
ATOM     20  C   LIG    1       -0.729   1.579   1.267  0.00  0.00    +0.132 C 
BRANCH  20  21
ATOM     21  O   LIG    1       -0.748   3.008   1.275  0.00  0.00    -0.390 OA
ATOM     22  H   LIG    1       -1.224   3.547   2.107  0.00  0.00    +0.210 HD
ENDBRANCH  20  21
ENDBRANCH   4  15
TORSDOF 4
