REMARK  Name = ZINC00052093
REMARK                            x       y       z     vdW  Elec       q    Type
REMARK                         _______ _______ _______ _____ _____    ______ ____
ROOT
ATOM      1  C   LIG    1        2.724  -4.428   0.157  0.00  0.00    +0.044 C 
ATOM      2  C   LIG    1        1.247  -4.129   0.180  0.00  0.00    -0.038 A 
ATOM      3  C   LIG    1        0.332  -5.152   0.038  0.00  0.00    +0.004 A 
ATOM      4  C   LIG    1       -1.024  -4.879   0.053  0.00  0.00    +0.000 A 
ATOM      5  C   LIG    1       -1.473  -3.579   0.215  0.00  0.00    +0.001 A 
ATOM      6  C   LIG    1       -0.570  -2.548   0.362  0.00  0.00    +0.013 A 
ATOM      7  C   LIG    1        0.801  -2.817   0.349  0.00  0.00    +0.044 A 
ENDROOT
BRANCH   7   8
ATOM      8  C   LIG    1        1.774  -1.717   0.507  0.00  0.00    +0.279 C 
ATOM      9  N   LIG    1        1.341  -0.464   0.752  0.00  0.00    -0.204 N 
ATOM     10  C   LIG    1        2.124   0.618   1.016  0.00  0.00    +0.118 A 
ATOM     11  C   LIG    1        1.307   1.677   1.204  0.00  0.00    +0.041 A 
ATOM     12  C   LIG    1       -0.015   1.236   1.051  0.00  0.00    +0.135 A 
ATOM     13  N   LIG    1        0.005  -0.043   0.782  0.00  0.00    -0.172 NA
ATOM     14  O   LIG    1        2.964  -1.942   0.415  0.00  0.00    -0.265 OA
ENDBRANCH   7   8
TORSDOF 1
