REMARK  Name = ZINC28642528
REMARK                            x       y       z     vdW  Elec       q    Type
REMARK                         _______ _______ _______ _____ _____    ______ ____
ROOT
ATOM      1  C   LIG    1       -3.607   3.645  -1.466  0.00  0.00    +0.221 A 
ATOM      2  N   LIG    1       -4.436   2.667  -1.742  0.00  0.00    -0.220 NA
ATOM      3  C   LIG    1       -4.955   2.521  -2.952  0.00  0.00    +0.098 A 
ATOM      4  C   LIG    1       -4.598   3.428  -3.915  0.00  0.00    +0.078 A 
ATOM      5  S   LIG    1       -3.499   4.484  -2.982  0.00  0.00    -0.056 S 
ENDROOT
BRANCH   3   6
ATOM      6  C   LIG    1       -5.889   1.414  -3.253  0.00  0.00    +0.092 A 
ATOM      7  C   LIG    1       -6.229   0.388  -2.421  0.00  0.00    +0.141 A 
ATOM      8  N   LIG    1       -7.096  -0.400  -3.054  0.00  0.00    -0.235 NA
ATOM      9  C   LIG    1       -7.320   0.078  -4.271  0.00  0.00    +0.138 A 
ATOM     10  C   LIG    1       -8.134  -0.372  -5.329  0.00  0.00    +0.048 A 
ATOM     11  C   LIG    1       -8.169   0.334  -6.492  0.00  0.00    +0.025 A 
ATOM     12  C   LIG    1       -7.395   1.499  -6.623  0.00  0.00    +0.058 A 
ATOM     13 CL   LIG    1       -7.437   2.403  -8.104  0.00  0.00    -0.082 Cl
ATOM     14  C   LIG    1       -6.619   1.919  -5.600  0.00  0.00    +0.113 A 
ATOM     15  N   LIG    1       -6.575   1.219  -4.428  0.00  0.00    -0.297 N 
ENDBRANCH   3   6
BRANCH   1  16
ATOM     16  S   LIG    1       -2.811   4.019   0.060  0.00  0.00    +0.049 S 
ATOM     17  O   LIG    1       -2.495   5.404   0.025  0.00  0.00    -0.162 OA
ATOM     18  O   LIG    1       -3.609   3.445   1.086  0.00  0.00    -0.162 OA
BRANCH  16  25
ATOM     19  C   LIG    1       -2.560   1.005   0.069  0.00  0.00    +0.046 C 
ATOM     20  C   LIG    1       -1.262   1.771   0.076  0.00  0.00    -0.025 A 
ATOM     21  C   LIG    1       -0.058   1.092   0.090  0.00  0.00    +0.007 A 
ATOM     22  C   LIG    1        1.132   1.795   0.091  0.00  0.00    +0.033 A 
ATOM     23  C   LIG    1        1.118   3.177   0.082  0.00  0.00    +0.123 A 
ATOM     24  C   LIG    1       -0.086   3.856   0.073  0.00  0.00    +0.060 A 
ATOM     25  C   LIG    1       -1.276   3.153   0.072  0.00  0.00    +0.101 A 
BRANCH  23  26
ATOM     26  N   LIG    1        2.393   3.930   0.082  0.00  0.00    +0.006 N 
ATOM     27  O   LIG    1        3.453   3.332   0.090  0.00  0.00    -0.130 OA
BRANCH  26  28
ATOM     28  O   LIG    1        2.381   5.148   0.074  0.00  0.00    -0.396 OA
ATOM     29  H   LIG    1        1.565   5.608   0.069  0.00  0.00    +0.329 HD
ENDBRANCH  26  28
ENDBRANCH  23  26
ENDBRANCH  16  25
ENDBRANCH   1  16
TORSDOF 5
