REMARK  Name = ZINC14949367
REMARK                            x       y       z     vdW  Elec       q    Type
REMARK                         _______ _______ _______ _____ _____    ______ ____
ROOT
ATOM      1  C   LIG    1       -4.339   5.414   1.889  0.00  0.00    +0.089 C 
ENDROOT
BRANCH   1   8
ATOM      2  C   LIG    1        1.177   2.072   0.002  0.00  0.00    +0.162 A 
ATOM      3  C   LIG    1        1.145   3.454   0.014  0.00  0.00    +0.053 A 
ATOM      4  C   LIG    1       -0.068   4.134   0.035  0.00  0.00    -0.038 A 
ATOM      5  C   LIG    1       -1.247   3.424   0.033  0.00  0.00    -0.023 A 
ATOM      6  C   LIG    1       -2.596   4.099   0.034  0.00  0.00    +0.143 C 
ATOM      7  N   LIG    1       -2.432   5.529   0.318  0.00  0.00    -0.297 N 
ATOM      8  C   LIG    1       -3.240   6.168   1.186  0.00  0.00    +0.215 C 
ATOM      9  O   LIG    1       -3.083   7.351   1.403  0.00  0.00    -0.276 OA
ATOM     10  C   LIG    1       -1.349   6.237  -0.385  0.00  0.00    +0.113 C 
ATOM     11  C   LIG    1       -1.221   2.035   0.019  0.00  0.00    +0.054 A 
ATOM     12  C   LIG    1       -0.021   5.639   0.074  0.00  0.00    +0.054 C 
ATOM     13  C   LIG    1       -0.016   1.356   0.009  0.00  0.00    +0.162 A 
BRANCH   2  15
ATOM     14  C   LIG    1        3.550   2.219  -0.025  0.00  0.00    +0.277 C 
ATOM     15  O   LIG    1        2.368   1.417  -0.018  0.00  0.00    -0.491 OA
ENDBRANCH   2  15
BRANCH  13  16
ATOM     16  O   LIG    1        0.002  -0.004   0.002  0.00  0.00    -0.491 OA
ATOM     17  C   LIG    1       -1.262  -0.670   0.011  0.00  0.00    +0.277 C 
ENDBRANCH  13  16
ENDBRANCH   1   8
BRANCH   1  18
ATOM     18  C   LIG    1       -5.103   6.366   2.812  0.00  0.00    +0.022 C 
BRANCH  18  19
ATOM     19  C   LIG    1       -6.276   5.642   3.420  0.00  0.00    +0.202 C 
ATOM     20  N   LIG    1       -7.409   5.478   2.708  0.00  0.00    -0.294 N 
ATOM     21  C   LIG    1       -7.658   5.947   1.341  0.00  0.00    +0.143 C 
ATOM     22  C   LIG    1       -9.056   5.531   0.962  0.00  0.00    -0.025 A 
ATOM     23  C   LIG    1       -9.779   5.719  -0.204  0.00  0.00    +0.005 A 
ATOM     24  C   LIG    1      -11.070   5.239  -0.304  0.00  0.00    +0.000 A 
ATOM     25  C   LIG    1      -11.643   4.570   0.762  0.00  0.00    +0.000 A 
ATOM     26  C   LIG    1      -10.922   4.382   1.925  0.00  0.00    +0.005 A 
ATOM     27  C   LIG    1       -9.628   4.863   2.026  0.00  0.00    -0.025 A 
ATOM     28  C   LIG    1       -8.631   4.801   3.155  0.00  0.00    +0.143 C 
ATOM     29  O   LIG    1       -6.202   5.208   4.550  0.00  0.00    -0.277 OA
ENDBRANCH  18  19
BRANCH  18  30
ATOM     30  N   LIG    1       -4.225   6.848   3.893  0.00  0.00    +0.386 N 
ATOM     31  H   LIG    1       -4.764   7.458   4.518  0.00  0.00    -0.089 HD
ATOM     32  H   LIG    1       -3.448   7.378   3.501  0.00  0.00    -0.089 HD
ATOM     33  H   LIG    1       -3.864   6.060   4.427  0.00  0.00    -0.089 HD
ENDBRANCH  18  30
ENDBRANCH   1  18
TORSDOF 6
