REMARK  Name = ZINC20326109
REMARK                            x       y       z     vdW  Elec       q    Type
REMARK                         _______ _______ _______ _____ _____    ______ ____
ROOT
ATOM      1  C   LIG    1        2.539  -6.410   1.272  0.00  0.00    +0.165 C 
ENDROOT
BRANCH   1   2
ATOM      2  C   LIG    1        3.939  -6.116   0.797  0.00  0.00    +0.232 C 
ATOM      3  N   LIG    1        4.799  -5.457   1.600  0.00  0.00    -0.310 N 
ATOM      4  H   LIG    1        4.541  -5.237   2.509  0.00  0.00    +0.149 HD
ATOM      5  O   LIG    1        4.292  -6.471  -0.307  0.00  0.00    -0.274 OA
BRANCH   3   6
ATOM      6  C   LIG    1        6.122  -5.075   1.100  0.00  0.00    +0.139 C 
BRANCH   6   7
ATOM      7  C   LIG    1        6.881  -4.357   2.186  0.00  0.00    -0.030 A 
ATOM      8  C   LIG    1        6.778  -2.983   2.306  0.00  0.00    +0.009 A 
ATOM      9  C   LIG    1        7.474  -2.322   3.300  0.00  0.00    +0.046 A 
ATOM     10  C   LIG    1        8.275  -3.038   4.178  0.00  0.00    +0.120 A 
ATOM     11  C   LIG    1        8.376  -4.417   4.055  0.00  0.00    +0.046 A 
ATOM     12  C   LIG    1        7.674  -5.073   3.063  0.00  0.00    +0.009 A 
BRANCH  10  13
ATOM     13  O   LIG    1        8.960  -2.390   5.157  0.00  0.00    -0.495 OA
ATOM     14  C   LIG    1        9.765  -3.191   6.024  0.00  0.00    +0.277 C 
ENDBRANCH  10  13
ENDBRANCH   6   7
ENDBRANCH   3   6
ENDBRANCH   1   2
BRANCH   1  15
ATOM     15  C   LIG    1        2.572  -7.574   2.264  0.00  0.00    +0.010 C 
ATOM     16  C   LIG    1        3.126  -8.820   1.570  0.00  0.00    +0.009 C 
ATOM     17  C   LIG    1        1.154  -7.857   2.765  0.00  0.00    +0.009 C 
ENDBRANCH   1  15
BRANCH   1  18
ATOM     18  N   LIG    1        1.700  -6.768   0.126  0.00  0.00    -0.178 NA
ATOM     19  H   LIG    1        1.881  -7.580  -0.373  0.00  0.00    +0.149 HD
BRANCH  18  20
ATOM     20  S   LIG    1        0.442  -5.787  -0.317  0.00  0.00    +0.059 S 
ATOM     21  O   LIG    1       -0.177  -6.402  -1.439  0.00  0.00    -0.153 OA
ATOM     22  O   LIG    1       -0.272  -5.479   0.873  0.00  0.00    -0.153 OA
BRANCH  20  29
ATOM     23  C   LIG    1        3.495   1.627  -1.325  0.00  0.00    +0.073 C 
ATOM     24  C   LIG    1        2.931   0.238  -1.176  0.00  0.00    +0.076 A 
ATOM     25  N   LIG    1        2.766  -0.660  -2.103  0.00  0.00    -0.244 NA
ATOM     26  C   LIG    1        2.247  -1.877  -1.841  0.00  0.00    +0.079 A 
ATOM     27  C   LIG    1        1.998  -2.961  -2.708  0.00  0.00    +0.031 A 
ATOM     28  C   LIG    1        1.460  -4.118  -2.234  0.00  0.00    +0.030 A 
ATOM     29  C   LIG    1        1.138  -4.274  -0.892  0.00  0.00    +0.106 A 
ATOM     30  C   LIG    1        1.368  -3.234  -0.011  0.00  0.00    +0.045 A 
ATOM     31  C   LIG    1        1.911  -2.062  -0.480  0.00  0.00    +0.041 A 
ATOM     32  S   LIG    1        2.378  -0.505   0.229  0.00  0.00    -0.072 S 
ENDBRANCH  20  29
ENDBRANCH  18  20
ENDBRANCH   1  18
TORSDOF 8
