REMARK  Name = ZINC33868269
REMARK                            x       y       z     vdW  Elec       q    Type
REMARK                         _______ _______ _______ _____ _____    ______ ____
ROOT
ATOM      1  N   LIG    1        3.579   2.125   0.047  0.00  0.00    -0.254 N 
ATOM      2  H   LIG    1        3.562   3.095   0.033  0.00  0.00    +0.158 HD
ATOM      3  C   LIG    1        4.758   1.471   0.066  0.00  0.00    +0.403 C 
ATOM      4  O   LIG    1        4.781   0.255  -0.002  0.00  0.00    -0.230 OA
ENDROOT
BRANCH   1   7
ATOM      5  C   LIG    1        0.088   1.186   0.720  0.00  0.00    +0.003 A 
ATOM      6  C   LIG    1        1.272   1.899   0.722  0.00  0.00    +0.023 A 
ATOM      7  C   LIG    1        2.380   1.405   0.046  0.00  0.00    +0.038 A 
ATOM      8  C   LIG    1        2.295   0.194  -0.629  0.00  0.00    +0.043 A 
ATOM      9  C   LIG    1        1.108  -0.514  -0.628  0.00  0.00    +0.043 A 
ATOM     10 CL   LIG    1        1.000  -2.027  -1.473  0.00  0.00    -0.083 Cl
ATOM     11  C   LIG    1        0.006  -0.018   0.046  0.00  0.00    +0.020 A 
ENDBRANCH   1   7
BRANCH   3  12
ATOM     12  N   LIG    1        5.904   2.159   0.159  0.00  0.00    +0.014 NA
ATOM     13  C   LIG    1        6.281   2.662   1.323  0.00  0.00    +0.376 C 
BRANCH  13  14
ATOM     14  N   LIG    1        7.494   3.274   1.442  0.00  0.00    -0.291 N 
ATOM     15  H   LIG    1        7.771   3.642   2.296  0.00  0.00    +0.254 HD
ATOM     16  H   LIG    1        8.081   3.340   0.672  0.00  0.00    +0.254 HD
ENDBRANCH  13  14
BRANCH  13  17
ATOM     17  N   LIG    1        5.455   2.569   2.406  0.00  0.00    -0.291 N 
ATOM     18  H   LIG    1        5.699   3.001   3.240  0.00  0.00    +0.254 HD
ATOM     19  H   LIG    1        4.625   2.071   2.341  0.00  0.00    +0.254 HD
ENDBRANCH  13  17
ENDBRANCH   3  12
TORSDOF 4
