REMARK  Name = ZINC49089749
REMARK                            x       y       z     vdW  Elec       q    Type
REMARK                         _______ _______ _______ _____ _____    ______ ____
ROOT
ATOM      1  C   LIG    1        1.396  -4.106   2.223  0.00  0.00    +0.121 C 
ATOM      2  N   LIG    1        0.906  -4.940   1.346  0.00  0.00    -0.177 NA
ATOM      3  N   LIG    1        1.149  -6.263   1.714  0.00  0.00    -0.201 N 
ATOM      4  H   LIG    1        0.870  -7.040   1.205  0.00  0.00    +0.178 HD
ATOM      5  C   LIG    1        1.827  -6.308   2.879  0.00  0.00    +0.285 C 
ATOM      6  O   LIG    1        2.195  -7.306   3.473  0.00  0.00    -0.267 OA
ATOM      7  C   LIG    1        2.038  -4.909   3.284  0.00  0.00    +0.172 C 
ATOM      8  N   LIG    1        2.661  -4.469   4.360  0.00  0.00    -0.175 NA
ENDROOT
BRANCH   1  13
ATOM      9  C   LIG    1        0.626  -0.618   1.042  0.00  0.00    +0.121 A 
ATOM     10  C   LIG    1        1.202   0.140   2.051  0.00  0.00    +0.045 A 
ATOM     11  C   LIG    1        1.838  -0.480   3.111  0.00  0.00    +0.004 A 
ATOM     12  C   LIG    1        1.904  -1.857   3.171  0.00  0.00    +0.010 A 
ATOM     13  C   LIG    1        1.327  -2.627   2.161  0.00  0.00    +0.008 A 
ATOM     14  C   LIG    1        0.681  -2.001   1.096  0.00  0.00    +0.055 A 
BRANCH   9  16
ATOM     15  C   LIG    1       -0.017   1.425   0.010  0.00  0.00    +0.277 C 
ATOM     16  O   LIG    1        0.002  -0.004   0.002  0.00  0.00    -0.495 OA
ENDBRANCH   9  16
ENDBRANCH   1  13
BRANCH   8  17
ATOM     17  N   LIG    1        3.172  -5.306   5.198  0.00  0.00    -0.237 N 
ATOM     18  H   LIG    1        3.098  -6.260   5.036  0.00  0.00    +0.174 HD
BRANCH  17  19
ATOM     19  C   LIG    1        3.831  -4.841   6.336  0.00  0.00    +0.050 A 
ATOM     20  C   LIG    1        3.933  -3.474   6.572  0.00  0.00    +0.025 A 
ATOM     21  C   LIG    1        4.585  -3.017   7.699  0.00  0.00    +0.003 A 
ATOM     22  C   LIG    1        5.138  -3.916   8.594  0.00  0.00    +0.020 A 
ATOM     23  C   LIG    1        5.039  -5.277   8.363  0.00  0.00    +0.043 A 
ATOM     24 CL   LIG    1        5.734  -6.400   9.488  0.00  0.00    -0.083 Cl
ATOM     25  C   LIG    1        4.382  -5.742   7.239  0.00  0.00    +0.044 A 
ENDBRANCH  17  19
ENDBRANCH   8  17
TORSDOF 4
