REMARK  Name = ZINC26732938
REMARK                            x       y       z     vdW  Elec       q    Type
REMARK                         _______ _______ _______ _____ _____    ______ ____
ROOT
ATOM      1  C   LIG    1       -5.775   0.595   0.050  0.00  0.00    +0.077 C 
ENDROOT
BRANCH   1   2
ATOM      2  C   LIG    1       -4.638  -0.392   0.107  0.00  0.00    -0.034 A 
ATOM      3  C   LIG    1       -4.904  -1.750   0.152  0.00  0.00    +0.005 A 
ATOM      4  C   LIG    1       -3.867  -2.664   0.205  0.00  0.00    +0.001 A 
ATOM      5  C   LIG    1       -2.558  -2.228   0.207  0.00  0.00    +0.008 A 
ATOM      6  C   LIG    1       -2.282  -0.859   0.167  0.00  0.00    -0.025 A 
ATOM      7  C   LIG    1       -3.335   0.059   0.115  0.00  0.00    +0.012 A 
BRANCH   6   8
ATOM      8  C   LIG    1       -0.886  -0.385   0.176  0.00  0.00    +0.010 C 
ATOM      9  C   LIG    1        0.123  -1.269   0.227  0.00  0.00    +0.028 C 
BRANCH   9  10
ATOM     10  C   LIG    1        1.517  -0.796   0.229  0.00  0.00    +0.065 A 
ATOM     11  C   LIG    1        2.564  -1.736   0.276  0.00  0.00    +0.028 A 
ATOM     12  C   LIG    1        3.857  -1.310   0.278  0.00  0.00    +0.012 A 
ATOM     13  C   LIG    1        4.105   0.078   0.232  0.00  0.00    +0.001 A 
ATOM     14  C   LIG    1        5.415   0.582   0.232  0.00  0.00    +0.011 A 
ATOM     15  C   LIG    1        5.619   1.928   0.186  0.00  0.00    +0.021 A 
ATOM     16  C   LIG    1        4.543   2.814   0.140  0.00  0.00    +0.043 A 
ATOM     17 CL   LIG    1        4.844   4.522   0.083  0.00  0.00    -0.083 Cl
ATOM     18  C   LIG    1        3.259   2.358   0.139  0.00  0.00    +0.048 A 
ATOM     19  C   LIG    1        3.009   0.975   0.185  0.00  0.00    +0.073 A 
ATOM     20  N   LIG    1        1.760   0.503   0.180  0.00  0.00    -0.247 NA
ENDBRANCH   9  10
ENDBRANCH   6   8
ENDBRANCH   1   2
BRANCH   1  21
ATOM     21  S   LIG    1       -6.819   0.400   1.521  0.00  0.00    -0.152 S 
BRANCH  21  22
ATOM     22  C   LIG    1       -5.736   0.880   2.895  0.00  0.00    +0.076 C 
BRANCH  22  24
ATOM     23  C   LIG    1       -7.723   1.682   4.180  0.00  0.00    +0.012 C 
ATOM     24  C   LIG    1       -6.502   0.760   4.214  0.00  0.00    -0.016 C 
ATOM     25  C   LIG    1       -6.962  -0.687   4.407  0.00  0.00    +0.012 C 
BRANCH  24  26
ATOM     26  C   LIG    1       -5.589   1.164   5.373  0.00  0.00    +0.127 C 
BRANCH  26  27
ATOM     27  C   LIG    1       -6.343   1.046   6.672  0.00  0.00    +0.305 C 
ATOM     28  O   LIG    1       -7.494   0.676   6.671  0.00  0.00    -0.251 OA
BRANCH  27  29
ATOM     29  O   LIG    1       -5.738   1.351   7.830  0.00  0.00    -0.481 OA
ATOM     30  H   LIG    1       -4.845   1.638   7.831  0.00  0.00    +0.295 HD
ENDBRANCH  27  29
ENDBRANCH  26  27
ENDBRANCH  24  26
ENDBRANCH  22  24
ENDBRANCH  21  22
ENDBRANCH   1  21
BRANCH   1  31
ATOM     31  C   LIG    1       -6.610   0.339  -1.206  0.00  0.00    +0.023 C 
BRANCH  31  32
ATOM     32  C   LIG    1       -7.688   1.418  -1.330  0.00  0.00    +0.037 C 
BRANCH  32  33
ATOM     33  C   LIG    1       -8.427   1.242  -2.631  0.00  0.00    -0.041 A 
ATOM     34  C   LIG    1       -7.902   1.762  -3.800  0.00  0.00    +0.004 A 
ATOM     35  C   LIG    1       -8.578   1.597  -4.995  0.00  0.00    +0.000 A 
ATOM     36  C   LIG    1       -9.783   0.921  -5.019  0.00  0.00    +0.000 A 
ATOM     37  C   LIG    1      -10.310   0.405  -3.850  0.00  0.00    +0.007 A 
ATOM     38  C   LIG    1       -9.632   0.566  -2.656  0.00  0.00    -0.013 A 
BRANCH  38  39
ATOM     39  C   LIG    1      -10.208   0.004  -1.382  0.00  0.00    +0.086 C 
ATOM     40  C   LIG    1      -11.347  -0.961  -1.718  0.00  0.00    +0.046 C 
ATOM     41  C   LIG    1      -10.745   1.147  -0.518  0.00  0.00    +0.046 C 
BRANCH  39  42
ATOM     42  O   LIG    1       -9.187  -0.695  -0.666  0.00  0.00    -0.384 OA
ATOM     43  H   LIG    1       -9.421  -1.175   0.296  0.00  0.00    +0.211 HD
ENDBRANCH  39  42
ENDBRANCH  38  39
ENDBRANCH  32  33
ENDBRANCH  31  32
ENDBRANCH   1  31
TORSDOF 14
