REMARK  Name = ZINC40310084
REMARK                            x       y       z     vdW  Elec       q    Type
REMARK                         _______ _______ _______ _____ _____    ______ ____
ROOT
ATOM      1  C   LIG    1        0.064   1.388   0.038  0.00  0.00    +0.001 A 
ATOM      2  C   LIG    1        1.238   2.070   0.310  0.00  0.00    +0.002 A 
ATOM      3  C   LIG    1        2.417   1.385   0.523  0.00  0.00    +0.024 A 
ATOM      4  C   LIG    1        2.435  -0.005   0.467  0.00  0.00    +0.042 A 
ATOM      5  C   LIG    1        1.245  -0.691   0.192  0.00  0.00    +0.008 A 
ATOM      6  C   LIG    1        1.584  -2.132   0.200  0.00  0.00    +0.047 C 
ATOM      7  C   LIG    1        3.021  -2.185   0.493  0.00  0.00    +0.249 C 
ATOM      8  O   LIG    1        3.696  -3.195   0.589  0.00  0.00    -0.270 OA
ATOM      9  C   LIG    1        0.733  -3.196  -0.022  0.00  0.00    +0.023 C 
ATOM     10  N   LIG    1        3.463  -0.924   0.638  0.00  0.00    -0.281 N 
ATOM     11  H   LIG    1        4.382  -0.686   0.838  0.00  0.00    +0.155 HD
ATOM     12  C   LIG    1        0.063   0.009  -0.022  0.00  0.00    +0.010 A 
ENDROOT
BRANCH   9  13
ATOM     13  C   LIG    1        1.254  -4.507  -0.140  0.00  0.00    +0.002 A 
ATOM     14  C   LIG    1        2.449  -4.874  -0.724  0.00  0.00    +0.093 A 
ATOM     15  N   LIG    1        2.596  -6.219  -0.642  0.00  0.00    -0.345 N 
ATOM     16  C   LIG    1        1.516  -6.790  -0.006  0.00  0.00    +0.139 A 
ATOM     17  N   LIG    1        1.212  -8.045   0.302  0.00  0.00    -0.237 NA
ATOM     18  C   LIG    1        0.101  -8.352   0.936  0.00  0.00    +0.113 A 
ATOM     19  C   LIG    1       -0.816  -7.381   1.304  0.00  0.00    +0.020 A 
ATOM     20  C   LIG    1       -0.554  -6.055   1.006  0.00  0.00    +0.013 A 
ATOM     21  H   LIG    1        3.359  -6.712  -0.983  0.00  0.00    +0.167 HD
ATOM     22  C   LIG    1        0.632  -5.755   0.341  0.00  0.00    +0.026 A 
ENDBRANCH   9  13
TORSDOF 1
