REMARK  Name = ZINC21763183
REMARK                            x       y       z     vdW  Elec       q    Type
REMARK                         _______ _______ _______ _____ _____    ______ ____
ROOT
ATOM      1  N   LIG    1        6.597   1.167  -0.059  0.00  0.00    -0.292 NA
ATOM      2  C   LIG    1        7.194   0.667   1.188  0.00  0.00    +0.100 C 
ATOM      3  C   LIG    1        8.718   0.778   1.101  0.00  0.00    +0.100 C 
ATOM      4  N   LIG    1        9.092   2.180   0.866  0.00  0.00    -0.296 NA
ATOM      5  C   LIG    1        8.495   2.680  -0.381  0.00  0.00    +0.100 C 
ATOM      6  C   LIG    1        6.971   2.568  -0.294  0.00  0.00    +0.100 C 
ENDROOT
BRANCH   1   7
ATOM      7  C   LIG    1        5.137   1.006  -0.045  0.00  0.00    +0.181 C 
BRANCH   7  16
ATOM      8  C   LIG    1       -0.017   1.378   0.010  0.00  0.00    +0.000 A 
ATOM      9  C   LIG    1        1.174   2.082   0.002  0.00  0.00    +0.002 A 
ATOM     10  C   LIG    1        2.377   1.410  -0.013  0.00  0.00    +0.024 A 
ATOM     11  C   LIG    1        2.404   0.014  -0.022  0.00  0.00    +0.040 A 
ATOM     12  C   LIG    1        1.206  -0.682  -0.014  0.00  0.00    -0.024 A 
ATOM     13  C   LIG    1        1.510  -2.163  -0.025  0.00  0.00    +0.056 C 
ATOM     14  C   LIG    1        3.046  -2.243  -0.040  0.00  0.00    +0.118 C 
ATOM     15  N   LIG    1        3.503  -0.851  -0.037  0.00  0.00    -0.270 N 
ATOM     16  C   LIG    1        4.793  -0.461  -0.049  0.00  0.00    +0.234 C 
ATOM     17  O   LIG    1        5.677  -1.291  -0.062  0.00  0.00    -0.274 OA
ATOM     18  C   LIG    1        0.002  -0.004   0.002  0.00  0.00    +0.005 A 
ENDBRANCH   7  16
ENDBRANCH   1   7
BRANCH   4  19
ATOM     19  C   LIG    1       10.552   2.341   0.851  0.00  0.00    +0.119 C 
BRANCH  19  20
ATOM     20  C   LIG    1       10.896   3.808   0.856  0.00  0.00    -0.033 A 
ATOM     21  C   LIG    1       11.036   4.488  -0.340  0.00  0.00    +0.006 A 
ATOM     22  C   LIG    1       11.351   5.834  -0.337  0.00  0.00    +0.020 A 
ATOM     23  C   LIG    1       11.527   6.500   0.863  0.00  0.00    +0.041 A 
ATOM     24 CL   LIG    1       11.924   8.190   0.868  0.00  0.00    -0.084 Cl
ATOM     25  C   LIG    1       11.387   5.819   2.059  0.00  0.00    +0.020 A 
ATOM     26  C   LIG    1       11.066   4.474   2.055  0.00  0.00    +0.006 A 
ENDBRANCH  19  20
ENDBRANCH   4  19
TORSDOF 4
