REMARK  Name = ZINC13832607
REMARK                            x       y       z     vdW  Elec       q    Type
REMARK                         _______ _______ _______ _____ _____    ______ ____
ROOT
ATOM      1  N   LIG    1       -1.413  -1.998   0.005  0.00  0.00    -0.259 N 
ATOM      2  C   LIG    1       -1.393  -2.669   1.175  0.00  0.00    +0.282 A 
ATOM      3  C   LIG    1       -1.375  -4.081   1.161  0.00  0.00    +0.149 A 
ATOM      4  C   LIG    1       -1.378  -4.745  -0.059  0.00  0.00    +0.168 A 
ATOM      5  N   LIG    1       -1.399  -3.999  -1.227  0.00  0.00    -0.276 N 
ATOM      6  N   LIG    1       -1.358  -6.054   0.203  0.00  0.00    -0.214 NA
ATOM      7  C   LIG    1       -1.343  -6.247   1.497  0.00  0.00    +0.113 A 
ATOM      8  N   LIG    1       -1.353  -5.060   2.134  0.00  0.00    -0.336 N 
ATOM      9  H   LIG    1       -1.345  -4.915   3.123  0.00  0.00    +0.167 HD
ATOM     10  O   LIG    1       -1.391  -2.064   2.232  0.00  0.00    -0.265 OA
ATOM     11  C   LIG    1       -1.421  -2.654  -1.169  0.00  0.00    +0.334 A 
ATOM     12  O   LIG    1       -1.444  -2.017  -2.204  0.00  0.00    -0.246 OA
ENDROOT
BRANCH   7  13
ATOM     13  C   LIG    1       -1.319  -7.594   2.173  0.00  0.00    +0.055 C 
ATOM     14  C   LIG    1       -2.094  -7.530   3.506  0.00  0.00    +0.011 C 
ATOM     15  C   LIG    1       -1.281  -8.441   4.461  0.00  0.00    +0.001 C 
ATOM     16  C   LIG    1        0.184  -8.139   4.058  0.00  0.00    +0.001 C 
ATOM     17  C   LIG    1        0.129  -7.981   2.524  0.00  0.00    +0.011 C 
ENDBRANCH   7  13
BRANCH   1  18
ATOM     18  C   LIG    1       -1.433  -0.534   0.013  0.00  0.00    +0.130 C 
BRANCH  18  20
ATOM     19  C   LIG    1       -0.019   1.526   0.010  0.00  0.00    +0.005 C 
ATOM     20  C   LIG    1        0.002  -0.004   0.002  0.00  0.00    +0.018 C 
ENDBRANCH  18  20
ENDBRANCH   1  18
BRANCH   5  21
ATOM     21  C   LIG    1       -1.403  -4.675  -2.526  0.00  0.00    +0.133 C 
BRANCH  21  22
ATOM     22  C   LIG    1       -2.847  -4.929  -2.965  0.00  0.00    +0.057 C 
BRANCH  22  23
ATOM     23  C   LIG    1       -2.851  -5.624  -4.302  0.00  0.00    -0.046 A 
ATOM     24  C   LIG    1       -2.878  -4.880  -5.466  0.00  0.00    +0.005 A 
ATOM     25  C   LIG    1       -2.876  -5.514  -6.694  0.00  0.00    +0.023 A 
ATOM     26  C   LIG    1       -2.858  -6.901  -6.757  0.00  0.00    +0.025 A 
ATOM     27  C   LIG    1       -2.837  -7.646  -5.584  0.00  0.00    +0.023 A 
ATOM     28  C   LIG    1       -2.833  -7.006  -4.361  0.00  0.00    +0.005 A 
BRANCH  26  29
ATOM     29  N   LIG    1       -2.862  -7.546  -7.996  0.00  0.00    -0.358 N 
ATOM     30  H   LIG    1       -2.877  -7.024  -8.813  0.00  0.00    +0.142 HD
ATOM     31  H   LIG    1       -2.849  -8.515  -8.039  0.00  0.00    +0.142 HD
ENDBRANCH  26  29
ENDBRANCH  22  23
ENDBRANCH  21  22
ENDBRANCH   5  21
TORSDOF 7
