REMARK  Name = ZINC49021284
REMARK                            x       y       z     vdW  Elec       q    Type
REMARK                         _______ _______ _______ _____ _____    ______ ____
ROOT
ATOM      1  C   LIG    1        0.010   1.418   0.184  0.00  0.00    +0.028 C 
ATOM      2  C   LIG    1        0.025  -0.109   0.088  0.00  0.00    +0.073 C 
ATOM      3  C   LIG    1        0.735  -0.541  -1.202  0.00  0.00    +0.050 C 
ATOM      4  C   LIG    1        2.140   0.061  -1.218  0.00  0.00    +0.115 C 
ATOM      5  C   LIG    1        2.859  -0.243   0.069  0.00  0.00    -0.006 A 
ATOM      6  C   LIG    1        4.242  -0.175   0.096  0.00  0.00    +0.007 A 
ATOM      7  C   LIG    1        4.931  -0.446   1.262  0.00  0.00    +0.000 A 
ATOM      8  C   LIG    1        4.243  -0.786   2.413  0.00  0.00    +0.002 A 
ATOM      9  C   LIG    1        2.864  -0.857   2.394  0.00  0.00    +0.023 A 
ATOM     10  C   LIG    1        2.169  -0.586   1.221  0.00  0.00    +0.035 A 
ATOM     11  N   LIG    1        0.771  -0.671   1.222  0.00  0.00    -0.322 N 
ENDROOT
BRANCH   4  12
ATOM     12  N   LIG    1        2.897  -0.506  -2.337  0.00  0.00    -0.264 N 
ATOM     13  C   LIG    1        3.222  -1.814  -2.337  0.00  0.00    +0.217 C 
ATOM     14  C   LIG    1        2.712  -2.716  -1.243  0.00  0.00    +0.109 C 
ATOM     15  O   LIG    1        3.925  -2.264  -3.216  0.00  0.00    -0.276 OA
BRANCH  12  16
ATOM     16  C   LIG    1        3.282   0.311  -3.406  0.00  0.00    +0.037 A 
ATOM     17  C   LIG    1        4.621   0.405  -3.762  0.00  0.00    +0.023 A 
ATOM     18  C   LIG    1        4.999   1.211  -4.818  0.00  0.00    +0.002 A 
ATOM     19  C   LIG    1        4.045   1.924  -5.521  0.00  0.00    +0.000 A 
ATOM     20  C   LIG    1        2.711   1.833  -5.169  0.00  0.00    +0.002 A 
ATOM     21  C   LIG    1        2.326   1.024  -4.117  0.00  0.00    +0.023 A 
ENDBRANCH  12  16
ENDBRANCH   4  12
BRANCH  11  22
ATOM     22  C   LIG    1        0.064  -1.310   2.335  0.00  0.00    +0.140 C 
BRANCH  22  23
ATOM     23  C   LIG    1       -0.103  -2.780   2.046  0.00  0.00    -0.030 A 
ATOM     24  C   LIG    1       -1.223  -3.229   1.372  0.00  0.00    +0.005 A 
ATOM     25  C   LIG    1       -1.376  -4.577   1.107  0.00  0.00    +0.000 A 
ATOM     26  C   LIG    1       -0.408  -5.476   1.516  0.00  0.00    +0.000 A 
ATOM     27  C   LIG    1        0.712  -5.026   2.190  0.00  0.00    +0.000 A 
ATOM     28  C   LIG    1        0.867  -3.678   2.451  0.00  0.00    +0.005 A 
ENDBRANCH  22  23
ENDBRANCH  11  22
TORSDOF 4
