REMARK  Name = ZINC64475148
REMARK                            x       y       z     vdW  Elec       q    Type
REMARK                         _______ _______ _______ _____ _____    ______ ____
ROOT
ATOM      1  C   LIG    1        0.902  -2.037   1.028  0.00  0.00    +0.053 C 
ENDROOT
BRANCH   1   2
ATOM      2  C   LIG    1        1.625  -2.574   2.237  0.00  0.00    -0.028 A 
ATOM      3  C   LIG    1        2.999  -2.721   2.212  0.00  0.00    +0.005 A 
ATOM      4  C   LIG    1        3.662  -3.213   3.321  0.00  0.00    +0.000 A 
ATOM      5  C   LIG    1        2.951  -3.559   4.455  0.00  0.00    +0.001 A 
ATOM      6  C   LIG    1        1.577  -3.413   4.481  0.00  0.00    +0.020 A 
ATOM      7  C   LIG    1        0.913  -2.915   3.373  0.00  0.00    +0.044 A 
ATOM      8 CL   LIG    1       -0.812  -2.725   3.407  0.00  0.00    -0.083 Cl
ENDBRANCH   1   2
BRANCH   1   9
ATOM      9  C   LIG    1        0.706  -0.527   1.180  0.00  0.00    +0.106 C 
BRANCH   9  11
ATOM     10  C   LIG    1       -0.018   1.465   0.010  0.00  0.00    +0.123 C 
ATOM     11  N   LIG    1        0.002  -0.004   0.002  0.00  0.00    -0.248 NA
BRANCH  11  12
ATOM     12  N   LIG    1       -1.346  -0.543  -0.082  0.00  0.00    -0.268 NA
ATOM     13  H   LIG    1       -1.829  -0.183  -0.891  0.00  0.00    +0.137 HD
ATOM     14  H   LIG    1       -1.864  -0.353   0.763  0.00  0.00    +0.137 HD
ENDBRANCH  11  12
ENDBRANCH   9  11
ENDBRANCH   1   9
TORSDOF 4
