REMARK  Name = ZINC00007460
REMARK                            x       y       z     vdW  Elec       q    Type
REMARK                         _______ _______ _______ _____ _____    ______ ____
ROOT
ATOM      1  C   LIG    1        0.010   1.310  -0.666  0.00  0.00    +0.001 A 
ATOM      2  C   LIG    1        1.193   2.045  -0.674  0.00  0.00    +0.001 A 
ATOM      3  C   LIG    1        2.399   1.439  -0.475  0.00  0.00    +0.012 A 
ATOM      4  C   LIG    1        2.446   0.058  -0.262  0.00  0.00    +0.026 A 
ATOM      5  C   LIG    1        1.241  -0.692  -0.255  0.00  0.00    +0.009 A 
ATOM      6  C   LIG    1        1.334  -2.079  -0.036  0.00  0.00    +0.076 A 
ATOM      7  N   LIG    1        2.516  -2.619   0.151  0.00  0.00    -0.152 NA
ATOM      8  N   LIG    1        3.608  -1.949   0.145  0.00  0.00    -0.133 NA
ATOM      9  C   LIG    1        3.656  -0.642  -0.049  0.00  0.00    +0.153 A 
ATOM     10  C   LIG    1        0.020  -0.038  -0.461  0.00  0.00    +0.010 A 
ENDROOT
BRANCH   9  11
ATOM     11  N   LIG    1        4.868   0.028  -0.044  0.00  0.00    -0.298 N 
ATOM     12  H   LIG    1        4.887   0.996  -0.104  0.00  0.00    +0.154 HD
BRANCH  11  13
ATOM     13  C   LIG    1        6.064  -0.690   0.047  0.00  0.00    +0.033 A 
ATOM     14  C   LIG    1        6.175  -1.936  -0.556  0.00  0.00    +0.025 A 
ATOM     15  C   LIG    1        7.357  -2.644  -0.465  0.00  0.00    +0.022 A 
ATOM     16  C   LIG    1        8.431  -2.112   0.227  0.00  0.00    +0.041 A 
ATOM     17 CL   LIG    1        9.916  -3.005   0.341  0.00  0.00    -0.084 Cl
ATOM     18  C   LIG    1        8.324  -0.871   0.829  0.00  0.00    +0.022 A 
ATOM     19  C   LIG    1        7.146  -0.156   0.735  0.00  0.00    +0.025 A 
ENDBRANCH  11  13
ENDBRANCH   9  11
BRANCH   6  20
ATOM     20  C   LIG    1        0.093  -2.933  -0.015  0.00  0.00    +0.093 C 
BRANCH  20  21
ATOM     21  C   LIG    1       -0.198  -3.431  -1.408  0.00  0.00    -0.039 A 
ATOM     22  C   LIG    1       -0.998  -2.698  -2.271  0.00  0.00    +0.023 A 
ATOM     23  C   LIG    1       -1.242  -3.186  -3.540  0.00  0.00    +0.111 A 
ATOM     24  N   LIG    1       -0.726  -4.333  -3.933  0.00  0.00    -0.263 NA
ATOM     25  C   LIG    1        0.039  -5.057  -3.139  0.00  0.00    +0.111 A 
ATOM     26  C   LIG    1        0.333  -4.630  -1.858  0.00  0.00    +0.023 A 
ENDBRANCH  20  21
ENDBRANCH   6  20
TORSDOF 4
