REMARK  Name = ZINC22067501
REMARK                            x       y       z     vdW  Elec       q    Type
REMARK                         _______ _______ _______ _____ _____    ______ ____
ROOT
ATOM      1  C   LIG    1       -1.154  -0.552   0.090  0.00  0.00    +0.162 A 
ATOM      2  C   LIG    1       -2.312   0.172   0.082  0.00  0.00    +0.062 A 
ATOM      3  C   LIG    1       -3.544  -0.493   0.061  0.00  0.00    +0.044 A 
ATOM      4  C   LIG    1       -3.583  -1.909   0.050  0.00  0.00    +0.080 A 
ATOM      5  N   LIG    1       -4.778  -2.521   0.030  0.00  0.00    -0.235 NA
ATOM      6  C   LIG    1       -5.885  -1.818   0.021  0.00  0.00    +0.223 A 
ATOM      7  N   LIG    1       -5.898  -0.495   0.031  0.00  0.00    -0.220 NA
ATOM      8  C   LIG    1       -2.384  -2.631   0.059  0.00  0.00    +0.078 A 
ATOM      9  C   LIG    1       -4.773   0.209   0.051  0.00  0.00    +0.134 A 
ATOM     10  C   LIG    1       -1.184  -1.954   0.074  0.00  0.00    +0.164 A 
ENDROOT
BRANCH   1  12
ATOM     11  C   LIG    1        0.008   1.522   0.127  0.00  0.00    +0.277 C 
ATOM     12  O   LIG    1        0.043   0.094   0.110  0.00  0.00    -0.491 OA
ENDBRANCH   1  12
BRANCH   9  13
ATOM     13  N   LIG    1       -4.801   1.589   0.061  0.00  0.00    -0.299 N 
ATOM     14  H   LIG    1       -3.974   2.090   0.139  0.00  0.00    +0.154 HD
BRANCH  13  15
ATOM     15  C   LIG    1       -6.022   2.265  -0.041  0.00  0.00    +0.032 A 
ATOM     16  C   LIG    1       -6.095   3.467  -0.734  0.00  0.00    +0.025 A 
ATOM     17  C   LIG    1       -7.300   4.133  -0.834  0.00  0.00    +0.025 A 
ATOM     18  C   LIG    1       -8.439   3.603  -0.242  0.00  0.00    +0.034 A 
ATOM     19  C   LIG    1       -8.366   2.402   0.451  0.00  0.00    +0.025 A 
ATOM     20  C   LIG    1       -7.163   1.732   0.547  0.00  0.00    +0.025 A 
BRANCH  18  21
ATOM     21  N   LIG    1       -9.660   4.280  -0.343  0.00  0.00    -0.282 N 
ATOM     22  H   LIG    1      -10.288   4.261   0.396  0.00  0.00    +0.155 HD
ATOM     23  C   LIG    1       -9.964   4.957  -1.468  0.00  0.00    +0.248 C 
ATOM     24  O   LIG    1       -9.147   5.046  -2.363  0.00  0.00    -0.270 OA
BRANCH  23  25
ATOM     25  C   LIG    1      -11.291   5.592  -1.613  0.00  0.00    +0.037 A 
ATOM     26  C   LIG    1      -12.230   5.496  -0.584  0.00  0.00    +0.013 A 
ATOM     27  C   LIG    1      -13.467   6.091  -0.725  0.00  0.00    +0.001 A 
ATOM     28  C   LIG    1      -13.777   6.781  -1.883  0.00  0.00    +0.000 A 
ATOM     29  C   LIG    1      -12.852   6.879  -2.907  0.00  0.00    +0.001 A 
ATOM     30  C   LIG    1      -11.610   6.294  -2.776  0.00  0.00    +0.013 A 
ENDBRANCH  23  25
ENDBRANCH  18  21
ENDBRANCH  13  15
ENDBRANCH   9  13
BRANCH  10  31
ATOM     31  O   LIG    1       -0.019  -2.651   0.077  0.00  0.00    -0.488 OA
BRANCH  31  32
ATOM     32  C   LIG    1       -0.116  -4.077   0.059  0.00  0.00    +0.230 C 
BRANCH  32  33
ATOM     33  C   LIG    1        1.289  -4.684   0.066  0.00  0.00    +0.056 C 
BRANCH  33  34
ATOM     34  C   LIG    1        1.185  -6.210   0.047  0.00  0.00    +0.088 C 
BRANCH  34  35
ATOM     35  N   LIG    1        2.533  -6.793   0.053  0.00  0.00    -0.298 NA
ATOM     36  C   LIG    1        3.247  -6.482  -1.194  0.00  0.00    +0.112 C 
ATOM     37  C   LIG    1        4.665  -7.056  -1.120  0.00  0.00    +0.175 C 
ATOM     38  O   LIG    1        4.592  -8.463  -0.874  0.00  0.00    -0.377 OA
ATOM     39  C   LIG    1        3.904  -8.801   0.333  0.00  0.00    +0.175 C 
ATOM     40  C   LIG    1        2.478  -8.245   0.274  0.00  0.00    +0.112 C 
ENDBRANCH  34  35
ENDBRANCH  33  34
ENDBRANCH  32  33
ENDBRANCH  31  32
ENDBRANCH  10  31
TORSDOF 10
