REMARK  Name = ZINC00020439
REMARK                            x       y       z     vdW  Elec       q    Type
REMARK                         _______ _______ _______ _____ _____    ______ ____
ROOT
ATOM      1  C   LIG    1       -0.017   1.384   0.010  0.00  0.00    +0.004 A 
ATOM      2  C   LIG    1        1.159   2.102   0.002  0.00  0.00    +0.015 A 
ATOM      3  C   LIG    1        2.379   1.429  -0.013  0.00  0.00    +0.068 A 
ATOM      4  C   LIG    1        2.408   0.016  -0.021  0.00  0.00    +0.120 A 
ATOM      5  N   LIG    1        3.597  -0.618  -0.035  0.00  0.00    -0.225 NA
ATOM      6  C   LIG    1        4.727   0.041  -0.041  0.00  0.00    +0.142 A 
ATOM      7  N   LIG    1        4.794   1.408  -0.034  0.00  0.00    -0.306 N 
ATOM      8  H   LIG    1        5.658   1.848  -0.038  0.00  0.00    +0.170 HD
ATOM      9  C   LIG    1        1.199  -0.694  -0.014  0.00  0.00    +0.143 A 
ATOM     10  C   LIG    1        3.661   2.149  -0.020  0.00  0.00    +0.260 A 
ATOM     11  O   LIG    1        3.703   3.366  -0.015  0.00  0.00    -0.267 OA
ATOM     12  C   LIG    1        0.002  -0.004   0.002  0.00  0.00    +0.047 A 
ENDROOT
BRANCH   6  13
ATOM     13  C   LIG    1        5.990  -0.727  -0.056  0.00  0.00    +0.017 A 
ATOM     14  C   LIG    1        7.216  -0.059  -0.057  0.00  0.00    +0.014 A 
ATOM     15  C   LIG    1        8.391  -0.781  -0.071  0.00  0.00    +0.033 A 
ATOM     16  C   LIG    1        8.357  -2.164  -0.084  0.00  0.00    +0.122 A 
ATOM     17  C   LIG    1        7.145  -2.832  -0.082  0.00  0.00    +0.033 A 
ATOM     18  C   LIG    1        5.962  -2.122  -0.063  0.00  0.00    +0.014 A 
BRANCH  16  19
ATOM     19  N   LIG    1        9.621  -2.933  -0.099  0.00  0.00    +0.006 N 
ATOM     20  O   LIG    1       10.682  -2.352  -0.100  0.00  0.00    -0.130 OA
BRANCH  19  21
ATOM     21  O   LIG    1        9.594  -4.141  -0.110  0.00  0.00    -0.396 OA
ATOM     22  H   LIG    1        8.773  -4.592  -0.108  0.00  0.00    +0.329 HD
ENDBRANCH  19  21
ENDBRANCH  16  19
ENDBRANCH   6  13
BRANCH   9  23
ATOM     23  O   LIG    1        1.204  -2.053  -0.021  0.00  0.00    -0.505 OA
ATOM     24  H   LIG    1        2.017  -2.518  -0.032  0.00  0.00    +0.292 HD
ENDBRANCH   9  23
TORSDOF 4
