REMARK  Name = ZINC28714095
REMARK                            x       y       z     vdW  Elec       q    Type
REMARK                         _______ _______ _______ _____ _____    ______ ____
ROOT
ATOM      1  C   LIG    1        0.695   3.054   0.012  0.00  0.00    +0.097 A 
ATOM      2  C   LIG    1       -0.709   3.051   0.025  0.00  0.00    +0.010 A 
ATOM      3  C   LIG    1       -1.128   1.755   0.016  0.00  0.00    +0.070 A 
ATOM      4  C   LIG    1       -2.606   1.699   0.036  0.00  0.00    +0.004 A 
ATOM      5  C   LIG    1       -3.489   0.613   0.040  0.00  0.00    +0.011 A 
ATOM      6  C   LIG    1       -4.837   0.825   0.054  0.00  0.00    +0.014 A 
ATOM      7  C   LIG    1       -5.347   2.126   0.067  0.00  0.00    +0.037 A 
ATOM      8  C   LIG    1       -4.471   3.216   0.064  0.00  0.00    +0.017 A 
ATOM      9  C   LIG    1       -3.115   3.000   0.049  0.00  0.00    -0.033 A 
ATOM     10  N   LIG    1       -0.011   0.966   0.007  0.00  0.00    -0.276 N 
ATOM     11  H   LIG    1       -0.111  -0.130   0.006  0.00  0.00    +0.189 HD
ATOM     12  C   LIG    1       -1.931   3.936   0.042  0.00  0.00    +0.075 C 
ATOM     13  N   LIG    1        1.110   1.804   0.001  0.00  0.00    -0.173 NA
ENDROOT
BRANCH   1  16
ATOM     14  C   LIG    1        3.584   5.360   0.688  0.00  0.00    +0.009 A 
ATOM     15  C   LIG    1        2.779   4.242   0.691  0.00  0.00    +0.011 A 
ATOM     16  C   LIG    1        1.562   4.259   0.010  0.00  0.00    +0.002 A 
ATOM     17  C   LIG    1        1.163   5.404  -0.677  0.00  0.00    +0.011 A 
ATOM     18  C   LIG    1        1.965   6.524  -0.675  0.00  0.00    +0.009 A 
ATOM     19  C   LIG    1        3.183   6.508   0.005  0.00  0.00    -0.018 A 
BRANCH  19  20
ATOM     20  C   LIG    1        4.050   7.711   0.003  0.00  0.00    -0.018 A 
ATOM     21  C   LIG    1        5.264   7.698   0.686  0.00  0.00    +0.012 A 
ATOM     22  C   LIG    1        6.071   8.816   0.677  0.00  0.00    +0.046 A 
ATOM     23  C   LIG    1        5.670   9.958  -0.003  0.00  0.00    +0.117 A 
ATOM     24  C   LIG    1        4.458   9.976  -0.680  0.00  0.00    +0.046 A 
ATOM     25  C   LIG    1        3.649   8.859  -0.680  0.00  0.00    +0.012 A 
BRANCH  23  26
ATOM     26  O   LIG    1        6.464  11.060  -0.006  0.00  0.00    -0.507 OA
ATOM     27  H   LIG    1        6.147  11.965  -0.545  0.00  0.00    +0.292 HD
ENDBRANCH  23  26
ENDBRANCH  19  20
ENDBRANCH   1  16
BRANCH   7  28
ATOM     28  C   LIG    1       -6.807   2.349   0.082  0.00  0.00    +0.244 C 
ATOM     29  N   LIG    1       -7.649   1.297   0.085  0.00  0.00    -0.308 N 
ATOM     30  H   LIG    1       -7.250   0.272   0.076  0.00  0.00    +0.149 HD
ATOM     31  O   LIG    1       -7.249   3.482   0.092  0.00  0.00    -0.270 OA
BRANCH  29  32
ATOM     32  C   LIG    1       -9.098   1.518   0.100  0.00  0.00    +0.073 C 
ATOM     33  C   LIG    1       -9.569   1.712   1.543  0.00  0.00    +0.025 C 
ATOM     34  C   LIG    1      -11.081   1.944   1.559  0.00  0.00    +0.033 C 
ATOM     35  C   LIG    1      -11.789   0.732   0.950  0.00  0.00    +0.115 C 
ATOM     36  C   LIG    1      -11.318   0.538  -0.492  0.00  0.00    +0.033 C 
ATOM     37  C   LIG    1       -9.805   0.306  -0.508  0.00  0.00    +0.025 C 
BRANCH  35  38
ATOM     38  O   LIG    1      -13.201   0.948   0.965  0.00  0.00    -0.392 OA
ATOM     39  H   LIG    1      -13.879   0.179   0.565  0.00  0.00    +0.210 HD
ENDBRANCH  35  38
ENDBRANCH  29  32
ENDBRANCH   7  28
TORSDOF 6
