REMARK  Name = ZINC28456868
REMARK                            x       y       z     vdW  Elec       q    Type
REMARK                         _______ _______ _______ _____ _____    ______ ____
ROOT
ATOM      1  N   LIG    1       -6.454   1.725   7.832  0.00  0.00    -0.346 N 
ATOM      2  C   LIG    1       -6.035   1.884   6.562  0.00  0.00    +0.098 A 
ATOM      3  C   LIG    1       -5.231   0.823   6.203  0.00  0.00    +0.043 A 
ATOM      4  C   LIG    1       -5.169  -0.063   7.382  0.00  0.00    +0.010 A 
ATOM      5  C   LIG    1       -4.527  -1.268   7.653  0.00  0.00    +0.011 A 
ATOM      6  C   LIG    1       -4.669  -1.853   8.893  0.00  0.00    +0.001 A 
ATOM      7  C   LIG    1       -5.445  -1.244   9.868  0.00  0.00    +0.002 A 
ATOM      8  C   LIG    1       -6.082  -0.049   9.614  0.00  0.00    +0.026 A 
ATOM      9  C   LIG    1       -5.950   0.558   8.370  0.00  0.00    +0.050 A 
ENDROOT
BRANCH   3  10
ATOM     10  C   LIG    1       -4.596   0.621   4.952  0.00  0.00    +0.169 C 
ATOM     11  O   LIG    1       -3.911  -0.365   4.771  0.00  0.00    -0.292 OA
BRANCH  10  12
ATOM     12  C   LIG    1       -4.771   1.630   3.847  0.00  0.00    +0.115 C 
BRANCH  12  13
ATOM     13  C   LIG    1       -3.999   1.183   2.632  0.00  0.00    -0.036 A 
ATOM     14  C   LIG    1       -4.608   0.382   1.683  0.00  0.00    +0.004 A 
ATOM     15  C   LIG    1       -3.902  -0.029   0.567  0.00  0.00    +0.004 A 
ATOM     16  C   LIG    1       -2.587   0.360   0.398  0.00  0.00    +0.045 A 
ATOM     17  C   LIG    1       -1.975   1.163   1.348  0.00  0.00    +0.120 A 
ATOM     18  C   LIG    1       -2.683   1.570   2.470  0.00  0.00    +0.049 A 
BRANCH  17  19
ATOM     19  O   LIG    1       -0.682   1.547   1.184  0.00  0.00    -0.495 OA
ATOM     20  C   LIG    1       -0.013   1.086   0.008  0.00  0.00    +0.277 C 
ENDBRANCH  17  19
ENDBRANCH  12  13
ENDBRANCH  10  12
ENDBRANCH   3  10
BRANCH   1  21
ATOM     21  C   LIG    1       -7.327   2.661   8.544  0.00  0.00    +0.122 C 
BRANCH  21  22
ATOM     22  C   LIG    1       -6.473   3.630   9.365  0.00  0.00    +0.022 C 
BRANCH  22  23
ATOM     23  C   LIG    1       -7.384   4.608  10.110  0.00  0.00    +0.001 C 
BRANCH  23  25
ATOM     24  C   LIG    1       -7.442   6.554  11.675  0.00  0.00    +0.004 C 
ATOM     25  C   LIG    1       -6.530   5.576  10.931  0.00  0.00    -0.003 C 
ENDBRANCH  23  25
ENDBRANCH  22  23
ENDBRANCH  21  22
ENDBRANCH   1  21
TORSDOF 8
