REMARK  Name = ZINC71754993
REMARK                            x       y       z     vdW  Elec       q    Type
REMARK                         _______ _______ _______ _____ _____    ______ ____
ROOT
ATOM      1  C   LIG    1       -2.872  -1.394  -0.289  0.00  0.00    +0.081 C 
ATOM      2  C   LIG    1       -4.204  -2.150  -0.374  0.00  0.00    -0.061 C 
ATOM      3  N   LIG    1       -4.150  -3.057  -1.522  0.00  0.00    +0.383 N 
ATOM      4  H   LIG    1       -3.911  -2.529  -2.348  0.00  0.00    -0.081 HD
ATOM      5  C   LIG    1       -5.473  -3.666  -1.712  0.00  0.00    -0.095 C 
ATOM      6  C   LIG    1       -3.165  -4.113  -1.332  0.00  0.00    -0.033 C 
ATOM      7  C   LIG    1       -2.910  -4.822  -2.670  0.00  0.00    +0.026 C 
ATOM      8  C   LIG    1       -1.806  -5.832  -2.500  0.00  0.00    -0.023 A 
ATOM      9  C   LIG    1       -1.454  -6.955  -3.118  0.00  0.00    +0.087 A 
ATOM     10  N   LIG    1       -0.315  -7.488  -2.535  0.00  0.00    -0.360 N 
ATOM     11  C   LIG    1        0.102  -6.704  -1.502  0.00  0.00    +0.047 A 
ATOM     12  C   LIG    1        1.138  -6.699  -0.569  0.00  0.00    +0.026 A 
ATOM     13  C   LIG    1        1.173  -5.654   0.346  0.00  0.00    +0.003 A 
ATOM     14  C   LIG    1        0.242  -4.619   0.392  0.00  0.00    +0.009 A 
ATOM     15  C   LIG    1       -0.795  -4.594  -0.512  0.00  0.00    -0.014 A 
ATOM     16  H   LIG    1        0.123  -8.305  -2.821  0.00  0.00    +0.165 HD
ATOM     17  C   LIG    1       -0.817  -5.652  -1.445  0.00  0.00    +0.010 A 
ATOM     18  C   LIG    1       -1.902  -3.632  -0.671  0.00  0.00    -0.056 C 
ATOM     19  C   LIG    1       -1.763  -2.407  -0.188  0.00  0.00    -0.014 C 
ENDROOT
BRANCH   1  21
ATOM     20  N   LIG    1       -3.212   0.788   0.824  0.00  0.00    -0.302 N 
ATOM     21  C   LIG    1       -2.866  -0.510   0.931  0.00  0.00    +0.221 C 
ATOM     22  O   LIG    1       -2.550  -0.966   2.010  0.00  0.00    -0.275 OA
BRANCH  20  24
ATOM     23  C   LIG    1       -4.413   1.654   2.771  0.00  0.00    +0.024 C 
ATOM     24  C   LIG    1       -3.100   1.675   1.986  0.00  0.00    +0.104 C 
ENDBRANCH  20  24
BRANCH  20  25
ATOM     25  C   LIG    1       -3.700   1.314  -0.453  0.00  0.00    +0.104 C 
ATOM     26  C   LIG    1       -2.518   1.826  -1.279  0.00  0.00    +0.024 C 
ENDBRANCH  20  25
ENDBRANCH   1  21
TORSDOF 3
