REMARK  Name = ZINC58245446
REMARK                            x       y       z     vdW  Elec       q    Type
REMARK                         _______ _______ _______ _____ _____    ______ ____
ROOT
ATOM      1  C   LIG    1       -2.571  -2.688   0.012  0.00  0.00    +0.093 C 
ENDROOT
BRANCH   1   2
ATOM      2  C   LIG    1       -1.136  -2.159   0.001  0.00  0.00    +0.115 C 
BRANCH   2   5
ATOM      3  C   LIG    1       -0.018   1.503   0.010  0.00  0.00    +0.109 C 
ATOM      4  C   LIG    1        0.002  -0.004   0.002  0.00  0.00    +0.210 C 
ATOM      5  N   LIG    1       -1.156  -0.694   0.009  0.00  0.00    -0.315 N 
ATOM      6  H   LIG    1       -2.002  -0.220   0.020  0.00  0.00    +0.149 HD
ATOM      7  O   LIG    1        1.060  -0.596  -0.011  0.00  0.00    -0.276 OA
ENDBRANCH   2   5
ENDBRANCH   1   2
BRANCH   1   8
ATOM      8  S   LIG    1       -2.547  -4.502   0.002  0.00  0.00    -0.124 S 
BRANCH   8   9
ATOM      9  C   LIG    1       -4.250  -4.952   0.016  0.00  0.00    +0.008 A 
ATOM     10  C   LIG    1       -5.231  -3.966   0.025  0.00  0.00    +0.015 A 
ATOM     11  C   LIG    1       -6.565  -4.322   0.036  0.00  0.00    +0.001 A 
ATOM     12  C   LIG    1       -6.926  -5.657   0.038  0.00  0.00    +0.000 A 
ATOM     13  C   LIG    1       -5.953  -6.641   0.029  0.00  0.00    +0.001 A 
ATOM     14  C   LIG    1       -4.617  -6.292   0.012  0.00  0.00    +0.015 A 
ENDBRANCH   8   9
ENDBRANCH   1   8
TORSDOF 4
