REMARK  Name = ZINC16713007
REMARK                            x       y       z     vdW  Elec       q    Type
REMARK                         _______ _______ _______ _____ _____    ______ ____
ROOT
ATOM      1  C   LIG    1       -5.005   4.103   0.050  0.00  0.00    +0.136 A 
ATOM      2  C   LIG    1       -5.152   5.505   0.058  0.00  0.00    +0.050 A 
ATOM      3  C   LIG    1       -6.485   5.779   0.067  0.00  0.00    +0.050 A 
ATOM      4  C   LIG    1       -7.171   4.481   0.064  0.00  0.00    +0.130 A 
ATOM      5  O   LIG    1       -6.216   3.524   0.047  0.00  0.00    -0.455 OA
ENDROOT
BRANCH   4   6
ATOM      6  C   LIG    1       -8.538   4.277   0.071  0.00  0.00    +0.063 C 
ATOM      7  C   LIG    1       -9.054   2.965   0.066  0.00  0.00    +0.049 C 
ATOM      8  C   LIG    1      -10.465   2.513   0.078  0.00  0.00    +0.093 C 
ATOM      9  N   LIG    1      -10.665   1.205   0.066  0.00  0.00    -0.269 N 
ATOM     10  H   LIG    1      -11.569   0.854   0.069  0.00  0.00    +0.156 HD
ATOM     11  C   LIG    1       -9.615   0.359   0.055  0.00  0.00    +0.281 C 
ATOM     12  O   LIG    1       -9.627  -0.856   0.048  0.00  0.00    -0.262 OA
ATOM     13  S   LIG    1      -11.767   3.624   0.102  0.00  0.00    -0.034 S 
ATOM     14  S   LIG    1       -8.204   1.451   0.053  0.00  0.00    -0.029 S 
ENDBRANCH   4   6
BRANCH   1  20
ATOM     15  C   LIG    1       -3.703   1.984   0.031  0.00  0.00    +0.014 A 
ATOM     16  C   LIG    1       -2.496   1.321   0.021  0.00  0.00    +0.033 A 
ATOM     17  C   LIG    1       -1.308   2.035   0.019  0.00  0.00    +0.122 A 
ATOM     18  C   LIG    1       -1.321   3.422   0.033  0.00  0.00    +0.033 A 
ATOM     19  C   LIG    1       -2.517   4.103   0.036  0.00  0.00    +0.014 A 
ATOM     20  C   LIG    1       -3.727   3.389   0.039  0.00  0.00    +0.017 A 
BRANCH  17  21
ATOM     21  N   LIG    1       -0.016   1.313   0.009  0.00  0.00    +0.006 N 
ATOM     22  O   LIG    1        0.002  -0.004   0.002  0.00  0.00    -0.130 OA
BRANCH  21  23
ATOM     23  O   LIG    1        1.116   1.987   0.002  0.00  0.00    -0.396 OA
ATOM     24  H   LIG    1        1.103   2.924   0.007  0.00  0.00    +0.329 HD
ENDBRANCH  21  23
ENDBRANCH  17  21
ENDBRANCH   1  20
TORSDOF 4
