REMARK  Name = ZINC19804780
REMARK                            x       y       z     vdW  Elec       q    Type
REMARK                         _______ _______ _______ _____ _____    ______ ____
ROOT
ATOM      1  C   LIG    1        4.694   4.421  -0.019  0.00  0.00    +0.137 A 
ATOM      2  C   LIG    1        5.682   3.414  -0.034  0.00  0.00    +0.050 A 
ATOM      3  C   LIG    1        5.044   2.212  -0.028  0.00  0.00    +0.050 A 
ATOM      4  C   LIG    1        3.607   2.509  -0.019  0.00  0.00    +0.130 A 
ATOM      5  O   LIG    1        3.476   3.854  -0.010  0.00  0.00    -0.455 OA
ENDROOT
BRANCH   1   8
ATOM      6  C   LIG    1        6.096   7.768   0.908  0.00  0.00    +0.033 A 
ATOM      7  C   LIG    1        5.854   6.413   0.914  0.00  0.00    +0.015 A 
ATOM      8  C   LIG    1        4.955   5.860  -0.014  0.00  0.00    +0.031 A 
ATOM      9  C   LIG    1        4.303   6.702  -0.935  0.00  0.00    +0.031 A 
ATOM     10 BR   LIG    1        3.084   5.977  -2.186  0.00  0.00    -0.049 Br
ATOM     11  C   LIG    1        4.557   8.056  -0.920  0.00  0.00    +0.048 A 
ATOM     12  C   LIG    1        5.449   8.589  -0.004  0.00  0.00    +0.123 A 
BRANCH  12  13
ATOM     13  N   LIG    1        5.714  10.045   0.003  0.00  0.00    +0.006 N 
ATOM     14  O   LIG    1        5.102  10.829  -0.861  0.00  0.00    -0.130 OA
BRANCH  13  15
ATOM     15  O   LIG    1        6.561  10.557   0.872  0.00  0.00    -0.396 OA
ATOM     16  H   LIG    1        6.996   9.999   1.486  0.00  0.00    +0.329 HD
ENDBRANCH  13  15
ENDBRANCH  12  13
ENDBRANCH   1   8
BRANCH   4  17
ATOM     17  C   LIG    1        2.577   1.582  -0.014  0.00  0.00    +0.066 C 
ATOM     18  C   LIG    1        1.242   2.017   0.001  0.00  0.00    +0.077 C 
ATOM     19  C   LIG    1       -0.014   1.210   0.009  0.00  0.00    +0.217 C 
ATOM     20  N   LIG    1       -1.147   1.895   0.018  0.00  0.00    -0.165 NA
ATOM     21  C   LIG    1       -1.126   3.243   0.029  0.00  0.00    +0.139 C 
ATOM     22  S   LIG    1       -2.455   4.322   0.047  0.00  0.00    -0.026 S 
ATOM     23  S   LIG    1        0.614   3.636   0.015  0.00  0.00    -0.060 S 
BRANCH  19  24
ATOM     24  O   LIG    1        0.002  -0.004   0.002  0.00  0.00    -0.493 OA
ATOM     25  H   LIG    1        0.820  -0.462  -0.004  0.00  0.00    +0.294 HD
ENDBRANCH  19  24
ENDBRANCH   4  17
TORSDOF 5
