REMARK  Name = ZINC26168033
REMARK                            x       y       z     vdW  Elec       q    Type
REMARK                         _______ _______ _______ _____ _____    ______ ____
ROOT
ATOM      1  C   LIG    1        1.188   6.048   0.024  0.00  0.00    +0.121 A 
ATOM      2  C   LIG    1        2.385   5.335   0.008  0.00  0.00    +0.047 A 
ATOM      3  C   LIG    1        2.381   3.958   0.001  0.00  0.00    +0.030 A 
ATOM      4  C   LIG    1        1.175   3.266   0.009  0.00  0.00    +0.053 A 
ATOM      5  C   LIG    1       -0.037   3.982   0.024  0.00  0.00    +0.002 A 
ATOM      6  C   LIG    1       -1.300   3.241   0.032  0.00  0.00    +0.015 A 
ATOM      7  C   LIG    1       -1.256   1.886   0.018  0.00  0.00    +0.071 A 
ATOM      8  C   LIG    1       -0.015   1.215   0.009  0.00  0.00    +0.252 A 
ATOM      9  O   LIG    1        0.002  -0.004   0.002  0.00  0.00    -0.268 OA
ATOM     10  N   LIG    1        1.150   1.886   0.001  0.00  0.00    -0.297 N 
ATOM     11  C   LIG    1       -0.020   5.381   0.032  0.00  0.00    +0.055 A 
ENDROOT
BRANCH   1  13
ATOM     12  C   LIG    1        2.494   8.035   0.022  0.00  0.00    +0.277 C 
ATOM     13  O   LIG    1        1.210   7.407   0.031  0.00  0.00    -0.495 OA
ENDBRANCH   1  13
BRANCH  10  14
ATOM     14  C   LIG    1        2.412   1.142  -0.015  0.00  0.00    +0.245 C 
BRANCH  14  15
ATOM     15  C   LIG    1        2.831   0.894  -1.441  0.00  0.00    +0.325 C 
ATOM     16  O   LIG    1        2.146   1.298  -2.351  0.00  0.00    -0.249 OA
BRANCH  15  17
ATOM     17  O   LIG    1        3.966   0.225  -1.701  0.00  0.00    -0.479 OA
ATOM     18  H   LIG    1        4.497  -0.088  -0.995  0.00  0.00    +0.295 HD
ENDBRANCH  15  17
ENDBRANCH  14  15
ENDBRANCH  10  14
TORSDOF 4
