REMARK  Name = ZINC34977910
REMARK                            x       y       z     vdW  Elec       q    Type
REMARK                         _______ _______ _______ _____ _____    ______ ____
ROOT
ATOM      1  C   LIG    1       -1.033  -0.738  -0.208  0.00  0.00    -0.020 C 
ATOM      2  C   LIG    1       -1.297  -0.057   1.149  0.00  0.00    +0.010 C 
ATOM      3  C   LIG    1       -2.380  -0.775   1.977  0.00  0.00    +0.001 C 
ATOM      4  C   LIG    1       -3.549  -1.215   1.138  0.00  0.00    +0.000 C 
ATOM      5  C   LIG    1       -3.318  -2.677   0.704  0.00  0.00    +0.000 C 
ATOM      6  C   LIG    1       -2.408  -2.782  -0.427  0.00  0.00    +0.001 C 
ATOM      7  C   LIG    1       -1.002  -2.239  -0.103  0.00  0.00    +0.010 C 
ENDROOT
BRANCH   1  15
ATOM      8  C   LIG    1        0.792  -0.788  -1.919  0.00  0.00    +0.005 A 
ATOM      9  C   LIG    1        2.006  -0.348  -2.413  0.00  0.00    +0.022 A 
ATOM     10  C   LIG    1        2.720   0.621  -1.733  0.00  0.00    +0.059 A 
ATOM     11 CL   LIG    1        4.245   1.173  -2.352  0.00  0.00    -0.082 Cl
ATOM     12  C   LIG    1        2.217   1.151  -0.556  0.00  0.00    +0.060 A 
ATOM     13 CL   LIG    1        3.112   2.368   0.300  0.00  0.00    -0.082 Cl
ATOM     14  C   LIG    1        1.003   0.711  -0.063  0.00  0.00    +0.025 A 
ATOM     15  C   LIG    1        0.291  -0.259  -0.745  0.00  0.00    -0.042 A 
ENDBRANCH   1  15
BRANCH   1  16
ATOM     16  C   LIG    1       -2.139  -0.333  -1.185  0.00  0.00    -0.075 C 
BRANCH  16  17
ATOM     17  N   LIG    1       -2.316   1.125  -1.149  0.00  0.00    +0.379 N 
ATOM     18  H   LIG    1       -2.941   1.406  -1.889  0.00  0.00    -0.090 HD
ATOM     19  H   LIG    1       -1.422   1.575  -1.273  0.00  0.00    -0.090 HD
ATOM     20  H   LIG    1       -2.707   1.394  -0.258  0.00  0.00    -0.090 HD
ENDBRANCH  16  17
ENDBRANCH   1  16
TORSDOF 3
