REMARK  Name = ZINC28236639
REMARK                            x       y       z     vdW  Elec       q    Type
REMARK                         _______ _______ _______ _____ _____    ______ ____
ROOT
ATOM      1  C   LIG    1       -1.072   3.040  -3.645  0.00  0.00    -0.010 C 
ATOM      2  C   LIG    1       -0.907   1.518  -3.624  0.00  0.00    -0.015 C 
ATOM      3  C   LIG    1       -0.063   1.117  -2.412  0.00  0.00    -0.078 C 
ATOM      4  N   LIG    1       -0.723   1.572  -1.182  0.00  0.00    +0.383 N 
ATOM      5  H   LIG    1       -1.738   1.147  -1.169  0.00  0.00    -0.081 HD
ATOM      6  C   LIG    1       -0.850   3.035  -1.158  0.00  0.00    -0.078 C 
ATOM      7  C   LIG    1       -1.718   3.493  -2.332  0.00  0.00    -0.015 C 
ENDROOT
BRANCH   4   8
ATOM      8  C   LIG    1       -0.013   1.086   0.008  0.00  0.00    -0.040 C 
ATOM      9  C   LIG    1        1.423   1.615  -0.003  0.00  0.00    -0.013 C 
ATOM     10  C   LIG    1        2.163   1.109   1.237  0.00  0.00    -0.001 C 
ATOM     11  C   LIG    1        1.446   1.602   2.495  0.00  0.00    +0.002 C 
ATOM     12  C   LIG    1        0.011   1.072   2.506  0.00  0.00    +0.030 C 
ATOM     13  C   LIG    1       -0.729   1.579   1.267  0.00  0.00    +0.101 C 
BRANCH  13  14
ATOM     14  O   LIG    1       -2.070   1.085   1.277  0.00  0.00    -0.393 OA
ATOM     15  H   LIG    1       -2.742   1.337   2.110  0.00  0.00    +0.210 HD
ENDBRANCH  13  14
ENDBRANCH   4   8
BRANCH   1  16
ATOM     16  C   LIG    1       -1.964   3.442  -4.821  0.00  0.00    +0.038 C 
BRANCH  16  20
ATOM     17  C   LIG    1       -2.142   7.701  -5.084  0.00  0.00    +0.000 A 
ATOM     18  C   LIG    1       -1.160   7.007  -5.766  0.00  0.00    +0.000 A 
ATOM     19  C   LIG    1       -1.103   5.628  -5.681  0.00  0.00    +0.003 A 
ATOM     20  C   LIG    1       -2.027   4.944  -4.913  0.00  0.00    -0.047 A 
ATOM     21  C   LIG    1       -3.012   5.638  -4.236  0.00  0.00    +0.003 A 
ATOM     22  C   LIG    1       -3.066   7.017  -4.317  0.00  0.00    +0.000 A 
ENDBRANCH  16  20
ENDBRANCH   1  16
TORSDOF 4
