REMARK  Name = ZINC36177752
REMARK                            x       y       z     vdW  Elec       q    Type
REMARK                         _______ _______ _______ _____ _____    ______ ____
ROOT
ATOM      1  C   LIG    1        0.074   1.436   0.967  0.00  0.00    +0.033 A 
ATOM      2  C   LIG    1        1.229   2.137   0.670  0.00  0.00    +0.011 A 
ATOM      3  C   LIG    1        2.437   1.462   0.536  0.00  0.00    -0.007 A 
ATOM      4  C   LIG    1        2.472   0.066   0.705  0.00  0.00    -0.005 A 
ATOM      5  C   LIG    1        3.867  -0.379   0.508  0.00  0.00    +0.018 C 
ATOM      6  C   LIG    1        4.671   0.824   0.211  0.00  0.00    -0.003 A 
ATOM      7  C   LIG    1        6.026   1.004  -0.058  0.00  0.00    +0.042 A 
ATOM      8  C   LIG    1        6.516   2.272  -0.306  0.00  0.00    +0.124 A 
ATOM      9  C   LIG    1        5.668   3.365  -0.289  0.00  0.00    +0.065 A 
ATOM     10  C   LIG    1        4.319   3.203  -0.024  0.00  0.00    +0.132 A 
ATOM     11  C   LIG    1        4.333  -1.681   0.586  0.00  0.00    +0.136 C 
ATOM     12  C   LIG    1        1.301  -0.625   1.004  0.00  0.00    +0.041 A 
ATOM     13  C   LIG    1        3.808   1.935   0.228  0.00  0.00    +0.021 A 
ATOM     14  C   LIG    1        0.109   0.063   1.133  0.00  0.00    +0.122 A 
ENDROOT
BRANCH   8  15
ATOM     15  N   LIG    1        7.956   2.463  -0.592  0.00  0.00    +0.006 N 
ATOM     16  O   LIG    1        8.388   3.571  -0.809  0.00  0.00    -0.130 OA
BRANCH  15  17
ATOM     17  O   LIG    1        8.700   1.510  -0.607  0.00  0.00    -0.396 OA
ATOM     18  H   LIG    1        8.365   0.651  -0.438  0.00  0.00    +0.329 HD
ENDBRANCH  15  17
ENDBRANCH   8  15
BRANCH  10  19
ATOM     19  N   LIG    1        3.421   4.379  -0.009  0.00  0.00    +0.007 N 
ATOM     20  O   LIG    1        3.523   5.228  -0.863  0.00  0.00    -0.130 OA
BRANCH  19  21
ATOM     21  O   LIG    1        2.586   4.491   0.858  0.00  0.00    -0.396 OA
ATOM     22  H   LIG    1        2.507   3.833   1.520  0.00  0.00    +0.329 HD
ENDBRANCH  19  21
ENDBRANCH  10  19
BRANCH  11  23
ATOM     23  C   LIG    1        5.721  -1.959   0.368  0.00  0.00    +0.111 C 
ATOM     24  N   LIG    1        6.822  -2.179   0.196  0.00  0.00    -0.190 NA
ENDBRANCH  11  23
BRANCH  11  25
ATOM     25  C   LIG    1        3.428  -2.750   0.884  0.00  0.00    +0.111 C 
ATOM     26  N   LIG    1        2.709  -3.597   1.120  0.00  0.00    -0.190 NA
ENDBRANCH  11  25
BRANCH  14  27
ATOM     27  N   LIG    1       -1.136  -0.672   1.450  0.00  0.00    +0.006 N 
ATOM     28  O   LIG    1       -2.180  -0.073   1.564  0.00  0.00    -0.130 OA
BRANCH  27  29
ATOM     29  O   LIG    1       -1.109  -1.872   1.595  0.00  0.00    -0.396 OA
ATOM     30  H   LIG    1       -0.300  -2.337   1.507  0.00  0.00    +0.329 HD
ENDBRANCH  27  29
ENDBRANCH  14  27
TORSDOF 8
