REMARK  Name = ZINC31982451
REMARK                            x       y       z     vdW  Elec       q    Type
REMARK                         _______ _______ _______ _____ _____    ______ ____
ROOT
ATOM      1  N   LIG    1        2.174   0.063   3.683  0.00  0.00    +0.380 N 
ATOM      2  H   LIG    1        2.102   1.157   3.591  0.00  0.00    -0.082 HD
ATOM      3  C   LIG    1        2.894  -0.439   2.505  0.00  0.00    -0.078 C 
ATOM      4  C   LIG    1        2.178   0.021   1.234  0.00  0.00    -0.012 C 
ATOM      5  C   LIG    1        0.742  -0.511   1.242  0.00  0.00    +0.026 C 
ATOM      6  C   LIG    1        0.028  -0.015   2.502  0.00  0.00    -0.012 C 
ATOM      7  C   LIG    1        0.808  -0.472   3.737  0.00  0.00    -0.078 C 
ENDROOT
BRANCH   1   8
ATOM      8  C   LIG    1        2.908  -0.242   4.918  0.00  0.00    -0.078 C 
BRANCH   8   9
ATOM      9  C   LIG    1        2.023   0.067   6.127  0.00  0.00    -0.011 C 
BRANCH   9  10
ATOM     10  C   LIG    1        2.787  -0.250   7.414  0.00  0.00    +0.078 C 
BRANCH  10  11
ATOM     11  C   LIG    1        1.915   0.054   8.604  0.00  0.00    +0.163 C 
ATOM     12  O   LIG    1        0.793   0.482   8.440  0.00  0.00    -0.292 OA
BRANCH  11  16
ATOM     13  C   LIG    1        3.387  -0.588  12.530  0.00  0.00    -0.042 A 
ATOM     14  C   LIG    1        2.105  -0.099  12.347  0.00  0.00    +0.005 A 
ATOM     15  C   LIG    1        1.619   0.113  11.074  0.00  0.00    +0.011 A 
ATOM     16  C   LIG    1        2.426  -0.168   9.966  0.00  0.00    +0.017 A 
ATOM     17  C   LIG    1        3.718  -0.667  10.160  0.00  0.00    +0.011 A 
ATOM     18  C   LIG    1        4.191  -0.868  11.440  0.00  0.00    +0.005 A 
BRANCH  13  20
ATOM     19  C   LIG    1        3.018  -1.829  14.645  0.00  0.00    +0.015 C 
ATOM     20  C   LIG    1        3.910  -0.816  13.925  0.00  0.00    -0.013 C 
ATOM     21  C   LIG    1        3.902   0.507  14.695  0.00  0.00    +0.015 C 
ATOM     22  C   LIG    1        5.339  -1.355  13.852  0.00  0.00    +0.015 C 
ENDBRANCH  13  20
ENDBRANCH  11  16
ENDBRANCH  10  11
ENDBRANCH   9  10
ENDBRANCH   8   9
ENDBRANCH   1   8
BRANCH   5  23
ATOM     23  C   LIG    1        0.002  -0.004   0.002  0.00  0.00    +0.119 C 
BRANCH  23  24
ATOM     24  C   LIG    1        0.707  -0.490  -1.238  0.00  0.00    -0.011 A 
ATOM     25  C   LIG    1        1.400  -1.686  -1.215  0.00  0.00    +0.007 A 
ATOM     26  C   LIG    1        2.044  -2.134  -2.354  0.00  0.00    +0.000 A 
ATOM     27  C   LIG    1        2.002  -1.381  -3.512  0.00  0.00    +0.000 A 
ATOM     28  C   LIG    1        1.313  -0.183  -3.534  0.00  0.00    +0.000 A 
ATOM     29  C   LIG    1        0.666   0.263  -2.396  0.00  0.00    +0.007 A 
ENDBRANCH  23  24
BRANCH  23  30
ATOM     30  C   LIG    1       -1.412  -0.526   0.013  0.00  0.00    -0.011 A 
ATOM     31  C   LIG    1       -1.695  -1.743   0.603  0.00  0.00    +0.007 A 
ATOM     32  C   LIG    1       -2.992  -2.220   0.616  0.00  0.00    +0.000 A 
ATOM     33  C   LIG    1       -4.005  -1.483   0.032  0.00  0.00    +0.000 A 
ATOM     34  C   LIG    1       -3.721  -0.268  -0.562  0.00  0.00    +0.000 A 
ATOM     35  C   LIG    1       -2.425   0.211  -0.572  0.00  0.00    +0.007 A 
ENDBRANCH  23  30
BRANCH  23  36
ATOM     36  O   LIG    1       -0.017   1.425   0.010  0.00  0.00    -0.379 OA
ATOM     37  H   LIG    1       -0.509   1.973  -0.807  0.00  0.00    +0.211 HD
ENDBRANCH  23  36
ENDBRANCH   5  23
TORSDOF 10
