REMARK  Name = ZINC16890042
REMARK                            x       y       z     vdW  Elec       q    Type
REMARK                         _______ _______ _______ _____ _____    ______ ____
ROOT
ATOM      1  C   LIG    1       -2.001   5.192  -3.701  0.00  0.00    -0.003 C 
ATOM      2  C   LIG    1       -2.466   4.089  -4.323  0.00  0.00    -0.019 C 
ATOM      3  C   LIG    1       -2.267   2.870  -3.418  0.00  0.00    +0.032 C 
ATOM      4  C   LIG    1       -2.308   3.542  -2.036  0.00  0.00    +0.007 C 
ATOM      5  C   LIG    1       -1.798   2.782  -0.857  0.00  0.00    -0.003 C 
ATOM      6  C   LIG    1       -0.952   1.563  -1.176  0.00  0.00    +0.008 C 
ATOM      7  C   LIG    1       -0.287   1.050   0.107  0.00  0.00    +0.032 C 
ATOM      8  C   LIG    1       -1.038   1.582   1.306  0.00  0.00    -0.060 C 
ATOM      9  C   LIG    1       -1.613   0.743   2.160  0.00  0.00    +0.046 C 
ATOM     10  C   LIG    1       -2.351   1.230   3.323  0.00  0.00    +0.156 C 
ATOM     11  C   LIG    1       -2.531   2.709   3.545  0.00  0.00    +0.080 C 
ATOM     12  C   LIG    1       -2.415   3.448   2.211  0.00  0.00    +0.019 C 
ATOM     13  O   LIG    1       -2.821   0.438   4.115  0.00  0.00    -0.293 OA
ATOM     14  C   LIG    1       -1.116   3.078   1.506  0.00  0.00    -0.007 C 
ATOM     15  C   LIG    1        0.089   3.552   2.321  0.00  0.00    +0.016 C 
ATOM     16  C   LIG    1       -1.072   3.719   0.112  0.00  0.00    +0.002 C 
ATOM     17  C   LIG    1       -1.729   5.092   0.108  0.00  0.00    +0.005 C 
ATOM     18  C   LIG    1       -1.559   5.797  -1.247  0.00  0.00    +0.012 C 
ATOM     19  C   LIG    1       -1.444   4.784  -2.357  0.00  0.00    -0.001 C 
ATOM     20  C   LIG    1        0.026   4.427  -2.592  0.00  0.00    +0.016 C 
ENDROOT
BRANCH   1  22
ATOM     21  C   LIG    1       -2.713   6.841  -5.538  0.00  0.00    +0.091 C 
ATOM     22  C   LIG    1       -2.021   6.551  -4.231  0.00  0.00    +0.156 C 
ATOM     23  O   LIG    1       -1.480   7.449  -3.620  0.00  0.00    -0.293 OA
ENDBRANCH   1  22
TORSDOF 1
