REMARK  Name = ZINC20256825
REMARK                            x       y       z     vdW  Elec       q    Type
REMARK                         _______ _______ _______ _____ _____    ______ ____
ROOT
ATOM      1  N   LIG    1       -0.721   1.571  -1.179  0.00  0.00    -0.299 N 
ATOM      2  H   LIG    1       -1.623   2.191  -1.066  0.00  0.00    +0.150 HD
ATOM      3  C   LIG    1       -0.268   1.258  -2.409  0.00  0.00    +0.300 C 
ATOM      4  N   LIG    1       -0.920   1.705  -3.501  0.00  0.00    -0.294 N 
ATOM      5  H   LIG    1       -1.822   2.325  -3.388  0.00  0.00    +0.151 HD
ATOM      6  O   LIG    1        0.729   0.574  -2.534  0.00  0.00    -0.253 OA
ENDROOT
BRANCH   4   7
ATOM      7  C   LIG    1       -0.427   1.365  -4.838  0.00  0.00    +0.037 C 
ATOM      8  C   LIG    1        0.994   1.904  -5.010  0.00  0.00    +0.029 C 
ATOM      9  C   LIG    1        1.508   1.549  -6.407  0.00  0.00    -0.008 C 
ATOM     10  C   LIG    1        0.594   2.175  -7.462  0.00  0.00    +0.007 C 
ATOM     11  C   LIG    1       -0.827   1.637  -7.289  0.00  0.00    -0.008 C 
ATOM     12  C   LIG    1       -0.820   0.116  -7.459  0.00  0.00    +0.007 C 
ATOM     13  C   LIG    1        0.094  -0.511  -6.404  0.00  0.00    -0.008 C 
ATOM     14  C   LIG    1        1.516   0.028  -6.576  0.00  0.00    +0.007 C 
ATOM     15  C   LIG    1       -0.420  -0.156  -5.008  0.00  0.00    +0.029 C 
ATOM     16  C   LIG    1       -1.342   1.992  -5.893  0.00  0.00    +0.029 C 
ENDBRANCH   4   7
BRANCH   1  17
ATOM     17  C   LIG    1       -0.013   1.086   0.008  0.00  0.00    +0.109 C 
BRANCH  17  25
ATOM     18  C   LIG    1       -0.639   3.106   1.341  0.00  0.00    -0.014 C 
ATOM     19  C   LIG    1       -1.302   3.588   2.634  0.00  0.00    -0.082 C 
ATOM     20  N   LIG    1       -0.628   2.982   3.789  0.00  0.00    +0.379 N 
ATOM     21  H   LIG    1       -1.086   3.354   4.717  0.00  0.00    -0.086 HD
ATOM     22  H   LIG    1        0.439   3.250   3.773  0.00  0.00    -0.086 HD
ATOM     23  C   LIG    1       -0.744   1.518   3.763  0.00  0.00    -0.082 C 
ATOM     24  C   LIG    1       -0.062   0.974   2.505  0.00  0.00    -0.014 C 
ATOM     25  C   LIG    1       -0.729   1.579   1.267  0.00  0.00    +0.003 C 
ENDBRANCH  17  25
ENDBRANCH   1  17
TORSDOF 3
