REMARK  Name = ZINC34633627
REMARK                            x       y       z     vdW  Elec       q    Type
REMARK                         _______ _______ _______ _____ _____    ______ ____
ROOT
ATOM      1  C   LIG    1       -4.263  -4.652   0.018  0.00  0.00    +0.116 C 
ENDROOT
BRANCH   1   2
ATOM      2  N   LIG    1       -4.243  -6.113   0.130  0.00  0.00    -0.331 N 
ATOM      3  C   LIG    1       -4.804  -6.845   1.122  0.00  0.00    +0.120 A 
ATOM      4  C   LIG    1       -4.552  -8.155   0.837  0.00  0.00    +0.143 A 
ATOM      5  N   LIG    1       -3.845  -8.194  -0.321  0.00  0.00    -0.231 NA
ATOM      6  C   LIG    1       -3.665  -6.976  -0.745  0.00  0.00    +0.200 A 
BRANCH   4   7
ATOM      7  C   LIG    1       -4.972  -9.317   1.641  0.00  0.00    +0.261 C 
ATOM      8  N   LIG    1       -4.653 -10.563   1.240  0.00  0.00    -0.324 N 
ATOM      9  H   LIG    1       -4.930 -11.328   1.769  0.00  0.00    +0.145 HD
ATOM     10  H   LIG    1       -4.148 -10.696   0.423  0.00  0.00    +0.145 HD
ATOM     11  O   LIG    1       -5.605  -9.150   2.665  0.00  0.00    -0.269 OA
ENDBRANCH   4   7
ENDBRANCH   1   2
BRANCH   1  12
ATOM     12  C   LIG    1       -4.965  -4.250  -1.281  0.00  0.00    +0.134 C 
ATOM     13  C   LIG    1       -6.434  -4.670  -1.218  0.00  0.00    +0.040 C 
BRANCH  12  14
ATOM     14  O   LIG    1       -4.331  -4.898  -2.385  0.00  0.00    -0.390 OA
ATOM     15  H   LIG    1       -4.725  -4.689  -3.243  0.00  0.00    +0.210 HD
ENDBRANCH  12  14
ENDBRANCH   1  12
BRANCH   1  16
ATOM     16  C   LIG    1       -2.827  -4.123   0.007  0.00  0.00    +0.028 C 
BRANCH  16  17
ATOM     17  C   LIG    1       -2.848  -2.593   0.015  0.00  0.00    +0.002 C 
BRANCH  17  18
ATOM     18  C   LIG    1       -1.413  -2.063   0.004  0.00  0.00    +0.000 C 
BRANCH  18  19
ATOM     19  C   LIG    1       -1.433  -0.534   0.013  0.00  0.00    -0.000 C 
BRANCH  19  21
ATOM     20  C   LIG    1       -0.019   1.526   0.010  0.00  0.00    +0.004 C 
ATOM     21  C   LIG    1        0.002  -0.004   0.002  0.00  0.00    -0.003 C 
ENDBRANCH  19  21
ENDBRANCH  18  19
ENDBRANCH  17  18
ENDBRANCH  16  17
ENDBRANCH   1  16
TORSDOF 9
