REMARK  Name = ZINC18205922
REMARK                            x       y       z     vdW  Elec       q    Type
REMARK                         _______ _______ _______ _____ _____    ______ ____
ROOT
ATOM      1  C   LIG    1        5.835   7.399   0.002  0.00  0.00    +0.001 A 
ATOM      2  C   LIG    1        4.617   8.054  -0.153  0.00  0.00    +0.002 A 
ATOM      3  C   LIG    1        3.459   7.354  -0.317  0.00  0.00    +0.028 A 
ATOM      4  C   LIG    1        3.493   5.952  -0.329  0.00  0.00    +0.077 A 
ATOM      5  C   LIG    1        4.735   5.288  -0.171  0.00  0.00    +0.040 A 
ATOM      6  C   LIG    1        4.746   3.871  -0.186  0.00  0.00    +0.135 A 
ATOM      7  N   LIG    1        3.595   3.235  -0.347  0.00  0.00    -0.212 NA
ATOM      8  C   LIG    1        2.450   3.899  -0.493  0.00  0.00    +0.166 A 
ATOM      9  N   LIG    1        2.384   5.218  -0.491  0.00  0.00    -0.227 NA
ATOM     10  C   LIG    1        5.905   6.037  -0.005  0.00  0.00    +0.013 A 
ENDROOT
BRANCH   8  11
ATOM     11  C   LIG    1        1.199   3.126  -0.670  0.00  0.00    +0.061 A 
ATOM     12  C   LIG    1        1.232   1.732  -0.683  0.00  0.00    +0.015 A 
ATOM     13  C   LIG    1        0.064   1.018  -0.847  0.00  0.00    +0.001 A 
ATOM     14  C   LIG    1       -1.142   1.679  -1.006  0.00  0.00    +0.004 A 
ATOM     15  C   LIG    1       -1.188   3.059  -0.990  0.00  0.00    +0.046 A 
ATOM     16  C   LIG    1       -0.022   3.791  -0.825  0.00  0.00    +0.128 A 
BRANCH  16  17
ATOM     17  O   LIG    1       -0.065   5.148  -0.815  0.00  0.00    -0.506 OA
ATOM     18  H   LIG    1       -1.026   5.669  -0.937  0.00  0.00    +0.292 HD
ENDBRANCH  16  17
ENDBRANCH   8  11
BRANCH   6  19
ATOM     19  N   LIG    1        5.926   3.171  -0.036  0.00  0.00    -0.299 N 
ATOM     20  H   LIG    1        6.883   3.710   0.006  0.00  0.00    +0.154 HD
BRANCH  19  21
ATOM     21  C   LIG    1        5.904   1.776   0.064  0.00  0.00    +0.032 A 
ATOM     22  C   LIG    1        4.835   1.139   0.682  0.00  0.00    +0.025 A 
ATOM     23  C   LIG    1        4.813  -0.238   0.773  0.00  0.00    +0.022 A 
ATOM     24  C   LIG    1        5.860  -0.984   0.260  0.00  0.00    +0.041 A 
ATOM     25 CL   LIG    1        5.832  -2.715   0.382  0.00  0.00    -0.084 Cl
ATOM     26  C   LIG    1        6.928  -0.352  -0.351  0.00  0.00    +0.022 A 
ATOM     27  C   LIG    1        6.953   1.025  -0.451  0.00  0.00    +0.025 A 
ENDBRANCH  19  21
ENDBRANCH   6  19
TORSDOF 4
