REMARK  Name = ZINC36088168
REMARK                            x       y       z     vdW  Elec       q    Type
REMARK                         _______ _______ _______ _____ _____    ______ ____
ROOT
ATOM      1  C   LIG    1       -2.913  -3.907   0.009  0.00  0.00    +0.121 A 
ATOM      2  C   LIG    1       -1.799  -4.736  -0.000  0.00  0.00    +0.046 A 
ATOM      3  C   LIG    1       -1.957  -6.106  -0.006  0.00  0.00    +0.015 A 
ATOM      4  C   LIG    1       -3.239  -6.658  -0.002  0.00  0.00    +0.021 A 
ATOM      5  C   LIG    1       -4.356  -5.822   0.007  0.00  0.00    +0.015 A 
ATOM      6  C   LIG    1       -4.190  -4.453   0.018  0.00  0.00    +0.046 A 
ENDROOT
BRANCH   4   7
ATOM      7  C   LIG    1       -3.413  -8.127  -0.008  0.00  0.00    +0.179 A 
ATOM      8  N   LIG    1       -2.445  -9.046  -0.023  0.00  0.00    -0.108 NA
ATOM      9  N   LIG    1       -3.010 -10.204  -0.020  0.00  0.00    -0.023 NA
ATOM     10  N   LIG    1       -4.288 -10.053  -0.013  0.00  0.00    -0.046 NA
ATOM     11  N   LIG    1       -4.568  -8.794  -0.005  0.00  0.00    -0.239 N 
ATOM     12  H   LIG    1       -5.469  -8.398   0.001  0.00  0.00    +0.192 HD
ENDBRANCH   4   7
BRANCH   1  13
ATOM     13  O   LIG    1       -2.753  -2.558   0.015  0.00  0.00    -0.492 OA
BRANCH  13  14
ATOM     14  C   LIG    1       -1.413  -2.063   0.004  0.00  0.00    +0.229 C 
BRANCH  14  15
ATOM     15  C   LIG    1       -1.433  -0.534   0.013  0.00  0.00    +0.041 C 
BRANCH  15  17
ATOM     16  C   LIG    1       -0.019   1.526   0.010  0.00  0.00    +0.004 C 
ATOM     17  C   LIG    1        0.002  -0.004   0.002  0.00  0.00    -0.000 C 
ENDBRANCH  15  17
ENDBRANCH  14  15
ENDBRANCH  13  14
ENDBRANCH   1  13
TORSDOF 5
