REMARK  Name = ZINC13747368
REMARK                            x       y       z     vdW  Elec       q    Type
REMARK                         _______ _______ _______ _____ _____    ______ ____
ROOT
ATOM      1  C   LIG    1        0.002  -0.004   0.002  0.00  0.00    +0.107 A 
ATOM      2  C   LIG    1        1.296  -0.376  -0.012  0.00  0.00    +0.059 A 
ATOM      3  N   LIG    1        2.047   0.735  -0.013  0.00  0.00    -0.241 NA
ATOM      4  C   LIG    1        1.268   1.782  -0.001  0.00  0.00    +0.196 A 
ATOM      5  N   LIG    1       -0.017   1.365   0.009  0.00  0.00    -0.351 N 
ATOM      6  H   LIG    1       -0.829   1.947   0.020  0.00  0.00    +0.166 HD
ENDROOT
BRANCH   2   7
ATOM      7  C   LIG    1        1.810  -1.793  -0.025  0.00  0.00    +0.059 C 
BRANCH   7   8
ATOM      8  C   LIG    1        2.751  -1.983  -1.217  0.00  0.00    +0.034 C 
BRANCH   8   9
ATOM      9  C   LIG    1        3.273  -3.421  -1.229  0.00  0.00    +0.156 C 
BRANCH   9  10
ATOM     10  O   LIG    1        4.151  -3.600  -2.342  0.00  0.00    -0.395 OA
ATOM     11  H   LIG    1        4.521  -4.490  -2.413  0.00  0.00    +0.209 HD
ENDBRANCH   9  10
ENDBRANCH   8   9
ENDBRANCH   7   8
ENDBRANCH   2   7
TORSDOF 4
