REMARK  Name = ZINC26476669
REMARK                            x       y       z     vdW  Elec       q    Type
REMARK                         _______ _______ _______ _____ _____    ______ ____
ROOT
ATOM      1  S   LIG    1        0.058  -1.507   3.638  0.00  0.00    +0.075 S 
ATOM      2  O   LIG    1        1.312  -2.170   3.554  0.00  0.00    -0.150 OA
ATOM      3  O   LIG    1       -1.178  -2.205   3.578  0.00  0.00    -0.150 OA
ENDROOT
BRANCH   1   4
ATOM      4  C   LIG    1        0.060  -0.616   5.158  0.00  0.00    +0.109 A 
ATOM      5  C   LIG    1        1.258  -0.244   5.739  0.00  0.00    +0.030 A 
ATOM      6  C   LIG    1        1.260   0.456   6.931  0.00  0.00    +0.017 A 
ATOM      7  C   LIG    1        0.063   0.784   7.542  0.00  0.00    +0.018 A 
ATOM      8 BR   LIG    1        0.065   1.741   9.173  0.00  0.00    -0.050 Br
ATOM      9  C   LIG    1       -1.135   0.412   6.960  0.00  0.00    +0.017 A 
ATOM     10  C   LIG    1       -1.137  -0.283   5.765  0.00  0.00    +0.030 A 
ENDBRANCH   1   4
BRANCH   1  11
ATOM     11  N   LIG    1        0.030  -0.391   2.415  0.00  0.00    -0.183 N 
ATOM     12  H   LIG    1        0.019   0.571   2.627  0.00  0.00    +0.177 HD
BRANCH  11  19
ATOM     13  C   LIG    1       -0.018   1.503   0.010  0.00  0.00    +0.051 C 
ATOM     14  C   LIG    1        0.002  -0.004   0.002  0.00  0.00    +0.035 A 
ATOM     15  C   LIG    1        0.008  -0.821  -1.136  0.00  0.00    +0.085 A 
ATOM     16  C   LIG    1       -0.006  -0.344  -2.566  0.00  0.00    +0.069 C 
ATOM     17  N   LIG    1        0.028  -2.066  -0.745  0.00  0.00    -0.081 NA
ATOM     18  O   LIG    1        0.035  -2.083   0.671  0.00  0.00    -0.338 OA
ATOM     19  C   LIG    1        0.024  -0.808   1.097  0.00  0.00    +0.240 A 
ENDBRANCH  11  19
ENDBRANCH   1  11
TORSDOF 3
