REMARK  Name = ZINC28570233
REMARK                            x       y       z     vdW  Elec       q    Type
REMARK                         _______ _______ _______ _____ _____    ______ ____
ROOT
ATOM      1  C   UNK    1        4.497   5.551  -1.548  0.00  0.00    +0.068 C 
ENDROOT
BRANCH   1   2
ATOM      2  S   UNK    1        2.948   4.622  -1.712  0.00  0.00    -0.156 S 
BRANCH   2   3
ATOM      3  C   UNK    1        2.446   4.301   0.002  0.00  0.00    +0.104 C 
BRANCH   3   6
ATOM      4  C   UNK    1       -1.246   3.492   0.032  0.00  0.00    +0.002 A 
ATOM      5  C   UNK    1       -0.055   4.197   0.025  0.00  0.00    +0.004 A 
ATOM      6  C   UNK    1        1.154   3.525   0.010  0.00  0.00    -0.036 A 
ATOM      7  C   UNK    1        1.180   2.145   0.002  0.00  0.00    +0.023 A 
ATOM      8  C   UNK    1       -0.017   1.428   0.010  0.00  0.00    +0.052 A 
ATOM      9  C   UNK    1       -1.234   2.113   0.019  0.00  0.00    +0.019 A 
BRANCH   8  10
ATOM     10  C   UNK    1        0.002  -0.004   0.002  0.00  0.00    +0.099 C 
ATOM     11  N   UNK    1        0.018  -1.140  -0.004  0.00  0.00    -0.191 NA
ENDBRANCH   8  10
ENDBRANCH   3   6
ENDBRANCH   2   3
ENDBRANCH   1   2
BRANCH   1  12
ATOM     12  C   UNK    1        5.037   5.891  -2.939  0.00  0.00    +0.005 C 
BRANCH  12  13
ATOM     13  C   UNK    1        6.343   6.675  -2.801  0.00  0.00    +0.036 C 
BRANCH  13  14
ATOM     14  N   UNK    1        7.366   5.818  -2.187  0.00  0.00    +0.387 N 
ATOM     15  H   UNK    1        7.025   5.496  -1.191  0.00  0.00    -0.089 HD
ATOM     16  H   UNK    1        7.533   4.934  -2.820  0.00  0.00    -0.089 HD
ATOM     17  H   UNK    1        8.306   6.381  -2.088  0.00  0.00    -0.089 HD
ENDBRANCH  13  14
BRANCH  13  18
ATOM     18  C   UNK    1        6.811   7.115  -4.165  0.00  0.00    +0.290 C 
ATOM     19  O   UNK    1        7.678   6.497  -4.735  0.00  0.00    -0.253 OA
BRANCH  18  20
ATOM     20  O   UNK    1        6.264   8.195  -4.745  0.00  0.00    -0.482 OA
ATOM     21  H   UNK    1        5.591   8.674  -4.303  0.00  0.00    +0.295 HD
ENDBRANCH  18  20
ENDBRANCH  13  18
ENDBRANCH  12  13
ENDBRANCH   1  12
TORSDOF 9
