REMARK  Name = ZINC28824604
REMARK                            x       y       z     vdW  Elec       q    Type
REMARK                         _______ _______ _______ _____ _____    ______ ____
ROOT
ATOM      1  C   LIG    1       -3.818  -3.181   0.006  0.00  0.00    +0.046 C 
ATOM      2  C   LIG    1       -4.582  -1.882   0.017  0.00  0.00    -0.022 A 
ATOM      3  C   LIG    1       -3.911  -0.654   0.019  0.00  0.00    +0.088 A 
ATOM      4  N   LIG    1       -2.603  -0.303   0.014  0.00  0.00    -0.336 N 
ATOM      5  C   LIG    1       -2.502   1.004   0.019  0.00  0.00    +0.141 A 
ATOM      6  N   LIG    1       -3.751   1.566   0.032  0.00  0.00    -0.208 NA
ATOM      7  H   LIG    1       -1.825  -1.080   0.006  0.00  0.00    +0.167 HD
ATOM      8  C   LIG    1       -4.666   0.534   0.028  0.00  0.00    +0.179 A 
ATOM      9  N   LIG    1       -5.988   0.486   0.030  0.00  0.00    -0.234 NA
ATOM     10  C   LIG    1       -6.637  -0.660   0.025  0.00  0.00    +0.113 A 
ATOM     11  C   LIG    1       -5.964  -1.871   0.016  0.00  0.00    +0.025 A 
ENDROOT
BRANCH   5  12
ATOM     12  C   LIG    1       -1.231   1.758   0.011  0.00  0.00    +0.017 A 
ATOM     13  C   LIG    1       -0.013   1.076   0.003  0.00  0.00    +0.013 A 
ATOM     14  C   LIG    1        1.170   1.781  -0.009  0.00  0.00    +0.024 A 
ATOM     15  C   LIG    1        1.152   3.172  -0.008  0.00  0.00    +0.029 A 
ATOM     16  C   LIG    1       -0.060   3.855   0.005  0.00  0.00    +0.024 A 
ATOM     17  C   LIG    1       -1.246   3.155   0.018  0.00  0.00    +0.013 A 
BRANCH  15  18
ATOM     18  N   LIG    1        2.350   3.883  -0.021  0.00  0.00    -0.336 N 
ATOM     19  C   LIG    1        2.333   5.348  -0.021  0.00  0.00    +0.129 C 
ATOM     20  C   LIG    1        3.628   3.166  -0.036  0.00  0.00    +0.129 C 
ENDBRANCH  15  18
ENDBRANCH   5  12
TORSDOF 2
