REMARK  Name = ZINC49757540
REMARK                            x       y       z     vdW  Elec       q    Type
REMARK                         _______ _______ _______ _____ _____    ______ ____
ROOT
ATOM      1  C   LIG    1        4.392 -10.606  -7.574  0.00  0.00    -0.047 A 
ATOM      2  C   LIG    1        3.674 -10.835  -8.733  0.00  0.00    +0.005 A 
ATOM      3  C   LIG    1        4.321 -11.280  -9.870  0.00  0.00    +0.029 A 
ATOM      4  C   LIG    1        5.686 -11.498  -9.849  0.00  0.00    +0.109 A 
ATOM      5  C   LIG    1        6.404 -11.268  -8.690  0.00  0.00    +0.029 A 
ATOM      6  C   LIG    1        5.758 -10.818  -7.554  0.00  0.00    +0.005 A 
ENDROOT
BRANCH   4   7
ATOM      7  S   LIG    1        6.511 -12.067 -11.298  0.00  0.00    +0.074 S 
ATOM      8  O   LIG    1        5.532 -12.726 -12.090  0.00  0.00    -0.150 OA
ATOM      9  O   LIG    1        7.699 -12.713 -10.862  0.00  0.00    -0.150 OA
BRANCH   7  10
ATOM     10  N   LIG    1        6.985 -10.728 -12.149  0.00  0.00    -0.192 N 
ATOM     11  H   LIG    1        6.784  -9.828 -11.804  0.00  0.00    +0.176 HD
BRANCH  10  12
ATOM     12  C   LIG    1        7.665 -10.874 -13.349  0.00  0.00    +0.200 A 
ATOM     13  N   LIG    1        8.031 -11.974 -13.995  0.00  0.00    -0.125 NA
ATOM     14  N   LIG    1        8.653 -11.925 -15.091  0.00  0.00    -0.148 NA
ATOM     15  C   LIG    1        8.978 -10.785 -15.664  0.00  0.00    +0.183 A 
ATOM     16  S   LIG    1        8.296  -9.633 -14.475  0.00  0.00    -0.038 S 
ENDBRANCH  10  12
ENDBRANCH   7  10
ENDBRANCH   4   7
BRANCH   1  17
ATOM     17  C   LIG    1        3.687 -10.120  -6.334  0.00  0.00    +0.035 C 
BRANCH  17  18
ATOM     18  C   LIG    1        3.666  -8.591  -6.326  0.00  0.00    +0.005 C 
BRANCH  18  19
ATOM     19  C   LIG    1        2.950  -8.097  -5.067  0.00  0.00    +0.000 C 
BRANCH  19  20
ATOM     20  C   LIG    1        2.929  -6.567  -5.058  0.00  0.00    +0.000 C 
BRANCH  20  21
ATOM     21  C   LIG    1        2.213  -6.074  -3.800  0.00  0.00    +0.000 C 
BRANCH  21  22
ATOM     22  C   LIG    1        2.192  -4.544  -3.791  0.00  0.00    +0.000 C 
BRANCH  22  23
ATOM     23  C   LIG    1        1.476  -4.051  -2.532  0.00  0.00    -0.000 C 
BRANCH  23  24
ATOM     24  C   LIG    1        1.455  -2.521  -2.524  0.00  0.00    -0.000 C 
BRANCH  24  25
ATOM     25  C   LIG    1        0.739  -2.027  -1.265  0.00  0.00    -0.000 C 
BRANCH  25  26
ATOM     26  C   LIG    1        0.718  -0.497  -1.257  0.00  0.00    -0.000 C 
BRANCH  26  28
ATOM     27  C   LIG    1       -0.019   1.526   0.010  0.00  0.00    +0.004 C 
ATOM     28  C   LIG    1        0.002  -0.004   0.002  0.00  0.00    -0.003 C 
ENDBRANCH  26  28
ENDBRANCH  25  26
ENDBRANCH  24  25
ENDBRANCH  23  24
ENDBRANCH  22  23
ENDBRANCH  21  22
ENDBRANCH  20  21
ENDBRANCH  19  20
ENDBRANCH  18  19
ENDBRANCH  17  18
ENDBRANCH   1  17
TORSDOF 14
