REMARK  Name = ZINC49109717
REMARK                            x       y       z     vdW  Elec       q    Type
REMARK                         _______ _______ _______ _____ _____    ______ ____
ROOT
ATOM      1  N   LIG    1        0.133  -2.739  -0.014  0.00  0.00    -0.175 NA
ATOM      2  C   LIG    1        0.154  -4.064  -0.021  0.00  0.00    +0.172 C 
ATOM      3  C   LIG    1       -0.985  -5.005  -0.021  0.00  0.00    +0.127 C 
ATOM      4  N   LIG    1       -0.450  -6.210  -0.031  0.00  0.00    -0.143 NA
ATOM      5  N   LIG    1        0.828  -6.184  -0.037  0.00  0.00    -0.109 NA
ATOM      6  C   LIG    1        1.319  -4.963  -0.039  0.00  0.00    +0.262 C 
ENDROOT
BRANCH   3   7
ATOM      7  C   LIG    1       -2.425  -4.666  -0.012  0.00  0.00    +0.023 A 
ATOM      8  C   LIG    1       -3.394  -5.677  -0.007  0.00  0.00    +0.013 A 
ATOM      9  C   LIG    1       -4.727  -5.307   0.002  0.00  0.00    +0.020 A 
ATOM     10  C   LIG    1       -5.058  -3.963   0.005  0.00  0.00    +0.111 A 
ATOM     11  N   LIG    1       -4.123  -3.032   0.000  0.00  0.00    -0.263 NA
ATOM     12  C   LIG    1       -2.841  -3.334  -0.002  0.00  0.00    +0.120 A 
ENDBRANCH   3   7
BRANCH   1  13
ATOM     13  N   LIG    1        1.239  -2.076  -0.021  0.00  0.00    -0.236 N 
ATOM     14  H   LIG    1        2.087  -2.547  -0.033  0.00  0.00    +0.174 HD
BRANCH  13  20
ATOM     15  C   LIG    1       -0.017   1.376   0.010  0.00  0.00    +0.002 A 
ATOM     16  C   LIG    1        1.171   2.087   0.002  0.00  0.00    +0.002 A 
ATOM     17  C   LIG    1        2.381   1.418  -0.013  0.00  0.00    +0.022 A 
ATOM     18  C   LIG    1        2.408   0.036  -0.021  0.00  0.00    +0.063 A 
ATOM     19 CL   LIG    1        3.928  -0.803  -0.041  0.00  0.00    -0.082 Cl
ATOM     20  C   LIG    1        1.216  -0.681  -0.013  0.00  0.00    +0.067 A 
ATOM     21  C   LIG    1        0.002  -0.004   0.002  0.00  0.00    +0.026 A 
ENDBRANCH  13  20
ENDBRANCH   1  13
BRANCH   6  22
ATOM     22  O   LIG    1        2.628  -4.606  -0.051  0.00  0.00    -0.490 OA
ATOM     23  H   LIG    1        2.867  -3.700  -0.052  0.00  0.00    +0.294 HD
ENDBRANCH   6  22
TORSDOF 4
