REMARK  Name = ZINC40394741
REMARK                            x       y       z     vdW  Elec       q    Type
REMARK                         _______ _______ _______ _____ _____    ______ ____
ROOT
ATOM      1  C   LIG    1       -1.254  -0.756   0.011  0.00  0.00    +0.026 C 
ATOM      2  C   LIG    1       -2.455  -0.090   0.130  0.00  0.00    +0.102 C 
ATOM      3  C   LIG    1       -2.675   1.369   0.150  0.00  0.00    +0.266 C 
ATOM      4  N   LIG    1       -4.001   1.563   0.283  0.00  0.00    -0.223 N 
ATOM      5  H   LIG    1       -4.431   2.431   0.326  0.00  0.00    +0.174 HD
ATOM      6  N   LIG    1       -4.671   0.341   0.351  0.00  0.00    -0.184 N 
ATOM      7  O   LIG    1       -1.822   2.232   0.064  0.00  0.00    -0.268 OA
ATOM      8  C   LIG    1       -3.801  -0.682   0.259  0.00  0.00    +0.272 C 
ATOM      9  O   LIG    1       -4.072  -1.868   0.280  0.00  0.00    -0.268 OA
ENDROOT
BRANCH   6  10
ATOM     10  C   LIG    1       -6.055   0.199   0.490  0.00  0.00    +0.058 A 
ATOM     11  C   LIG    1       -6.622  -1.068   0.554  0.00  0.00    +0.027 A 
ATOM     12  C   LIG    1       -7.989  -1.206   0.692  0.00  0.00    +0.023 A 
ATOM     13  C   LIG    1       -8.795  -0.084   0.766  0.00  0.00    +0.059 A 
ATOM     14 CL   LIG    1      -10.514  -0.261   0.939  0.00  0.00    -0.082 Cl
ATOM     15  C   LIG    1       -8.234   1.181   0.701  0.00  0.00    +0.061 A 
ATOM     16 CL   LIG    1       -9.249   2.586   0.793  0.00  0.00    -0.082 Cl
ATOM     17  C   LIG    1       -6.865   1.324   0.570  0.00  0.00    +0.046 A 
ENDBRANCH   6  10
BRANCH   1  23
ATOM     18  C   LIG    1        0.140   1.067   0.962  0.00  0.00    +0.011 A 
ATOM     19  C   LIG    1        1.317   1.757   1.019  0.00  0.00    +0.048 A 
ATOM     20  C   LIG    1        2.381   1.392   0.200  0.00  0.00    +0.147 A 
ATOM     21  C   LIG    1        2.254   0.323  -0.681  0.00  0.00    +0.163 A 
ATOM     22  C   LIG    1        1.082  -0.375  -0.747  0.00  0.00    +0.044 A 
ATOM     23  C   LIG    1        0.005  -0.012   0.076  0.00  0.00    -0.022 A 
BRANCH  20  24
ATOM     24  O   LIG    1        3.548   2.082   0.261  0.00  0.00    -0.504 OA
ATOM     25  H   LIG    1        4.179   1.732   0.905  0.00  0.00    +0.292 HD
ENDBRANCH  20  24
BRANCH  21  26
ATOM     26  N   LIG    1        3.390  -0.058  -1.549  0.00  0.00    +0.010 N 
ATOM     27  O   LIG    1        3.281  -0.987  -2.315  0.00  0.00    -0.130 OA
BRANCH  26  28
ATOM     28  O   LIG    1        4.428   0.559  -1.492  0.00  0.00    -0.396 OA
ATOM     29  H   LIG    1        4.513   1.279  -0.898  0.00  0.00    +0.329 HD
ENDBRANCH  26  28
ENDBRANCH  21  26
ENDBRANCH   1  23
TORSDOF 5
