REMARK  Name = ZINC26148832
REMARK                            x       y       z     vdW  Elec       q    Type
REMARK                         _______ _______ _______ _____ _____    ______ ____
ROOT
ATOM      1  C   LIG    1       -2.635   3.701   1.201  0.00  0.00    -0.082 C 
ENDROOT
BRANCH   1   2
ATOM      2  N   LIG    1       -1.365   2.965   1.159  0.00  0.00    +0.382 N 
ATOM      3  H   LIG    1       -0.541   3.688   1.069  0.00  0.00    -0.085 HD
ATOM      4  H   LIG    1       -1.255   2.398   2.095  0.00  0.00    -0.085 HD
BRANCH   2   5
ATOM      5  C   LIG    1       -1.331   2.038   0.019  0.00  0.00    -0.046 C 
BRANCH   5   8
ATOM      6  C   LIG    1        0.020  -1.311  -0.005  0.00  0.00    +0.068 C 
ATOM      7  C   LIG    1        0.002  -0.004   0.002  0.00  0.00    -0.134 C 
ATOM      8  C   LIG    1       -0.016   1.303   0.009  0.00  0.00    +0.005 C 
ENDBRANCH   5   8
ENDBRANCH   2   5
ENDBRANCH   1   2
BRANCH   1   9
ATOM      9  C   LIG    1       -2.634   4.653   2.399  0.00  0.00    -0.021 C 
BRANCH   9  10
ATOM     10  C   LIG    1       -3.957   5.420   2.443  0.00  0.00    -0.021 C 
BRANCH  10  11
ATOM     11  C   LIG    1       -3.955   6.372   3.640  0.00  0.00    -0.087 C 
BRANCH  11  12
ATOM     12  N   LIG    1       -5.225   7.109   3.682  0.00  0.00    +0.378 N 
ATOM     13  H   LIG    1       -5.345   7.687   2.754  0.00  0.00    -0.090 HD
ATOM     14  H   LIG    1       -6.058   6.397   3.781  0.00  0.00    -0.090 HD
ATOM     15  H   LIG    1       -5.224   7.793   4.543  0.00  0.00    -0.090 HD
ENDBRANCH  11  12
ENDBRANCH  10  11
ENDBRANCH   9  10
ENDBRANCH   1   9
TORSDOF 7
