REMARK  Name = ZINC13759783
REMARK                            x       y       z     vdW  Elec       q    Type
REMARK                         _______ _______ _______ _____ _____    ______ ____
ROOT
ATOM      1  C   LIG    1       -2.084   1.069   1.261  0.00  0.00    -0.068 C 
ATOM      2  C   LIG    1       -2.934   1.999   2.136  0.00  0.00    -0.011 C 
ATOM      3  C   LIG    1       -4.401   1.608   1.971  0.00  0.00    +0.037 C 
ATOM      4  C   LIG    1       -4.582   0.129   2.188  0.00  0.00    -0.003 A 
ATOM      5  C   LIG    1       -3.534  -0.762   2.136  0.00  0.00    -0.042 A 
ATOM      6  C   LIG    1       -3.772  -2.116   2.330  0.00  0.00    +0.004 A 
ATOM      7  C   LIG    1       -5.048  -2.579   2.579  0.00  0.00    +0.004 A 
ATOM      8  C   LIG    1       -6.102  -1.688   2.637  0.00  0.00    +0.046 A 
ATOM      9  C   LIG    1       -5.871  -0.337   2.442  0.00  0.00    +0.124 A 
ATOM     10  C   LIG    1       -2.115  -0.329   1.874  0.00  0.00    +0.020 C 
ENDROOT
BRANCH   1  12
ATOM     11  C   LIG    1       -0.013   1.086   0.008  0.00  0.00    -0.100 C 
ATOM     12  N   LIG    1       -0.696   1.566   1.224  0.00  0.00    +0.379 N 
ATOM     13  H   LIG    1       -0.192   1.226   2.052  0.00  0.00    -0.086 HD
ATOM     14  H   LIG    1       -0.703   2.592   1.226  0.00  0.00    -0.086 HD
ENDBRANCH   1  12
BRANCH   9  15
ATOM     15  O   LIG    1       -6.907   0.541   2.499  0.00  0.00    -0.495 OA
ATOM     16  C   LIG    1       -8.202  -0.001   2.764  0.00  0.00    +0.277 C 
ENDBRANCH   9  15
TORSDOF 2
