REMARK  Name = ZINC19014810
REMARK                            x       y       z     vdW  Elec       q    Type
REMARK                         _______ _______ _______ _____ _____    ______ ____
ROOT
ATOM      1  N   LIG    1        0.073   5.187   0.028  0.00  0.00    -0.319 N 
ATOM      2  C   LIG    1       -0.664   5.730   1.178  0.00  0.00    +0.087 C 
ATOM      3  C   LIG    1       -0.663   7.258   1.106  0.00  0.00    -0.063 C 
ATOM      4  N   LIG    1        0.727   7.751   1.103  0.00  0.00    +0.381 N 
ATOM      5  H   LIG    1        0.723   8.776   1.046  0.00  0.00    -0.086 HD
ATOM      6  H   LIG    1        1.193   7.458   1.969  0.00  0.00    -0.086 HD
ATOM      7  C   LIG    1        1.460   7.203  -0.054  0.00  0.00    -0.063 C 
ATOM      8  C   LIG    1        1.460   5.674   0.018  0.00  0.00    +0.087 C 
ENDROOT
BRANCH   1  13
ATOM      9  C   LIG    1       -1.221   1.761   0.017  0.00  0.00    +0.005 A 
ATOM     10  C   LIG    1       -0.013   1.076   0.008  0.00  0.00    +0.020 A 
ATOM     11  C   LIG    1        1.169   1.789   0.001  0.00  0.00    +0.113 A 
ATOM     12  N   LIG    1        1.163   3.109   0.007  0.00  0.00    -0.240 NA
ATOM     13  C   LIG    1        0.033   3.798   0.021  0.00  0.00    +0.121 A 
ATOM     14  C   LIG    1       -1.195   3.144   0.029  0.00  0.00    +0.043 A 
ENDBRANCH   1  13
TORSDOF 1
