REMARK  Name = ZINC14827288
REMARK                            x       y       z     vdW  Elec       q    Type
REMARK                         _______ _______ _______ _____ _____    ______ ____
ROOT
ATOM      1  C   LIG    1        2.040   1.127  -1.261  0.00  0.00    +0.026 C 
ATOM      2  C   LIG    1        1.262   1.575  -2.500  0.00  0.00    -0.041 C 
ATOM      3  C   LIG    1        1.121   3.099  -2.491  0.00  0.00    +0.131 C 
ATOM      4  C   LIG    1        0.368   3.533  -1.232  0.00  0.00    +0.173 C 
ATOM      5  C   LIG    1        1.145   3.085   0.008  0.00  0.00    +0.179 C 
ATOM      6  C   LIG    1        1.286   1.562  -0.002  0.00  0.00    +0.116 C 
ENDROOT
BRANCH   2   7
ATOM      7  N   LIG    1        1.985   1.133  -3.706  0.00  0.00    +0.382 N 
ATOM      8  H   LIG    1        2.040   0.108  -3.709  0.00  0.00    -0.090 HD
ATOM      9  H   LIG    1        2.929   1.516  -3.707  0.00  0.00    -0.090 HD
ATOM     10  H   LIG    1        1.492   1.442  -4.542  0.00  0.00    -0.090 HD
ENDBRANCH   2   7
BRANCH   3  11
ATOM     11  O   LIG    1        0.395   3.517  -3.648  0.00  0.00    -0.391 OA
ATOM     12  H   LIG    1        0.267   4.473  -3.708  0.00  0.00    +0.210 HD
ENDBRANCH   3  11
BRANCH   4  13
ATOM     13  O   LIG    1        0.235   4.956  -1.223  0.00  0.00    -0.387 OA
ATOM     14  H   LIG    1       -0.248   5.311  -1.982  0.00  0.00    +0.210 HD
ENDBRANCH   4  13
BRANCH   5  15
ATOM     15  O   LIG    1        2.442   3.684  -0.002  0.00  0.00    -0.386 OA
ATOM     16  H   LIG    1        2.429   4.651   0.004  0.00  0.00    +0.210 HD
ENDBRANCH   5  15
BRANCH   6  17
ATOM     17  O   LIG    1       -0.011   0.963   0.007  0.00  0.00    -0.384 OA
ATOM     18  H   LIG    1        0.002  -0.004   0.002  0.00  0.00    +0.210 HD
ENDBRANCH   6  17
BRANCH   6  19
ATOM     19  C   LIG    1        2.064   1.114   1.238  0.00  0.00    +0.193 C 
BRANCH  19  20
ATOM     20  O   LIG    1        2.297  -0.294   1.171  0.00  0.00    -0.392 OA
ATOM     21  H   LIG    1        2.786  -0.648   1.926  0.00  0.00    +0.210 HD
ENDBRANCH  19  20
ENDBRANCH   6  19
TORSDOF 7
