REMARK  Name = ZINC64479798
REMARK                            x       y       z     vdW  Elec       q    Type
REMARK                         _______ _______ _______ _____ _____    ______ ____
ROOT
ATOM      1  C   LIG    1        0.599  -2.054   1.202  0.00  0.00    +0.049 C 
ENDROOT
BRANCH   1   2
ATOM      2  C   LIG    1        1.321  -2.591   2.411  0.00  0.00    -0.045 A 
ATOM      3  C   LIG    1        2.663  -2.912   2.328  0.00  0.00    +0.004 A 
ATOM      4  C   LIG    1        3.327  -3.404   3.436  0.00  0.00    +0.002 A 
ATOM      5  C   LIG    1        2.648  -3.576   4.628  0.00  0.00    +0.020 A 
ATOM      6  C   LIG    1        1.305  -3.255   4.712  0.00  0.00    +0.041 A 
ATOM      7 CL   LIG    1        0.452  -3.471   6.208  0.00  0.00    -0.084 Cl
ATOM      8  C   LIG    1        0.643  -2.756   3.604  0.00  0.00    +0.023 A 
ENDBRANCH   1   2
BRANCH   1   9
ATOM      9  C   LIG    1        0.706  -0.527   1.180  0.00  0.00    +0.070 C 
BRANCH   9  11
ATOM     10  C   LIG    1       -0.018   1.465   0.010  0.00  0.00    +0.084 C 
ATOM     11  N   LIG    1        0.002  -0.004   0.002  0.00  0.00    -0.358 NA
BRANCH  11  12
ATOM     12  N   LIG    1        0.594  -0.510  -1.226  0.00  0.00    +0.389 N 
ATOM     13  H   LIG    1        0.054  -0.190  -2.016  0.00  0.00    -0.065 HD
ATOM     14  H   LIG    1        0.596  -1.519  -1.207  0.00  0.00    -0.065 HD
ATOM     15  H   LIG    1        1.541  -0.174  -1.307  0.00  0.00    -0.065 HD
ENDBRANCH  11  12
ENDBRANCH   9  11
ENDBRANCH   1   9
TORSDOF 4
