REMARK  Name = ZINC13779541
REMARK                            x       y       z     vdW  Elec       q    Type
REMARK                         _______ _______ _______ _____ _____    ______ ____
ROOT
ATOM      1  C   LIG    1        0.298   0.893  -2.480  0.00  0.00    +0.007 C 
ATOM      2  C   LIG    1       -0.537   1.433  -1.317  0.00  0.00    -0.014 C 
ATOM      3  C   LIG    1       -1.919   0.778  -1.335  0.00  0.00    +0.003 C 
ATOM      4  C   LIG    1       -2.754   1.319  -0.172  0.00  0.00    +0.001 C 
ATOM      5  C   LIG    1       -2.054   0.998   1.150  0.00  0.00    +0.005 C 
ATOM      6  C   LIG    1       -0.672   1.654   1.168  0.00  0.00    -0.035 C 
ATOM      7  C   LIG    1        0.163   1.113   0.005  0.00  0.00    +0.009 C 
ENDROOT
BRANCH   6   8
ATOM      8  C   LIG    1        0.028   1.334   2.490  0.00  0.00    -0.079 C 
BRANCH   8   9
ATOM      9  N   LIG    1       -0.842   1.751   3.604  0.00  0.00    +0.378 N 
ATOM     10  H   LIG    1       -1.755   1.292   3.509  0.00  0.00    -0.090 HD
ATOM     11  H   LIG    1       -0.974   2.760   3.585  0.00  0.00    -0.090 HD
ATOM     12  H   LIG    1       -0.424   1.480   4.493  0.00  0.00    -0.090 HD
ENDBRANCH   8   9
ENDBRANCH   6   8
BRANCH   6  13
ATOM     13  C   LIG    1       -0.824   3.169   1.025  0.00  0.00    +0.125 C 
BRANCH  13  14
ATOM     14  C   LIG    1        0.533   3.820   1.096  0.00  0.00    +0.305 C 
ATOM     15  O   LIG    1        1.529   3.136   1.142  0.00  0.00    -0.251 OA
BRANCH  14  16
ATOM     16  O   LIG    1        0.637   5.158   1.107  0.00  0.00    -0.481 OA
ATOM     17  H   LIG    1       -0.135   5.688   1.071  0.00  0.00    +0.295 HD
ENDBRANCH  14  16
ENDBRANCH  13  14
ENDBRANCH   6  13
TORSDOF 5
