REMARK  Name = ZINC15924305
REMARK                            x       y       z     vdW  Elec       q    Type
REMARK                         _______ _______ _______ _____ _____    ______ ____
ROOT
ATOM      1  C   LIG    1        4.783   1.456   0.068  0.00  0.00    +0.393 C 
ATOM      2  N   LIG    1        5.897   2.125   0.158  0.00  0.00    -0.129 NA
ATOM      3  H   LIG    1        5.877   3.092   0.236  0.00  0.00    +0.306 HD
ENDROOT
BRANCH   1   4
ATOM      4  N   LIG    1        3.584   2.125  -0.026  0.00  0.00    -0.243 N 
ATOM      5  H   LIG    1        3.559   3.091   0.062  0.00  0.00    +0.265 HD
BRANCH   4   8
ATOM      6  C   LIG    1        0.074   1.055   0.213  0.00  0.00    +0.005 A 
ATOM      7  C   LIG    1        1.241   1.760   0.434  0.00  0.00    +0.042 A 
ATOM      8  C   LIG    1        2.401   1.412  -0.247  0.00  0.00    +0.101 A 
ATOM      9  C   LIG    1        2.383   0.356  -1.149  0.00  0.00    +0.062 A 
ATOM     10  C   LIG    1        1.212  -0.345  -1.366  0.00  0.00    +0.044 A 
ATOM     11 CL   LIG    1        1.188  -1.665  -2.493  0.00  0.00    -0.083 Cl
ATOM     12  C   LIG    1        0.059   0.004  -0.685  0.00  0.00    +0.020 A 
ENDBRANCH   4   8
ENDBRANCH   1   4
BRANCH   1  13
ATOM     13  N   LIG    1        4.805   0.076   0.065  0.00  0.00    -0.186 N 
ATOM     14  H   LIG    1        3.976  -0.422  -0.002  0.00  0.00    +0.271 HD
BRANCH  13  15
ATOM     15  C   LIG    1        6.007  -0.594   0.159  0.00  0.00    +0.385 C 
ATOM     16  N   LIG    1        7.121   0.075   0.249  0.00  0.00    -0.129 NA
ATOM     17  H   LIG    1        7.966  -0.396   0.315  0.00  0.00    +0.306 HD
BRANCH  15  18
ATOM     18  N   LIG    1        6.029  -1.968   0.156  0.00  0.00    -0.289 N 
ATOM     19  H   LIG    1        6.874  -2.440   0.222  0.00  0.00    +0.255 HD
ATOM     20  H   LIG    1        5.200  -2.467   0.089  0.00  0.00    +0.255 HD
ENDBRANCH  15  18
ENDBRANCH  13  15
ENDBRANCH   1  13
TORSDOF 5
