REMARK  Name = ZINC27631794
REMARK                            x       y       z     vdW  Elec       q    Type
REMARK                         _______ _______ _______ _____ _____    ______ ____
ROOT
ATOM      1  C   LIG    1       -2.522   2.111   0.020  0.00  0.00    +0.084 A 
ATOM      2  C   LIG    1       -3.399   3.158   0.030  0.00  0.00    +0.078 A 
ATOM      3  S   LIG    1       -4.960   2.288   0.032  0.00  0.00    -0.041 S 
ATOM      4  C   LIG    1       -4.292   0.630   0.019  0.00  0.00    +0.233 A 
ATOM      5  N   LIG    1       -2.987   0.871   0.009  0.00  0.00    -0.209 NA
ENDROOT
BRANCH   1  15
ATOM      6  C   LIG    1        3.703  -0.792  -0.048  0.00  0.00    +0.044 C 
ATOM      7  C   LIG    1        2.402  -0.031  -0.030  0.00  0.00    -0.048 A 
ATOM      8  C   LIG    1        1.200  -0.724  -0.022  0.00  0.00    +0.004 A 
ATOM      9  C   LIG    1        0.011  -0.051  -0.005  0.00  0.00    +0.011 A 
ATOM     10  C   LIG    1        0.005   1.344   0.003  0.00  0.00    +0.009 A 
ATOM     11  C   LIG    1        1.218   2.052  -0.006  0.00  0.00    +0.047 A 
ATOM     12  N   LIG    1        0.912   3.395   0.004  0.00  0.00    -0.360 N 
ATOM     13  C   LIG    1       -0.445   3.567   0.020  0.00  0.00    +0.093 A 
ATOM     14  H   LIG    1        1.718   4.143  -0.000  0.00  0.00    +0.165 HD
ATOM     15  C   LIG    1       -1.059   2.360   0.014  0.00  0.00    +0.026 A 
ATOM     16  C   LIG    1        2.418   1.347  -0.023  0.00  0.00    +0.029 A 
ENDBRANCH   1  15
BRANCH   4  17
ATOM     17  N   LIG    1       -4.947  -0.562   0.014  0.00  0.00    -0.225 N 
ATOM     18  H   LIG    1       -5.293  -0.996  -0.935  0.00  0.00    +0.267 HD
BRANCH  17  19
ATOM     19  C   LIG    1       -5.166  -1.196   1.146  0.00  0.00    +0.347 C 
ATOM     20  N   LIG    1       -4.834  -0.606   2.338  0.00  0.00    -0.292 N 
ATOM     21  H   LIG    1       -4.385   0.398   2.348  0.00  0.00    +0.255 HD
ATOM     22  H   LIG    1       -5.018  -1.137   3.284  0.00  0.00    +0.255 HD
BRANCH  19  23
ATOM     23  N   LIG    1       -5.726  -2.447   1.133  0.00  0.00    -0.292 N 
ATOM     24  H   LIG    1       -5.993  -2.921   0.177  0.00  0.00    +0.255 HD
ATOM     25  H   LIG    1       -5.910  -2.977   2.079  0.00  0.00    +0.255 HD
ENDBRANCH  19  23
ENDBRANCH  17  19
ENDBRANCH   4  17
TORSDOF 4
