REMARK  Name = ZINC13817975
REMARK                            x       y       z     vdW  Elec       q    Type
REMARK                         _______ _______ _______ _____ _____    ______ ____
ROOT
ATOM      1  C   LIG    1       -0.018   1.503   0.010  0.00  0.00    +0.044 C 
ATOM      2  C   LIG    1        0.002  -0.004   0.002  0.00  0.00    -0.050 A 
ATOM      3  C   LIG    1        0.006  -0.684  -1.203  0.00  0.00    +0.005 A 
ATOM      4  C   LIG    1        0.020  -2.069  -1.217  0.00  0.00    +0.029 A 
ATOM      5  C   LIG    1        0.034  -2.763  -0.030  0.00  0.00    +0.109 A 
ATOM      6  C   LIG    1        0.039  -2.092   1.191  0.00  0.00    -0.016 A 
ATOM      7  C   LIG    1        0.082  -2.827   2.478  0.00  0.00    +0.041 C 
ATOM      8  C   LIG    1       -0.206  -2.100   3.653  0.00  0.00    +0.010 C 
ATOM      9  C   LIG    1       -0.214  -2.698   4.870  0.00  0.00    +0.006 C 
ATOM     10  C   LIG    1        0.068  -4.070   4.983  0.00  0.00    +0.008 C 
ATOM     11  C   LIG    1        0.053  -4.721   6.231  0.00  0.00    +0.006 C 
ATOM     12  C   LIG    1        0.337  -6.057   6.264  0.00  0.00    +0.015 C 
ATOM     13  C   LIG    1        0.630  -6.735   5.083  0.00  0.00    +0.081 C 
ATOM     14  N   LIG    1        0.643  -6.125   3.923  0.00  0.00    -0.311 NA
ATOM     15  H   LIG    1        0.852  -6.630   3.122  0.00  0.00    +0.122 HD
ATOM     16  C   LIG    1        0.373  -4.820   3.822  0.00  0.00    +0.076 C 
ATOM     17  C   LIG    1        0.388  -4.175   2.564  0.00  0.00    +0.101 C 
ATOM     18  N   LIG    1        0.738  -4.930   1.441  0.00  0.00    -0.185 NA
ATOM     19  H   LIG    1        0.493  -5.900   1.640  0.00  0.00    +0.148 HD
ATOM     20  S   LIG    1        0.039  -4.530  -0.016  0.00  0.00    +0.059 S 
ATOM     21  O   LIG    1       -1.317  -4.950   0.044  0.00  0.00    -0.153 OA
ATOM     22  O   LIG    1        0.933  -4.952  -1.037  0.00  0.00    -0.153 OA
ATOM     23  C   LIG    1        0.023  -0.695   1.196  0.00  0.00    +0.009 A 
ENDROOT
TORSDOF 0
