REMARK  Name = ZINC64479803
REMARK                            x       y       z     vdW  Elec       q    Type
REMARK                         _______ _______ _______ _____ _____    ______ ____
ROOT
ATOM      1  C   LIG    1       -1.134  -1.025   0.428  0.00  0.00    +0.105 A 
ATOM      2  C   LIG    1       -2.409  -0.554   0.968  0.00  0.00    +0.086 A 
ATOM      3  C   LIG    1       -2.829   0.587   1.673  0.00  0.00    +0.131 A 
ATOM      4  N   LIG    1       -4.111   0.682   2.014  0.00  0.00    -0.220 NA
ATOM      5  C   LIG    1       -4.972  -0.270   1.701  0.00  0.00    +0.225 A 
ATOM      6  N   LIG    1       -4.625  -1.354   1.043  0.00  0.00    -0.216 NA
ATOM      7  C   LIG    1       -3.363  -1.541   0.657  0.00  0.00    +0.161 A 
ATOM      8  N   LIG    1       -2.707  -2.527  -0.018  0.00  0.00    -0.259 N 
ATOM      9  H   LIG    1       -3.113  -3.338  -0.359  0.00  0.00    +0.191 HD
ATOM     10  N   LIG    1       -1.357  -2.183  -0.147  0.00  0.00    -0.171 NA
ENDROOT
BRANCH   1  19
ATOM     11  C   LIG    1        0.573   0.261   1.709  0.00  0.00    +0.014 A 
ATOM     12  C   LIG    1        1.786   0.916   1.783  0.00  0.00    +0.050 A 
ATOM     13  C   LIG    1        2.603   1.000   0.666  0.00  0.00    +0.166 A 
ATOM     14  C   LIG    1        2.201   0.421  -0.537  0.00  0.00    +0.167 A 
ATOM     15  O   LIG    1        3.172   0.641  -1.472  0.00  0.00    -0.453 OA
ATOM     16  C   LIG    1        3.980   1.709  -0.942  0.00  0.00    +0.466 C 
ATOM     17  C   LIG    1        0.988  -0.237  -0.616  0.00  0.00    +0.059 A 
ATOM     18  O   LIG    1        3.824   1.582   0.483  0.00  0.00    -0.453 OA
ATOM     19  C   LIG    1        0.167  -0.320   0.509  0.00  0.00    +0.007 A 
ENDBRANCH   1  19
BRANCH   3  20
ATOM     20  N   LIG    1       -1.933   1.585   2.003  0.00  0.00    -0.342 N 
ATOM     21  H   LIG    1       -2.166   2.242   2.677  0.00  0.00    +0.144 HD
ATOM     22  H   LIG    1       -1.071   1.628   1.560  0.00  0.00    +0.144 HD
ENDBRANCH   3  20
TORSDOF 2
