REMARK  Name = ZINC25757829
REMARK                            x       y       z     vdW  Elec       q    Type
REMARK                         _______ _______ _______ _____ _____    ______ ____
ROOT
ATOM      1  C   LIG    1       -0.019   1.526   0.010  0.00  0.00    +0.038 C 
ATOM      2  C   LIG    1        0.002  -0.004   0.002  0.00  0.00    +0.068 C 
ATOM      3  C   LIG    1        0.717  -0.590  -1.203  0.00  0.00    -0.020 A 
ATOM      4  C   LIG    1        0.898   0.180  -2.334  0.00  0.00    +0.006 A 
ATOM      5  C   LIG    1        1.540  -0.357  -3.435  0.00  0.00    +0.000 A 
ATOM      6  C   LIG    1        1.996  -1.662  -3.395  0.00  0.00    +0.000 A 
ATOM      7  C   LIG    1        1.814  -2.428  -2.260  0.00  0.00    +0.004 A 
ATOM      8  C   LIG    1        1.175  -1.889  -1.153  0.00  0.00    -0.040 A 
ATOM      9  C   LIG    1        1.011  -2.735   0.083  0.00  0.00    +0.059 C 
ATOM     10  C   LIG    1        0.177  -2.003   1.137  0.00  0.00    +0.090 C 
ATOM     11  C   LIG    1       -1.253  -1.881   0.699  0.00  0.00    -0.025 A 
ATOM     12  C   LIG    1       -2.329  -2.729   0.871  0.00  0.00    +0.005 A 
ATOM     13  C   LIG    1       -3.574  -2.215   0.365  0.00  0.00    +0.000 A 
ATOM     14  C   LIG    1       -3.680  -1.006  -0.291  0.00  0.00    +0.000 A 
ATOM     15  C   LIG    1       -2.577  -0.178  -0.472  0.00  0.00    +0.006 A 
ATOM     16  C   LIG    1       -1.375  -0.624   0.035  0.00  0.00    -0.019 A 
ATOM     17  N   LIG    1        0.677  -0.597   1.198  0.00  0.00    -0.296 NA
ATOM     18  H   LIG    1        1.681  -0.580   1.092  0.00  0.00    +0.124 HD
ENDROOT
TORSDOF 0
