REMARK  Name = ZINC19868747
REMARK                            x       y       z     vdW  Elec       q    Type
REMARK                         _______ _______ _______ _____ _____    ______ ____
ROOT
ATOM      1  C   LIG    1        2.517  -4.096   1.134  0.00  0.00    +0.103 A 
ATOM      2  C   LIG    1        3.503  -5.029   1.204  0.00  0.00    +0.041 A 
ATOM      3  C   LIG    1        3.830  -5.208   2.570  0.00  0.00    +0.002 A 
ATOM      4  C   LIG    1        4.752  -6.023   3.240  0.00  0.00    +0.030 A 
ATOM      5  C   LIG    1        4.839  -5.974   4.601  0.00  0.00    +0.042 A 
ATOM      6 CL   LIG    1        5.982  -6.985   5.428  0.00  0.00    -0.084 Cl
ATOM      7  C   LIG    1        4.018  -5.122   5.332  0.00  0.00    +0.022 A 
ATOM      8  C   LIG    1        3.104  -4.312   4.697  0.00  0.00    +0.027 A 
ATOM      9  C   LIG    1        2.998  -4.344   3.309  0.00  0.00    +0.047 A 
ATOM     10  N   LIG    1        2.206  -3.668   2.410  0.00  0.00    -0.351 N 
ATOM     11  H   LIG    1        1.538  -3.003   2.635  0.00  0.00    +0.166 HD
ENDROOT
BRANCH   1  17
ATOM     12  C   LIG    1        1.730   1.744  -0.940  0.00  0.00    +0.105 C 
ATOM     13  N   LIG    1        1.292   0.387  -0.589  0.00  0.00    -0.302 NA
ATOM     14  C   LIG    1        1.385  -0.512  -1.747  0.00  0.00    +0.103 C 
ATOM     15  C   LIG    1        0.753  -1.863  -1.393  0.00  0.00    +0.123 C 
ATOM     16  N   LIG    1        1.384  -2.366  -0.163  0.00  0.00    -0.294 N 
ATOM     17  C   LIG    1        1.886  -3.615  -0.104  0.00  0.00    +0.263 C 
ATOM     18  O   LIG    1        1.817  -4.345  -1.075  0.00  0.00    -0.268 OA
ATOM     19  C   LIG    1        1.452  -1.469   1.001  0.00  0.00    +0.123 C 
ATOM     20  C   LIG    1        2.056  -0.134   0.553  0.00  0.00    +0.103 C 
ENDBRANCH   1  17
TORSDOF 1
