REMARK  Name = ZINC26850605
REMARK                            x       y       z     vdW  Elec       q    Type
REMARK                         _______ _______ _______ _____ _____    ______ ____
ROOT
ATOM      1  C   LIG    1        3.088   0.692  -1.157  0.00  0.00    +0.032 C 
ATOM      2  C   LIG    1        2.176   0.726   0.071  0.00  0.00    +0.132 C 
ATOM      3  C   LIG    1        1.230   1.906   0.001  0.00  0.00    +0.247 C 
ATOM      4  N   LIG    1       -0.017   1.398   0.010  0.00  0.00    -0.216 N 
ATOM      5  C   LIG    1       -1.254   2.198   0.045  0.00  0.00    +0.131 C 
ATOM      6  C   LIG    1       -2.411   1.325  -0.455  0.00  0.00    +0.023 C 
ATOM      7  C   LIG    1       -2.416   0.005   0.322  0.00  0.00    +0.037 C 
ATOM      8  C   LIG    1       -1.209  -0.836  -0.106  0.00  0.00    +0.205 C 
ATOM      9  N   LIG    1        0.002  -0.004   0.002  0.00  0.00    -0.203 N 
ATOM     10  O   LIG    1        1.536   3.078  -0.054  0.00  0.00    -0.273 OA
ATOM     11  C   LIG    1        1.260  -0.478   0.086  0.00  0.00    +0.248 C 
ATOM     12  O   LIG    1        1.593  -1.642   0.159  0.00  0.00    -0.273 OA
ENDROOT
BRANCH   8  13
ATOM     13  C   LIG    1       -1.082  -2.036   0.796  0.00  0.00    +0.327 C 
ATOM     14  O   LIG    1       -0.086  -2.187   1.464  0.00  0.00    -0.249 OA
BRANCH  13  15
ATOM     15  O   LIG    1       -2.075  -2.937   0.859  0.00  0.00    -0.479 OA
ATOM     16  H   LIG    1       -2.847  -2.820   0.342  0.00  0.00    +0.295 HD
ENDBRANCH  13  15
ENDBRANCH   8  13
BRANCH   2  17
ATOM     17  C   LIG    1        3.009   0.783   1.354  0.00  0.00    +0.091 C 
BRANCH  17  18
ATOM     18  S   LIG    1        4.095   2.234   1.306  0.00  0.00    -0.177 S 
ATOM     19  H   LIG    1        4.773   2.442   2.147  0.00  0.00    +0.102 HD
ENDBRANCH  17  18
ENDBRANCH   2  17
TORSDOF 4
