REMARK  Name = ZINC15859028
REMARK                            x       y       z     vdW  Elec       q    Type
REMARK                         _______ _______ _______ _____ _____    ______ ____
ROOT
ATOM      1  C   LIG    1        0.136  -2.862   0.536  0.00  0.00    +0.186 C 
ATOM      2  C   LIG    1       -1.159  -2.126   0.263  0.00  0.00    +0.076 A 
ATOM      3  C   LIG    1       -2.396  -2.595   0.201  0.00  0.00    +0.082 A 
ATOM      4  C   LIG    1       -3.279  -1.430  -0.062  0.00  0.00    +0.089 A 
ATOM      5  C   LIG    1       -4.725  -1.639  -0.175  0.00  0.00    +0.266 A 
ATOM      6  N   LIG    1       -5.142  -2.923  -0.025  0.00  0.00    -0.263 N 
ATOM      7  C   LIG    1       -6.577  -3.199  -0.127  0.00  0.00    +0.157 C 
ATOM      8  C   LIG    1       -4.318  -3.949   0.209  0.00  0.00    +0.332 A 
ATOM      9  O   LIG    1       -4.820  -5.051   0.323  0.00  0.00    -0.246 OA
ATOM     10  O   LIG    1       -5.499  -0.725  -0.389  0.00  0.00    -0.267 OA
ATOM     11  C   LIG    1       -2.461  -0.330  -0.145  0.00  0.00    +0.071 A 
ATOM     12  N   LIG    1       -2.975  -3.866   0.331  0.00  0.00    -0.294 N 
ATOM     13  C   LIG    1       -2.157  -5.054   0.588  0.00  0.00    +0.154 C 
ATOM     14  N   LIG    1       -1.182  -0.756   0.040  0.00  0.00    -0.306 N 
ATOM     15  C   LIG    1        0.001  -0.001   0.019  0.00  0.00    +0.068 A 
ATOM     16  C   LIG    1       -0.019   1.380   0.030  0.00  0.00    +0.031 A 
ATOM     17  C   LIG    1        1.172   2.084   0.027  0.00  0.00    -0.045 A 
ATOM     18  C   LIG    1        1.155   3.591   0.040  0.00  0.00    +0.044 C 
ATOM     19  C   LIG    1        2.378   1.407   0.013  0.00  0.00    -0.046 A 
ATOM     20  C   LIG    1        3.671   2.182   0.020  0.00  0.00    +0.044 C 
ATOM     21  C   LIG    1        2.405   0.026  -0.009  0.00  0.00    +0.028 A 
ATOM     22  C   LIG    1        1.218  -0.690  -0.015  0.00  0.00    +0.052 A 
ATOM     23  N   LIG    1        1.231  -2.088  -0.068  0.00  0.00    -0.328 N 
ATOM     24  H   LIG    1        1.966  -2.548  -0.503  0.00  0.00    +0.147 HD
ENDROOT
BRANCH  11  25
ATOM     25  C   LIG    1       -2.890   1.060  -0.392  0.00  0.00    +0.035 A 
ATOM     26  C   LIG    1       -2.975   1.547  -1.699  0.00  0.00    +0.013 A 
ATOM     27  C   LIG    1       -3.382   2.845  -1.922  0.00  0.00    +0.001 A 
ATOM     28  C   LIG    1       -3.697   3.670  -0.856  0.00  0.00    +0.003 A 
ATOM     29  C   LIG    1       -3.611   3.198   0.442  0.00  0.00    +0.039 A 
ATOM     30  C   LIG    1       -3.209   1.898   0.682  0.00  0.00    +0.133 A 
ATOM     31  F   LIG    1       -3.124   1.438   1.949  0.00  0.00    -0.205 F 
ENDBRANCH  11  25
BRANCH   1  36
ATOM     32  C   LIG    1        1.371  -1.692   5.284  0.00  0.00    +0.086 C 
ATOM     33  C   LIG    1        0.889  -2.471   4.087  0.00  0.00    +0.102 A 
ATOM     34  C   LIG    1        0.441  -3.739   4.102  0.00  0.00    +0.045 A 
ATOM     35  C   LIG    1        0.094  -4.067   2.771  0.00  0.00    +0.047 A 
ATOM     36  C   LIG    1        0.351  -2.979   2.023  0.00  0.00    +0.131 A 
ATOM     37  O   LIG    1        0.838  -2.017   2.824  0.00  0.00    -0.463 OA
ENDBRANCH   1  36
TORSDOF 2
