REMARK  Name = ZINC20149036
REMARK                            x       y       z     vdW  Elec       q    Type
REMARK                         _______ _______ _______ _____ _____    ______ ____
ROOT
ATOM      1  C   LIG    1        3.128  -2.089   1.660  0.00  0.00    +0.109 A 
ATOM      2  C   LIG    1        4.211  -1.230   1.638  0.00  0.00    +0.030 A 
ATOM      3  C   LIG    1        5.012  -1.097   2.755  0.00  0.00    +0.025 A 
ATOM      4  C   LIG    1        4.729  -1.829   3.901  0.00  0.00    +0.031 A 
ATOM      5  C   LIG    1        3.640  -2.691   3.920  0.00  0.00    +0.025 A 
ATOM      6  C   LIG    1        2.840  -2.815   2.802  0.00  0.00    +0.030 A 
ENDROOT
BRANCH   1   7
ATOM      7  S   LIG    1        2.108  -2.255   0.233  0.00  0.00    +0.073 S 
ATOM      8  O   LIG    1        2.906  -1.883  -0.882  0.00  0.00    -0.150 OA
ATOM      9  O   LIG    1        1.479  -3.526   0.329  0.00  0.00    -0.150 OA
BRANCH   7  10
ATOM     10  N   LIG    1        0.907  -1.122   0.354  0.00  0.00    -0.199 N 
ATOM     11  H   LIG    1       -0.017  -1.402   0.451  0.00  0.00    +0.175 HD
BRANCH  10  16
ATOM     12  C   LIG    1        0.537   2.522   0.383  0.00  0.00    +0.005 A 
ATOM     13  C   LIG    1        1.873   2.874   0.243  0.00  0.00    +0.020 A 
ATOM     14  C   LIG    1        2.827   1.882   0.147  0.00  0.00    +0.113 A 
ATOM     15  N   LIG    1        2.485   0.608   0.186  0.00  0.00    -0.239 NA
ATOM     16  C   LIG    1        1.222   0.232   0.318  0.00  0.00    +0.138 A 
ATOM     17  C   LIG    1        0.209   1.179   0.421  0.00  0.00    +0.045 A 
ENDBRANCH  10  16
ENDBRANCH   7  10
ENDBRANCH   1   7
BRANCH   4  18
ATOM     18  N   LIG    1        5.538  -1.698   5.033  0.00  0.00    -0.320 N 
ATOM     19  H   LIG    1        6.299  -1.096   5.019  0.00  0.00    +0.152 HD
BRANCH  18  20
ATOM     20  C   LIG    1        5.260  -2.416   6.157  0.00  0.00    +0.085 C 
ATOM     21  C   LIG    1        5.967  -2.193   7.302  0.00  0.00    +0.061 C 
ATOM     22  C   LIG    1        6.894  -1.071   7.584  0.00  0.00    +0.025 A 
ATOM     23  C   LIG    1        7.372  -1.277   8.885  0.00  0.00    +0.043 A 
ATOM     24  N   LIG    1        6.804  -2.434   9.403  0.00  0.00    -0.281 N 
ATOM     25  H   LIG    1        6.985  -2.781  10.291  0.00  0.00    +0.155 HD
ATOM     26  C   LIG    1        8.277  -0.359   9.420  0.00  0.00    +0.026 A 
ATOM     27  C   LIG    1        8.701   0.722   8.713  0.00  0.00    +0.031 A 
ATOM     28  C   LIG    1        8.240   0.962   7.400  0.00  0.00    +0.079 A 
ATOM     29  N   LIG    1        8.540   1.965   6.548  0.00  0.00    -0.247 NA
ATOM     30  C   LIG    1        8.025   2.040   5.356  0.00  0.00    +0.157 A 
ATOM     31  S   LIG    1        7.021   0.693   5.250  0.00  0.00    -0.075 S 
ATOM     32  C   LIG    1        7.326   0.028   6.866  0.00  0.00    +0.049 A 
ATOM     33  C   LIG    1        5.969  -3.008   8.522  0.00  0.00    +0.250 C 
ATOM     34  O   LIG    1        5.327  -4.029   8.702  0.00  0.00    -0.270 OA
ENDBRANCH  18  20
ENDBRANCH   4  18
TORSDOF 5
