REMARK  Name = ZINC19796158
REMARK                            x       y       z     vdW  Elec       q    Type
REMARK                         _______ _______ _______ _____ _____    ______ ____
ROOT
ATOM      1  C   LIG    1        1.906  -3.636  -0.105  0.00  0.00    +0.325 C 
ATOM      2  N   LIG    1        2.175  -4.135  -1.262  0.00  0.00    -0.038 NA
ATOM      3  C   LIG    1        3.030  -5.160  -1.536  0.00  0.00    +0.218 A 
ATOM      4  C   LIG    1        2.666  -6.106  -2.499  0.00  0.00    +0.059 A 
ATOM      5  C   LIG    1        3.527  -7.135  -2.822  0.00  0.00    +0.004 A 
ATOM      6  C   LIG    1        4.755  -7.236  -2.197  0.00  0.00    +0.004 A 
ATOM      7  C   LIG    1        5.122  -6.313  -1.232  0.00  0.00    +0.051 A 
ATOM      8  C   LIG    1        4.261  -5.285  -0.886  0.00  0.00    +0.179 A 
ATOM      9  O   LIG    1        4.612  -4.442   0.118  0.00  0.00    -0.451 OA
ATOM     10  C   LIG    1        3.846  -4.436   1.236  0.00  0.00    +0.144 A 
ATOM     11  C   LIG    1        4.402  -4.800   2.452  0.00  0.00    +0.048 A 
ATOM     12  C   LIG    1        3.631  -4.823   3.589  0.00  0.00    +0.023 A 
ATOM     13  C   LIG    1        2.287  -4.495   3.525  0.00  0.00    +0.042 A 
ATOM     14 CL   LIG    1        1.313  -4.556   4.961  0.00  0.00    -0.084 Cl
ATOM     15  C   LIG    1        1.720  -4.119   2.323  0.00  0.00    +0.039 A 
ATOM     16  C   LIG    1        2.502  -4.072   1.168  0.00  0.00    +0.109 A 
ENDROOT
BRANCH   1  21
ATOM     17  C   LIG    1       -0.067   1.440  -0.384  0.00  0.00    +0.105 C 
ATOM     18  N   LIG    1       -0.023  -0.017  -0.198  0.00  0.00    -0.298 NA
ATOM     19  C   LIG    1        0.382  -0.694  -1.438  0.00  0.00    +0.128 C 
ATOM     20  C   LIG    1        0.241  -2.209  -1.258  0.00  0.00    +0.241 C 
ATOM     21  N   LIG    1        0.991  -2.608  -0.057  0.00  0.00    -0.218 N 
ATOM     22  C   LIG    1        0.739  -1.881   1.196  0.00  0.00    +0.241 C 
ATOM     23  C   LIG    1        0.860  -0.379   0.919  0.00  0.00    +0.128 C 
ENDBRANCH   1  21
TORSDOF 1
