REMARK  Name = ZINC42855864
REMARK                            x       y       z     vdW  Elec       q    Type
REMARK                         _______ _______ _______ _____ _____    ______ ____
ROOT
ATOM      1  C   LIG    1        2.237  -0.878  -3.458  0.00  0.00    +0.059 C 
ATOM      2  C   LIG    1        1.774  -2.285  -2.994  0.00  0.00    +0.014 C 
ATOM      3  C   LIG    1        0.584  -2.554  -3.949  0.00  0.00    +0.022 C 
ATOM      4  N   LIG    1       -0.076  -1.241  -4.107  0.00  0.00    +0.391 N 
ATOM      5  H   LIG    1       -0.846  -1.167  -3.458  0.00  0.00    -0.080 HD
ATOM      6  C   LIG    1        0.913  -0.179  -3.832  0.00  0.00    -0.055 C 
ENDROOT
BRANCH   3   7
ATOM      7  C   LIG    1       -0.365  -3.551  -3.336  0.00  0.00    +0.202 C 
ATOM      8  N   LIG    1        0.060  -4.797  -3.048  0.00  0.00    -0.300 N 
ATOM      9  C   LIG    1        1.448  -5.202  -3.317  0.00  0.00    +0.123 C 
ATOM     10  C   LIG    1        1.427  -6.510  -4.116  0.00  0.00    +0.100 C 
ATOM     11  N   LIG    1        0.618  -7.504  -3.399  0.00  0.00    -0.313 NA
ATOM     12  H   LIG    1        0.682  -8.409  -3.841  0.00  0.00    +0.122 HD
ATOM     13  C   LIG    1       -0.782  -7.072  -3.288  0.00  0.00    +0.100 C 
ATOM     14  C   LIG    1       -0.850  -5.785  -2.450  0.00  0.00    +0.123 C 
ATOM     15  O   LIG    1       -1.512  -3.232  -3.102  0.00  0.00    -0.277 OA
ENDBRANCH   3   7
BRANCH   1  17
ATOM     16  C   LIG    1        2.252   0.071  -1.214  0.00  0.00    +0.217 C 
ATOM     17  N   LIG    1        2.908  -0.168  -2.367  0.00  0.00    -0.296 N 
ATOM     18  O   LIG    1        1.140  -0.383  -1.044  0.00  0.00    -0.276 OA
BRANCH  16  19
ATOM     19  C   LIG    1        2.899   0.902  -0.137  0.00  0.00    +0.102 C 
BRANCH  19  21
ATOM     20  C   LIG    1        1.491  -0.234   1.586  0.00  0.00    +0.011 C 
ATOM     21  C   LIG    1        1.905   1.120   1.006  0.00  0.00    -0.029 C 
ATOM     22  C   LIG    1        2.563   1.964   2.100  0.00  0.00    +0.011 C 
ATOM     23  C   LIG    1        0.668   1.847   0.475  0.00  0.00    +0.011 C 
ENDBRANCH  19  21
ENDBRANCH  16  19
BRANCH  17  24
ATOM     24  C   LIG    1        4.292   0.283  -2.528  0.00  0.00    +0.143 C 
BRANCH  24  25
ATOM     25  C   LIG    1        5.231  -0.853  -2.212  0.00  0.00    -0.027 A 
ATOM     26  C   LIG    1        5.610  -1.091  -0.903  0.00  0.00    +0.005 A 
ATOM     27  C   LIG    1        6.471  -2.132  -0.609  0.00  0.00    +0.004 A 
ATOM     28  C   LIG    1        6.955  -2.937  -1.623  0.00  0.00    +0.045 A 
ATOM     29  C   LIG    1        6.576  -2.700  -2.936  0.00  0.00    +0.120 A 
ATOM     30  C   LIG    1        5.707  -1.658  -3.228  0.00  0.00    +0.050 A 
BRANCH  29  31
ATOM     31  O   LIG    1        7.051  -3.490  -3.934  0.00  0.00    -0.495 OA
ATOM     32  C   LIG    1        7.936  -4.547  -3.560  0.00  0.00    +0.277 C 
ENDBRANCH  29  31
ENDBRANCH  24  25
ENDBRANCH  17  24
ENDBRANCH   1  17
BRANCH   4  33
ATOM     33  C   LIG    1       -0.577  -1.101  -5.481  0.00  0.00    -0.042 C 
BRANCH  33  34
ATOM     34  C   LIG    1       -1.355   0.183  -5.605  0.00  0.00    -0.060 A 
ATOM     35  C   LIG    1       -2.714   0.193  -5.349  0.00  0.00    +0.005 A 
ATOM     36  C   LIG    1       -3.432   1.369  -5.461  0.00  0.00    +0.050 A 
ATOM     37  C   LIG    1       -2.792   2.541  -5.830  0.00  0.00    +0.166 A 
ATOM     38  C   LIG    1       -1.423   2.530  -6.087  0.00  0.00    +0.166 A 
ATOM     39  O   LIG    1       -1.034   3.793  -6.428  0.00  0.00    -0.453 OA
ATOM     40  C   LIG    1       -2.246   4.489  -6.774  0.00  0.00    +0.466 C 
ATOM     41  O   LIG    1       -3.260   3.810  -6.009  0.00  0.00    -0.453 OA
ATOM     42  C   LIG    1       -0.708   1.349  -5.968  0.00  0.00    +0.051 A 
ENDBRANCH  33  34
ENDBRANCH   4  33
TORSDOF 9
