REMARK  Name = ZINC28884074
REMARK                            x       y       z     vdW  Elec       q    Type
REMARK                         _______ _______ _______ _____ _____    ______ ____
ROOT
ATOM      1  C   LIG    1        4.881  -0.537  -0.048  0.00  0.00    +0.157 C 
ENDROOT
BRANCH   1   9
ATOM      2  C   LIG    1       -0.017   1.362   0.009  0.00  0.00    +0.001 A 
ATOM      3  C   LIG    1        1.170   2.083   0.002  0.00  0.00    +0.002 A 
ATOM      4  C   LIG    1        2.386   1.436  -0.013  0.00  0.00    +0.026 A 
ATOM      5  C   LIG    1        2.428   0.046  -0.021  0.00  0.00    +0.049 A 
ATOM      6  C   LIG    1        1.223  -0.681  -0.013  0.00  0.00    -0.000 A 
ATOM      7  C   LIG    1        1.604  -2.095  -0.025  0.00  0.00    +0.027 A 
ATOM      8  C   LIG    1        2.945  -2.141  -0.038  0.00  0.00    +0.087 A 
ATOM      9  N   LIG    1        3.455  -0.871  -0.036  0.00  0.00    -0.342 N 
ATOM     10  C   LIG    1        0.002  -0.004   0.002  0.00  0.00    +0.010 A 
ENDBRANCH   1   9
BRANCH   1  11
ATOM     11  C   LIG    1        5.356  -0.310   1.364  0.00  0.00    -0.028 A 
ATOM     12  C   LIG    1        5.295   0.956   1.917  0.00  0.00    +0.007 A 
ATOM     13  C   LIG    1        5.729   1.168   3.211  0.00  0.00    +0.023 A 
ATOM     14  C   LIG    1        6.227   0.107   3.957  0.00  0.00    +0.025 A 
ATOM     15  C   LIG    1        6.287  -1.163   3.398  0.00  0.00    +0.023 A 
ATOM     16  C   LIG    1        5.846  -1.369   2.106  0.00  0.00    +0.007 A 
BRANCH  14  17
ATOM     17  N   LIG    1        6.668   0.318   5.266  0.00  0.00    -0.358 N 
ATOM     18  H   LIG    1        7.015  -0.423   5.786  0.00  0.00    +0.142 HD
ATOM     19  H   LIG    1        6.625   1.205   5.655  0.00  0.00    +0.142 HD
ENDBRANCH  14  17
ENDBRANCH   1  11
TORSDOF 3
