REMARK  Name = ZINC14813714
REMARK                            x       y       z     vdW  Elec       q    Type
REMARK                         _______ _______ _______ _____ _____    ______ ____
ROOT
ATOM      1  C   LIG    1        0.605  -0.606  -1.055  0.00  0.00    +0.127 A 
ATOM      2  C   LIG    1        1.171   0.171  -2.059  0.00  0.00    +0.092 A 
ATOM      3  C   LIG    1        1.788  -0.432  -3.140  0.00  0.00    +0.135 A 
ATOM      4  C   LIG    1        1.838  -1.830  -3.213  0.00  0.00    +0.105 A 
ATOM      5  C   LIG    1        2.486  -2.514  -4.346  0.00  0.00    +0.197 A 
ATOM      6  C   LIG    1        2.490  -3.928  -4.337  0.00  0.00    +0.098 A 
ATOM      7  C   LIG    1        1.907  -4.594  -3.303  0.00  0.00    +0.139 A 
ATOM      8  O   LIG    1        1.319  -3.959  -2.277  0.00  0.00    -0.454 OA
ATOM      9  O   LIG    1        3.000  -1.884  -5.256  0.00  0.00    -0.287 OA
ATOM     10  C   LIG    1        1.266  -2.613  -2.197  0.00  0.00    +0.146 A 
ATOM     11  C   LIG    1        0.656  -1.990  -1.119  0.00  0.00    +0.092 A 
ENDROOT
BRANCH   7  12
ATOM     12  C   LIG    1        1.921  -6.069  -3.312  0.00  0.00    +0.021 A 
ATOM     13  C   LIG    1        2.530  -6.758  -4.364  0.00  0.00    +0.015 A 
ATOM     14  C   LIG    1        2.543  -8.136  -4.370  0.00  0.00    +0.050 A 
ATOM     15  C   LIG    1        1.951  -8.843  -3.332  0.00  0.00    +0.158 A 
ATOM     16  C   LIG    1        1.341  -8.162  -2.279  0.00  0.00    +0.159 A 
ATOM     17  C   LIG    1        1.330  -6.781  -2.264  0.00  0.00    +0.060 A 
BRANCH  15  18
ATOM     18  O   LIG    1        1.966 -10.201  -3.342  0.00  0.00    -0.503 OA
ATOM     19  H   LIG    1        2.737 -10.589  -2.905  0.00  0.00    +0.292 HD
ENDBRANCH  15  18
BRANCH  16  20
ATOM     20  O   LIG    1        0.762  -8.858  -1.265  0.00  0.00    -0.503 OA
ATOM     21  H   LIG    1        1.360  -9.055  -0.531  0.00  0.00    +0.292 HD
ENDBRANCH  16  20
ENDBRANCH   7  12
BRANCH   1  23
ATOM     22  C   LIG    1       -0.017   1.425   0.010  0.00  0.00    +0.277 C 
ATOM     23  O   LIG    1        0.002  -0.004   0.002  0.00  0.00    -0.495 OA
ENDBRANCH   1  23
BRANCH   3  24
ATOM     24  O   LIG    1        2.341   0.324  -4.121  0.00  0.00    -0.506 OA
ATOM     25  H   LIG    1        3.269   0.548  -3.970  0.00  0.00    +0.292 HD
ENDBRANCH   3  24
TORSDOF 5
