REMARK  Name = ZINC53231272
REMARK                            x       y       z     vdW  Elec       q    Type
REMARK                         _______ _______ _______ _____ _____    ______ ____
ROOT
ATOM      1  C   LIG    1       -5.261  -6.676   0.023  0.00  0.00    +0.103 C 
ENDROOT
BRANCH   1   2
ATOM      2  N   LIG    1       -5.335  -8.143   0.030  0.00  0.00    -0.298 NA
ATOM      3  C   LIG    1       -4.796  -8.704  -1.217  0.00  0.00    +0.103 C 
ATOM      4  C   LIG    1       -4.723 -10.230  -1.097  0.00  0.00    +0.120 C 
ATOM      5  N   LIG    1       -6.051 -10.732  -0.713  0.00  0.00    -0.327 N 
ATOM      6  C   LIG    1       -6.716 -10.122   0.449  0.00  0.00    +0.120 C 
ATOM      7  C   LIG    1       -6.710  -8.600   0.268  0.00  0.00    +0.103 C 
BRANCH   5   8
ATOM      8  C   LIG    1       -6.665 -11.762  -1.431  0.00  0.00    +0.030 A 
ATOM      9  C   LIG    1       -6.074 -12.249  -2.590  0.00  0.00    +0.026 A 
ATOM     10  C   LIG    1       -6.682 -13.267  -3.299  0.00  0.00    +0.040 A 
ATOM     11  C   LIG    1       -7.879 -13.803  -2.854  0.00  0.00    +0.124 A 
ATOM     12  F   LIG    1       -8.472 -14.798  -3.549  0.00  0.00    -0.205 F 
ATOM     13  C   LIG    1       -8.470 -13.319  -1.699  0.00  0.00    +0.040 A 
ATOM     14  C   LIG    1       -7.863 -12.304  -0.985  0.00  0.00    +0.026 A 
ENDBRANCH   5   8
ENDBRANCH   1   2
BRANCH   1  15
ATOM     15  C   LIG    1       -3.794  -6.240   0.022  0.00  0.00    +0.120 C 
BRANCH  15  17
ATOM     16  C   LIG    1       -2.521  -4.162   0.014  0.00  0.00    +0.244 C 
ATOM     17  N   LIG    1       -3.720  -4.777   0.015  0.00  0.00    -0.310 N 
ATOM     18  H   LIG    1       -4.535  -4.250   0.012  0.00  0.00    +0.149 HD
ATOM     19  O   LIG    1       -1.500  -4.823   0.018  0.00  0.00    -0.270 OA
BRANCH  16  24
ATOM     20  C   LIG    1       -1.143  -0.664  -0.000  0.00  0.00    +0.121 A 
ATOM     21  C   LIG    1       -2.313   0.084  -0.005  0.00  0.00    +0.045 A 
ATOM     22  C   LIG    1       -3.543  -0.547  -0.005  0.00  0.00    +0.004 A 
ATOM     23  C   LIG    1       -3.616  -1.926   0.002  0.00  0.00    +0.013 A 
ATOM     24  C   LIG    1       -2.446  -2.686   0.007  0.00  0.00    +0.040 A 
ATOM     25  C   LIG    1       -1.205  -2.047  -0.000  0.00  0.00    +0.058 A 
BRANCH  20  27
ATOM     26  C   LIG    1        0.053   1.390  -0.001  0.00  0.00    +0.277 C 
ATOM     27  O   LIG    1        0.063  -0.038  -0.001  0.00  0.00    -0.495 OA
ENDBRANCH  20  27
ENDBRANCH  16  24
ENDBRANCH  15  17
ENDBRANCH   1  15
TORSDOF 6
