REMARK  Name = ZINC18217881
REMARK                            x       y       z     vdW  Elec       q    Type
REMARK                         _______ _______ _______ _____ _____    ______ ____
ROOT
ATOM      1  C   LIG    1       -0.685  -2.210  -0.003  0.00  0.00    +0.053 A 
ATOM      2  C   LIG    1        0.612  -2.638  -0.018  0.00  0.00    +0.090 A 
ATOM      3  C   LIG    1        1.645  -1.685  -0.023  0.00  0.00    +0.217 A 
ATOM      4  N   LIG    1        1.320  -0.375  -0.013  0.00  0.00    -0.182 N 
ATOM      5  C   LIG    1        0.002  -0.004   0.002  0.00  0.00    +0.167 A 
ATOM      6  C   LIG    1       -0.018   1.464   0.010  0.00  0.00    +0.046 A 
ATOM      7  C   LIG    1        1.278   1.880   0.000  0.00  0.00    +0.145 A 
ATOM      8  N   LIG    1        2.095   0.789  -0.014  0.00  0.00    -0.170 NA
ATOM      9  N   LIG    1       -0.960  -0.909   0.006  0.00  0.00    -0.232 NA
ENDROOT
BRANCH   6  10
ATOM     10  C   LIG    1       -1.222   2.329   0.021  0.00  0.00    -0.013 A 
ATOM     11  C   LIG    1       -2.085   2.313   1.115  0.00  0.00    +0.010 A 
ATOM     12  C   LIG    1       -3.201   3.125   1.123  0.00  0.00    +0.020 A 
ATOM     13  C   LIG    1       -3.470   3.945   0.041  0.00  0.00    +0.041 A 
ATOM     14 CL   LIG    1       -4.880   4.959   0.053  0.00  0.00    -0.084 Cl
ATOM     15  C   LIG    1       -2.619   3.961  -1.051  0.00  0.00    +0.020 A 
ATOM     16  C   LIG    1       -1.498   3.157  -1.067  0.00  0.00    +0.010 A 
ENDBRANCH   6  10
BRANCH   3  17
ATOM     17  O   LIG    1        2.814  -2.034  -0.036  0.00  0.00    -0.492 OA
ATOM     18  H   LIG    1        3.030  -2.946  -0.044  0.00  0.00    +0.294 HD
ENDBRANCH   3  17
BRANCH   1  19
ATOM     19  C   LIG    1       -1.808  -3.215   0.002  0.00  0.00    +0.090 C 
BRANCH  19  23
ATOM     20  C   LIG    1       -3.065  -3.925   4.022  0.00  0.00    +0.000 A 
ATOM     21  C   LIG    1       -3.658  -2.921   3.280  0.00  0.00    +0.000 A 
ATOM     22  C   LIG    1       -3.251  -2.691   1.979  0.00  0.00    +0.004 A 
ATOM     23  C   LIG    1       -2.251  -3.466   1.421  0.00  0.00    -0.042 A 
ATOM     24  C   LIG    1       -1.662  -4.473   2.161  0.00  0.00    +0.004 A 
ATOM     25  C   LIG    1       -2.066  -4.700   3.464  0.00  0.00    +0.000 A 
ENDBRANCH  19  23
ENDBRANCH   1  19
TORSDOF 4
