REMARK  Name = ZINC64245736
REMARK                            x       y       z     vdW  Elec       q    Type
REMARK                         _______ _______ _______ _____ _____    ______ ____
ROOT
ATOM      1  N   LIG    1        7.312  -6.992  -0.103  0.00  0.00    +0.381 N 
ATOM      2  H   LIG    1        7.876  -6.684   0.674  0.00  0.00    -0.082 HD
ATOM      3  C   LIG    1        8.015  -6.702  -1.359  0.00  0.00    -0.076 C 
ATOM      4  C   LIG    1        9.391  -7.372  -1.343  0.00  0.00    +0.017 C 
ATOM      5  C   LIG    1        9.215  -8.882  -1.181  0.00  0.00    +0.109 C 
ATOM      6  C   LIG    1        8.516  -9.454  -2.386  0.00  0.00    +0.238 C 
ATOM      7  N   LIG    1        9.321 -10.357  -2.972  0.00  0.00    -0.298 N 
ATOM      8  H   LIG    1        9.098 -10.865  -3.768  0.00  0.00    +0.150 HD
ATOM      9  C   LIG    1       10.582 -10.463  -2.239  0.00  0.00    +0.214 C 
ATOM     10  O   LIG    1        7.406  -9.150  -2.767  0.00  0.00    -0.273 OA
ATOM     11  C   LIG    1        8.408  -9.176   0.084  0.00  0.00    +0.017 C 
ATOM     12  N   LIG    1       10.527  -9.534  -1.102  0.00  0.00    -0.300 N 
ATOM     13  C   LIG    1        7.070  -8.435   0.013  0.00  0.00    -0.076 C 
ENDROOT
BRANCH  12  14
ATOM     14  C   LIG    1       11.519  -9.317  -0.144  0.00  0.00    +0.034 A 
ATOM     15  C   LIG    1       11.309  -8.401   0.880  0.00  0.00    +0.023 A 
ATOM     16  C   LIG    1       12.292  -8.188   1.827  0.00  0.00    +0.005 A 
ATOM     17  C   LIG    1       13.484  -8.884   1.758  0.00  0.00    +0.038 A 
ATOM     18  C   LIG    1       13.698  -9.798   0.740  0.00  0.00    +0.125 A 
ATOM     19  F   LIG    1       14.864 -10.477   0.675  0.00  0.00    -0.205 F 
ATOM     20  C   LIG    1       12.715 -10.020  -0.209  0.00  0.00    +0.061 A 
ENDBRANCH  12  14
BRANCH   1  21
ATOM     21  C   LIG    1        6.027  -6.280  -0.087  0.00  0.00    -0.060 C 
BRANCH  21  22
ATOM     22  C   LIG    1        6.281  -4.771  -0.082  0.00  0.00    +0.086 C 
BRANCH  22  24
ATOM     23  C   LIG    1        4.977  -2.713  -0.059  0.00  0.00    +0.244 C 
ATOM     24  N   LIG    1        5.000  -4.060  -0.066  0.00  0.00    -0.313 N 
ATOM     25  H   LIG    1        4.168  -4.560  -0.060  0.00  0.00    +0.149 HD
ATOM     26  O   LIG    1        6.019  -2.087  -0.066  0.00  0.00    -0.270 OA
BRANCH  23  32
ATOM     27  C   LIG    1       -0.016   1.357   0.009  0.00  0.00    +0.001 A 
ATOM     28  C   LIG    1        1.168   2.091   0.002  0.00  0.00    +0.001 A 
ATOM     29  C   LIG    1        2.378   1.468  -0.013  0.00  0.00    +0.008 A 
ATOM     30  C   LIG    1        2.437   0.063  -0.021  0.00  0.00    -0.017 A 
ATOM     31  C   LIG    1        3.667  -0.611  -0.036  0.00  0.00    +0.021 A 
ATOM     32  C   LIG    1        3.685  -1.996  -0.043  0.00  0.00    +0.037 A 
ATOM     33  C   LIG    1        2.482  -2.725  -0.035  0.00  0.00    +0.013 A 
ATOM     34  C   LIG    1        1.283  -2.090  -0.021  0.00  0.00    +0.009 A 
ATOM     35  C   LIG    1        1.231  -0.684  -0.013  0.00  0.00    -0.018 A 
ATOM     36  C   LIG    1        0.002  -0.004   0.002  0.00  0.00    +0.008 A 
ENDBRANCH  23  32
ENDBRANCH  22  24
ENDBRANCH  21  22
ENDBRANCH   1  21
TORSDOF 5
