REMARK  Name = ZINC22931097
REMARK                            x       y       z     vdW  Elec       q    Type
REMARK                         _______ _______ _______ _____ _____    ______ ____
ROOT
ATOM      1  C   LIG    1        3.068  -3.867   4.113  0.00  0.00    +0.016 C 
ENDROOT
BRANCH   1   2
ATOM      2  C   LIG    1        2.803  -4.510   2.751  0.00  0.00    +0.009 C 
BRANCH   2   8
ATOM      3  C   LIG    1       -0.118  -5.699  -0.836  0.00  0.00    +0.124 A 
ATOM      4  C   LIG    1        0.933  -5.582  -1.729  0.00  0.00    +0.046 A 
ATOM      5  C   LIG    1        2.119  -5.003  -1.320  0.00  0.00    +0.004 A 
ATOM      6  C   LIG    1        2.246  -4.542  -0.025  0.00  0.00    +0.004 A 
ATOM      7  C   LIG    1        1.194  -4.656   0.874  0.00  0.00    -0.038 A 
ATOM      8  C   LIG    1        1.403  -4.125   2.268  0.00  0.00    +0.019 C 
ATOM      9  C   LIG    1        0.356  -4.688   3.222  0.00  0.00    +0.008 C 
ATOM     10  C   LIG    1       -1.032  -4.478   2.607  0.00  0.00    +0.005 C 
ATOM     11  C   LIG    1       -1.167  -5.398   1.395  0.00  0.00    +0.039 C 
ATOM     12  C   LIG    1        0.011  -5.232   0.471  0.00  0.00    -0.002 A 
BRANCH   3  14
ATOM     13  C   LIG    1       -1.353  -6.725  -2.589  0.00  0.00    +0.277 C 
ATOM     14  O   LIG    1       -1.286  -6.267  -1.237  0.00  0.00    -0.495 OA
ENDBRANCH   3  14
ENDBRANCH   2   8
ENDBRANCH   1   2
BRANCH   1  15
ATOM     15  C   LIG    1        4.511  -4.145   4.537  0.00  0.00    +0.084 C 
BRANCH  15  16
ATOM     16  N   LIG    1        4.766  -3.527   5.845  0.00  0.00    -0.306 NA
ATOM     17  C   LIG    1        4.710  -2.062   5.755  0.00  0.00    +0.066 C 
ATOM     18  C   LIG    1        4.921  -1.460   7.146  0.00  0.00    -0.063 C 
ATOM     19  N   LIG    1        6.224  -1.886   7.672  0.00  0.00    +0.383 N 
ATOM     20  H   LIG    1        6.955  -1.579   7.048  0.00  0.00    -0.081 HD
ATOM     21  C   LIG    1        6.255  -3.350   7.779  0.00  0.00    -0.063 C 
ATOM     22  C   LIG    1        6.056  -3.968   6.394  0.00  0.00    +0.066 C 
BRANCH  19  23
ATOM     23  C   LIG    1        6.434  -1.293   9.000  0.00  0.00    -0.068 C 
ATOM     24  C   LIG    1        6.403   0.232   8.888  0.00  0.00    -0.015 C 
ATOM     25  C   LIG    1        6.621   0.850  10.270  0.00  0.00    -0.002 C 
ATOM     26  C   LIG    1        7.979   0.406  10.819  0.00  0.00    -0.000 C 
ATOM     27  C   LIG    1        8.009  -1.120  10.931  0.00  0.00    -0.002 C 
ATOM     28  C   LIG    1        7.791  -1.737   9.548  0.00  0.00    -0.015 C 
ENDBRANCH  19  23
ENDBRANCH  15  16
ENDBRANCH   1  15
TORSDOF 6
