REMARK  Name = ZINC21981285
REMARK                            x       y       z     vdW  Elec       q    Type
REMARK                         _______ _______ _______ _____ _____    ______ ____
ROOT
ATOM      1  C   LIG    1        2.904   6.492   5.171  0.00  0.00    +0.051 C 
ATOM      2  C   LIG    1        2.584   5.987   3.788  0.00  0.00    -0.011 A 
ATOM      3  C   LIG    1        1.620   6.406   2.948  0.00  0.00    +0.028 A 
ATOM      4  C   LIG    1        1.519   5.756   1.656  0.00  0.00    +0.094 A 
ATOM      5  C   LIG    1        2.440   4.733   1.438  0.00  0.00    +0.085 A 
ATOM      6  N   LIG    1        2.508   3.929   0.315  0.00  0.00    -0.305 N 
ATOM      7  H   LIG    1        3.441   3.872  -0.265  0.00  0.00    +0.153 HD
ATOM      8  C   LIG    1        1.331   3.214  -0.016  0.00  0.00    +0.083 A 
ATOM      9  C   LIG    1        1.381   1.836  -0.093  0.00  0.00    +0.027 A 
ATOM     10  C   LIG    1        0.228   1.111  -0.353  0.00  0.00    +0.002 A 
ATOM     11  C   LIG    1       -0.971   1.770  -0.540  0.00  0.00    +0.004 A 
ATOM     12  C   LIG    1       -1.030   3.148  -0.472  0.00  0.00    +0.057 A 
ATOM     13  C   LIG    1        0.127   3.897  -0.222  0.00  0.00    +0.197 A 
ATOM     14  N   LIG    1        0.019   5.253  -0.209  0.00  0.00    -0.040 NA
ATOM     15  C   LIG    1        0.540   6.112   0.601  0.00  0.00    +0.323 C 
ATOM     16  S   LIG    1        3.391   4.690   2.869  0.00  0.00    -0.078 S 
ENDROOT
BRANCH  15  17
ATOM     17  N   LIG    1        0.166   7.431   0.479  0.00  0.00    -0.223 N 
ATOM     18  C   LIG    1       -0.900   7.833  -0.451  0.00  0.00    +0.212 C 
ATOM     19  C   LIG    1       -0.390   8.986  -1.313  0.00  0.00    +0.012 C 
ATOM     20  N   LIG    1        0.098  10.067  -0.448  0.00  0.00    +0.404 N 
ATOM     21  C   LIG    1        0.489  11.215  -1.276  0.00  0.00    -0.044 C 
ATOM     22  C   LIG    1        1.259   9.605   0.324  0.00  0.00    +0.012 C 
ATOM     23  C   LIG    1        0.826   8.481   1.271  0.00  0.00    +0.212 C 
BRANCH  20  24
ATOM     24  O   LIG    1       -0.966  10.472   0.471  0.00  0.00    -0.445 OA
ATOM     25  H   LIG    1       -1.225   9.714   1.019  0.00  0.00    +0.186 HD
ENDBRANCH  20  24
ENDBRANCH  15  17
TORSDOF 2
