REMARK  Name = ZINC26938943
REMARK                            x       y       z     vdW  Elec       q    Type
REMARK                         _______ _______ _______ _____ _____    ______ ____
ROOT
ATOM      1  C   LIG    1       -4.974   1.389   0.323  0.00  0.00    -0.096 C 
ATOM      2  N   LIG    1       -3.700   2.112   0.437  0.00  0.00    +0.381 N 
ATOM      3  H   LIG    1       -3.561   2.377   1.495  0.00  0.00    -0.082 HD
ATOM      4  C   LIG    1       -3.725   3.352  -0.357  0.00  0.00    -0.075 C 
ATOM      5  C   LIG    1       -2.523   4.210   0.045  0.00  0.00    +0.009 C 
ATOM      6  C   LIG    1       -1.274   3.374   0.031  0.00  0.00    -0.025 C 
ATOM      7  C   LIG    1       -1.300   2.058   0.019  0.00  0.00    -0.042 C 
ATOM      8  C   LIG    1       -2.575   1.265   0.022  0.00  0.00    -0.042 C 
ENDROOT
BRANCH   7   9
ATOM      9  C   LIG    1       -0.016   1.328   0.009  0.00  0.00    +0.074 A 
ATOM     10  C   LIG    1        1.169   2.012   0.002  0.00  0.00    +0.076 A 
ATOM     11  S   LIG    1        2.336   0.658  -0.017  0.00  0.00    -0.060 S 
ATOM     12  C   LIG    1        1.141  -0.671  -0.012  0.00  0.00    +0.156 A 
ATOM     13  N   LIG    1        0.002  -0.004   0.002  0.00  0.00    -0.226 NA
BRANCH  12  14
ATOM     14  N   LIG    1        1.354  -2.040  -0.022  0.00  0.00    -0.338 N 
ATOM     15  H   LIG    1        2.379  -2.437  -0.034  0.00  0.00    +0.144 HD
ATOM     16  H   LIG    1        0.497  -2.730  -0.017  0.00  0.00    +0.144 HD
ENDBRANCH  12  14
ENDBRANCH   7   9
TORSDOF 2
