REMARK  Name = ZINC27439698
REMARK                            x       y       z     vdW  Elec       q    Type
REMARK                         _______ _______ _______ _____ _____    ______ ____
ROOT
ATOM      1  C   LIG    1        2.552  -2.713  -0.216  0.00  0.00    +0.077 A 
ATOM      2  C   LIG    1        3.705  -1.960  -0.183  0.00  0.00    +0.040 A 
ATOM      3  C   LIG    1        4.949  -2.600  -0.212  0.00  0.00    +0.042 A 
ATOM      4  C   LIG    1        5.015  -4.014  -0.275  0.00  0.00    +0.080 A 
ATOM      5  N   LIG    1        6.222  -4.601  -0.302  0.00  0.00    -0.235 NA
ATOM      6  C   LIG    1        7.316  -3.878  -0.269  0.00  0.00    +0.223 A 
ATOM      7  N   LIG    1        7.302  -2.556  -0.210  0.00  0.00    -0.220 NA
ATOM      8  C   LIG    1        3.831  -4.760  -0.308  0.00  0.00    +0.076 A 
ATOM      9  C   LIG    1        6.164  -1.875  -0.180  0.00  0.00    +0.134 A 
ATOM     10  C   LIG    1        2.616  -4.114  -0.273  0.00  0.00    +0.144 A 
ENDROOT
BRANCH   1  12
ATOM     11  C   LIG    1        1.189  -0.847   0.355  0.00  0.00    +0.241 C 
ATOM     12  N   LIG    1        1.305  -2.076  -0.186  0.00  0.00    -0.279 N 
ATOM     13  H   LIG    1        0.525  -2.519  -0.555  0.00  0.00    +0.155 HD
ATOM     14  O   LIG    1        2.143  -0.333   0.906  0.00  0.00    -0.271 OA
BRANCH  11  16
ATOM     15  C   LIG    1       -0.206   1.084   0.812  0.00  0.00    +0.013 C 
ATOM     16  C   LIG    1       -0.092  -0.128   0.279  0.00  0.00    +0.060 C 
ENDBRANCH  11  16
ENDBRANCH   1  12
BRANCH   9  17
ATOM     17  N   LIG    1        6.165  -0.496  -0.118  0.00  0.00    -0.299 N 
ATOM     18  H   LIG    1        5.331  -0.015  -0.003  0.00  0.00    +0.154 HD
BRANCH  17  19
ATOM     19  C   LIG    1        7.369   0.208  -0.223  0.00  0.00    +0.034 A 
ATOM     20  C   LIG    1        7.501   1.454   0.379  0.00  0.00    +0.026 A 
ATOM     21  C   LIG    1        8.691   2.147   0.275  0.00  0.00    +0.041 A 
ATOM     22  C   LIG    1        9.752   1.603  -0.428  0.00  0.00    +0.142 A 
ATOM     23  F   LIG    1       10.915   2.283  -0.528  0.00  0.00    -0.204 F 
ATOM     24  C   LIG    1        9.623   0.361  -1.029  0.00  0.00    +0.078 A 
ATOM     25 CL   LIG    1       10.956  -0.319  -1.911  0.00  0.00    -0.081 Cl
ATOM     26  C   LIG    1        8.436  -0.339  -0.922  0.00  0.00    +0.046 A 
ENDBRANCH  17  19
ENDBRANCH   9  17
BRANCH  10  27
ATOM     27  O   LIG    1        1.468  -4.839  -0.300  0.00  0.00    -0.490 OA
BRANCH  27  28
ATOM     28  C   LIG    1        1.600  -6.261  -0.359  0.00  0.00    +0.230 C 
BRANCH  28  29
ATOM     29  C   LIG    1        0.211  -6.901  -0.381  0.00  0.00    +0.056 C 
BRANCH  29  30
ATOM     30  C   LIG    1        0.352  -8.423  -0.444  0.00  0.00    +0.088 C 
BRANCH  30  31
ATOM     31  N   LIG    1       -0.982  -9.038  -0.466  0.00  0.00    -0.298 NA
ATOM     32  C   LIG    1       -1.688  -8.811   0.804  0.00  0.00    +0.112 C 
ATOM     33  C   LIG    1       -3.092  -9.415   0.716  0.00  0.00    +0.175 C 
ATOM     34  O   LIG    1       -2.989 -10.805   0.396  0.00  0.00    -0.377 OA
ATOM     35  C   LIG    1       -2.307 -11.063  -0.835  0.00  0.00    +0.175 C 
ATOM     36  C   LIG    1       -0.895 -10.475  -0.763  0.00  0.00    +0.112 C 
ENDBRANCH  30  31
ENDBRANCH  29  30
ENDBRANCH  28  29
ENDBRANCH  27  28
ENDBRANCH  10  27
TORSDOF 9
