REMARK  Name = ZINC43278259
REMARK                            x       y       z     vdW  Elec       q    Type
REMARK                         _______ _______ _______ _____ _____    ______ ____
ROOT
ATOM      1  N   LIG    1        2.261  -3.396  -3.947  0.00  0.00    -0.296 N 
ATOM      2  H   LIG    1        1.657  -4.146  -3.839  0.00  0.00    +0.151 HD
ATOM      3  C   LIG    1        3.413  -3.550  -4.631  0.00  0.00    +0.304 C 
ATOM      4  N   LIG    1        3.723  -4.748  -5.165  0.00  0.00    -0.269 N 
ATOM      5  H   LIG    1        3.152  -5.515  -5.001  0.00  0.00    +0.156 HD
ATOM      6  O   LIG    1        4.170  -2.609  -4.766  0.00  0.00    -0.253 OA
ENDROOT
BRANCH   1  10
ATOM      7  N   LIG    1        0.802  -0.411  -1.388  0.00  0.00    -0.181 NA
ATOM      8  C   LIG    1        0.054  -0.607  -2.637  0.00  0.00    +0.111 C 
ATOM      9  C   LIG    1        0.405  -1.982  -3.212  0.00  0.00    +0.039 C 
ATOM     10  C   LIG    1        1.924  -2.094  -3.366  0.00  0.00    +0.077 C 
ATOM     11  C   LIG    1        2.588  -1.960  -1.994  0.00  0.00    +0.039 C 
ATOM     12  C   LIG    1        2.262  -0.578  -1.406  0.00  0.00    +0.111 C 
BRANCH   7  14
ATOM     13  C   LIG    1       -0.014   1.811   0.016  0.00  0.00    +0.215 C 
ATOM     14  S   LIG    1        0.017  -0.003   0.011  0.00  0.00    +0.029 S 
ATOM     15  O   LIG    1       -1.299  -0.514  -0.149  0.00  0.00    -0.158 OA
ATOM     16  O   LIG    1        0.858  -0.481   1.052  0.00  0.00    -0.158 OA
ENDBRANCH   7  14
ENDBRANCH   1  10
BRANCH   4  17
ATOM     17  C   LIG    1        4.869  -4.885  -5.956  0.00  0.00    +0.035 A 
ATOM     18  C   LIG    1        4.864  -5.747  -7.045  0.00  0.00    +0.024 A 
ATOM     19  C   LIG    1        5.997  -5.880  -7.824  0.00  0.00    +0.014 A 
ATOM     20  C   LIG    1        7.135  -5.155  -7.522  0.00  0.00    +0.055 A 
ATOM     21  C   LIG    1        7.143  -4.296  -6.438  0.00  0.00    +0.014 A 
ATOM     22  C   LIG    1        6.012  -4.155  -5.658  0.00  0.00    +0.024 A 
BRANCH  20  23
ATOM     23  C   LIG    1        8.369  -5.303  -8.374  0.00  0.00    +0.417 C 
ATOM     24  F   LIG    1        8.413  -6.594  -8.911  0.00  0.00    -0.166 F 
ATOM     25  F   LIG    1        9.506  -5.084  -7.590  0.00  0.00    -0.166 F 
ATOM     26  F   LIG    1        8.332  -4.367  -9.413  0.00  0.00    -0.166 F 
ENDBRANCH  20  23
ENDBRANCH   4  17
TORSDOF 4
