REMARK  Name = ZINC00004351
REMARK                            x       y       z     vdW  Elec       q    Type
REMARK                         _______ _______ _______ _____ _____    ______ ____
ROOT
ATOM      1  C   LIG    1       -0.018   1.465   0.010  0.00  0.00    -0.096 C 
ATOM      2  N   LIG    1        0.002  -0.004   0.002  0.00  0.00    +0.378 N 
ATOM      3  H   LIG    1       -0.945  -0.351   0.014  0.00  0.00    -0.082 HD
ATOM      4  C   LIG    1        0.674  -0.475  -1.215  0.00  0.00    -0.075 C 
ATOM      5  C   LIG    1        0.545  -1.999  -1.313  0.00  0.00    +0.013 C 
ATOM      6  C   LIG    1        1.075  -2.602  -0.029  0.00  0.00    -0.065 C 
ATOM      7  C   LIG    1        0.586  -2.013   1.278  0.00  0.00    +0.013 C 
ATOM      8  C   LIG    1        1.946  -3.621  -0.048  0.00  0.00    -0.010 C 
ATOM      9  C   LIG    1        2.471  -4.230   1.204  0.00  0.00    -0.014 A 
ATOM     10  C   LIG    1        1.631  -4.903   2.083  0.00  0.00    +0.009 A 
ATOM     11  C   LIG    1        2.155  -5.472   3.227  0.00  0.00    +0.001 A 
ATOM     12  C   LIG    1        3.509  -5.375   3.495  0.00  0.00    +0.000 A 
ATOM     13  C   LIG    1        4.349  -4.700   2.626  0.00  0.00    +0.004 A 
ATOM     14  C   LIG    1        3.835  -4.119   1.488  0.00  0.00    -0.032 A 
ATOM     15  C   LIG    1        4.716  -3.334   0.549  0.00  0.00    +0.116 C 
ATOM     16  C   LIG    1        4.899  -4.101  -0.738  0.00  0.00    +0.175 C 
ATOM     17  C   LIG    1        3.820  -4.399  -1.562  0.00  0.00    +0.063 A 
ATOM     18  S   LIG    1        3.848  -5.143  -3.174  0.00  0.00    -0.093 S 
ATOM     19  C   LIG    1        2.185  -5.170  -3.485  0.00  0.00    +0.046 A 
ATOM     20  C   LIG    1        1.625  -4.628  -2.380  0.00  0.00    +0.017 A 
ATOM     21  O   LIG    1        6.012  -4.466  -1.060  0.00  0.00    -0.291 OA
ATOM     22  C   LIG    1        2.440  -4.216  -1.333  0.00  0.00    +0.000 A 
ATOM     23  C   LIG    1        0.712  -0.487   1.192  0.00  0.00    -0.075 C 
ENDROOT
TORSDOF 0
