REMARK  Name = ZINC26376363
REMARK                            x       y       z     vdW  Elec       q    Type
REMARK                         _______ _______ _______ _____ _____    ______ ____
ROOT
ATOM      1  C   LIG    1       -1.293  -0.797   1.148  0.00  0.00    +0.234 C 
ATOM      2  N   LIG    1       -0.274  -0.192   0.507  0.00  0.00    -0.304 N 
ATOM      3  H   LIG    1        0.548  -0.793   0.090  0.00  0.00    +0.149 HD
ATOM      4  O   LIG    1       -2.199  -0.135   1.608  0.00  0.00    -0.274 OA
ENDROOT
BRANCH   1  10
ATOM      5  C   LIG    1       -2.826  -2.370   3.286  0.00  0.00    +0.233 C 
ATOM      6  N   LIG    1       -2.513  -2.718   2.022  0.00  0.00    -0.289 N 
ATOM      7  C   LIG    1       -3.321  -3.583   1.144  0.00  0.00    +0.108 C 
ATOM      8  C   LIG    1       -2.311  -4.166   0.124  0.00  0.00    +0.021 C 
ATOM      9  C   LIG    1       -1.363  -2.959  -0.101  0.00  0.00    +0.033 C 
ATOM     10  C   LIG    1       -1.308  -2.297   1.292  0.00  0.00    +0.162 C 
ATOM     11  O   LIG    1       -2.084  -1.650   3.919  0.00  0.00    -0.274 OA
BRANCH   5  12
ATOM     12  C   LIG    1       -4.100  -2.876   3.913  0.00  0.00    +0.142 C 
BRANCH  12  13
ATOM     13  N   LIG    1       -4.460  -2.020   5.051  0.00  0.00    -0.320 NA
ATOM     14  H   LIG    1       -5.389  -2.390   5.509  0.00  0.00    +0.119 HD
ATOM     15  H   LIG    1       -4.608  -0.988   4.701  0.00  0.00    +0.119 HD
ENDBRANCH  12  13
BRANCH  12  16
ATOM     16  C   LIG    1       -3.894  -4.312   4.399  0.00  0.00    +0.063 C 
BRANCH  16  20
ATOM     17  C   LIG    1       -7.595  -5.868   5.858  0.00  0.00    +0.000 A 
ATOM     18  C   LIG    1       -7.256  -6.024   4.527  0.00  0.00    +0.000 A 
ATOM     19  C   LIG    1       -6.059  -5.521   4.055  0.00  0.00    +0.004 A 
ATOM     20  C   LIG    1       -5.200  -4.861   4.914  0.00  0.00    -0.045 A 
ATOM     21  C   LIG    1       -5.536  -4.709   6.246  0.00  0.00    +0.004 A 
ATOM     22  C   LIG    1       -6.736  -5.208   6.717  0.00  0.00    +0.000 A 
ENDBRANCH  16  20
ENDBRANCH  12  16
ENDBRANCH   5  12
ENDBRANCH   1  10
BRANCH   2  23
ATOM     23  C   LIG    1       -0.259   1.266   0.366  0.00  0.00    +0.141 C 
BRANCH  23  24
ATOM     24  C   LIG    1       -1.065   1.662  -0.844  0.00  0.00    +0.168 C 
ATOM     25  O   LIG    1       -1.366   0.831  -1.667  0.00  0.00    -0.294 OA
BRANCH  24  26
ATOM     26  C   LIG    1       -1.494   3.095  -1.028  0.00  0.00    +0.184 C 
ATOM     27 CL   LIG    1       -2.434   3.248  -2.559  0.00  0.00    -0.117 Cl
ENDBRANCH  24  26
ENDBRANCH  23  24
BRANCH  23  28
ATOM     28  C   LIG    1        1.183   1.748   0.199  0.00  0.00    +0.033 C 
BRANCH  28  29
ATOM     29  C   LIG    1        1.969   1.457   1.479  0.00  0.00    +0.039 C 
BRANCH  29  30
ATOM     30  C   LIG    1        3.412   1.940   1.312  0.00  0.00    +0.196 C 
BRANCH  30  31
ATOM     31  N   LIG    1        4.165   1.661   2.538  0.00  0.00    -0.279 N 
ATOM     32  H   LIG    1        3.877   2.145   3.482  0.00  0.00    +0.258 HD
ATOM     33  C   LIG    1        5.176   0.839   2.508  0.00  0.00    +0.341 C 
BRANCH  33  34
ATOM     34  N   LIG    1        5.801   0.477   3.678  0.00  0.00    -0.292 N 
ATOM     35  H   LIG    1        5.449   0.881   4.638  0.00  0.00    +0.255 HD
ATOM     36  H   LIG    1        6.655  -0.217   3.654  0.00  0.00    +0.255 HD
ENDBRANCH  33  34
BRANCH  33  37
ATOM     37  N   LIG    1        5.617   0.334   1.308  0.00  0.00    -0.292 N 
ATOM     38  H   LIG    1        5.116   0.623   0.372  0.00  0.00    +0.255 HD
ATOM     39  H   LIG    1        6.470  -0.360   1.284  0.00  0.00    +0.255 HD
ENDBRANCH  33  37
ENDBRANCH  30  31
ENDBRANCH  29  30
ENDBRANCH  28  29
ENDBRANCH  23  28
ENDBRANCH   2  23
TORSDOF 14
