REMARK  Name = ZINC27529346
REMARK                            x       y       z     vdW  Elec       q    Type
REMARK                         _______ _______ _______ _____ _____    ______ ____
ROOT
ATOM      1  N   LIG    1        1.280   3.393  -0.024  0.00  0.00    -0.124 NA
ATOM      2  C   LIG    1        1.097   2.036   0.186  0.00  0.00    +0.192 A 
ATOM      3  N   LIG    1       -0.024   1.337   0.204  0.00  0.00    -0.332 N 
ATOM      4  H   LIG    1       -0.988   1.838   0.035  0.00  0.00    +0.168 HD
ATOM      5  C   LIG    1       -0.015   0.030   0.423  0.00  0.00    +0.055 A 
ATOM      6  C   LIG    1        1.176  -0.607   0.635  0.00  0.00    +0.075 A 
ATOM      7  S   LIG    1        2.314   0.766   0.506  0.00  0.00    -0.056 S 
ENDROOT
BRANCH   1  14
ATOM      8  C   LIG    1        3.337   9.053   1.691  0.00  0.00    +0.007 C 
ATOM      9  C   LIG    1        3.132   7.909   0.695  0.00  0.00    -0.013 C 
ATOM     10  C   LIG    1        4.271   6.899   0.841  0.00  0.00    +0.009 C 
ATOM     11  C   LIG    1        4.117   5.802  -0.218  0.00  0.00    +0.053 C 
ATOM     12  C   LIG    1        2.733   5.204  -0.093  0.00  0.00    +0.041 C 
ATOM     13  C   LIG    1        1.545   6.141  -0.085  0.00  0.00    +0.053 C 
ATOM     14  N   LIG    1        2.571   3.937  -0.001  0.00  0.00    -0.156 NA
ATOM     15  C   LIG    1        1.793   7.226   0.975  0.00  0.00    +0.009 C 
ENDBRANCH   1  14
BRANCH   5  16
ATOM     16  C   LIG    1       -1.285  -0.735   0.438  0.00  0.00    -0.001 A 
ATOM     17  C   LIG    1       -1.270  -2.111   0.663  0.00  0.00    +0.013 A 
ATOM     18  C   LIG    1       -2.454  -2.819   0.681  0.00  0.00    +0.046 A 
ATOM     19  C   LIG    1       -3.659  -2.164   0.466  0.00  0.00    +0.120 A 
ATOM     20  C   LIG    1       -3.677  -0.795   0.236  0.00  0.00    +0.046 A 
ATOM     21  C   LIG    1       -2.497  -0.081   0.222  0.00  0.00    +0.013 A 
BRANCH  19  22
ATOM     22  O   LIG    1       -4.823  -2.865   0.480  0.00  0.00    -0.495 OA
ATOM     23  C   LIG    1       -4.731  -4.271   0.722  0.00  0.00    +0.277 C 
ENDBRANCH  19  22
ENDBRANCH   5  16
TORSDOF 3
