REMARK  Name = ZINC58592550
REMARK                            x       y       z     vdW  Elec       q    Type
REMARK                         _______ _______ _______ _____ _____    ______ ____
ROOT
ATOM      1  C   LIG    1       -2.571  -2.688   0.012  0.00  0.00    +0.247 C 
ENDROOT
BRANCH   1   2
ATOM      2  C   LIG    1       -1.136  -2.159   0.001  0.00  0.00    +0.145 C 
BRANCH   2   5
ATOM      3  C   LIG    1       -0.018   1.503   0.010  0.00  0.00    +0.109 C 
ATOM      4  C   LIG    1        0.002  -0.004   0.002  0.00  0.00    +0.210 C 
ATOM      5  N   LIG    1       -1.156  -0.694   0.009  0.00  0.00    -0.312 N 
ATOM      6  H   LIG    1       -2.002  -0.220   0.020  0.00  0.00    +0.149 HD
ATOM      7  O   LIG    1        1.060  -0.596  -0.011  0.00  0.00    -0.276 OA
ENDBRANCH   2   5
ENDBRANCH   1   2
BRANCH   1   8
ATOM      8  O   LIG    1       -3.227  -2.312  -1.201  0.00  0.00    -0.490 OA
BRANCH   8   9
ATOM      9  C   LIG    1       -4.519  -2.707  -1.352  0.00  0.00    +0.121 A 
ATOM     10  C   LIG    1       -5.144  -3.436  -0.351  0.00  0.00    +0.045 A 
ATOM     11  C   LIG    1       -6.457  -3.836  -0.507  0.00  0.00    +0.004 A 
ATOM     12  C   LIG    1       -7.148  -3.511  -1.659  0.00  0.00    +0.000 A 
ATOM     13  C   LIG    1       -6.527  -2.784  -2.659  0.00  0.00    +0.004 A 
ATOM     14  C   LIG    1       -5.216  -2.377  -2.505  0.00  0.00    +0.045 A 
ENDBRANCH   8   9
ENDBRANCH   1   8
TORSDOF 4
