REMARK  Name = ZINC53147203
REMARK                            x       y       z     vdW  Elec       q    Type
REMARK                         _______ _______ _______ _____ _____    ______ ____
ROOT
ATOM      1  N   PHE A  4       -7.358  -1.080   2.446  0.00  0.00    -0.302 N 
ATOM      2  H   PHE A  4       -7.819  -1.561   1.742  0.00  0.00    +0.150 HD
ATOM      3  C   GLY A  3       -8.041  -0.239   3.248  0.00  0.00    +0.231 C 
ATOM      4  O   GLY A  3       -7.464   0.363   4.128  0.00  0.00    -0.274 OA
ENDROOT
BRANCH   3   5
ATOM      5  CA  GLY A  3       -9.522  -0.046   3.049  0.00  0.00    +0.200 C 
BRANCH   5   6
ATOM      6  N   GLY A  3      -10.027   0.910   4.038  0.00  0.00    -0.305 N 
ATOM      7  H   GLY A  3       -9.421   1.306   4.684  0.00  0.00    +0.149 HD
ATOM      8  C   GLY A  2      -11.334   1.239   4.052  0.00  0.00    +0.231 C 
ATOM      9  O   GLY A  2      -12.092   0.744   3.245  0.00  0.00    -0.274 OA
BRANCH   8  10
ATOM     10  CA  GLY A  2      -11.853   2.222   5.069  0.00  0.00    +0.200 C 
BRANCH  10  11
ATOM     11  N   GLY A  2      -13.293   2.410   4.876  0.00  0.00    -0.305 N 
ATOM     12  H   GLY A  2      -13.755   1.929   4.172  0.00  0.00    +0.149 HD
ATOM     13  C   TYR A  1      -13.976   3.251   5.678  0.00  0.00    +0.231 C 
ATOM     14  O   TYR A  1      -13.399   3.852   6.558  0.00  0.00    -0.274 OA
BRANCH  13  15
ATOM     15  CA  TYR A  1      -15.458   3.444   5.479  0.00  0.00    +0.142 C 
BRANCH  15  16
ATOM     16  N   TYR A  1      -16.049   3.992   6.707  0.00  0.00    -0.320 NA
ATOM     17  H1  TYR A  1      -15.635   4.882   6.942  0.00  0.00    +0.119 HD
ATOM     18  H2  TYR A  1      -15.962   3.340   7.472  0.00  0.00    +0.119 HD
ENDBRANCH  15  16
BRANCH  15  19
ATOM     19  CB  TYR A  1      -15.695   4.415   4.321  0.00  0.00    +0.063 C 
BRANCH  19  20
ATOM     20  CG  TYR A  1      -17.173   4.514   4.043  0.00  0.00    -0.045 A 
ATOM     21  CD2 TYR A  1      -17.764   3.649   3.141  0.00  0.00    +0.007 A 
ATOM     22  CE2 TYR A  1      -19.119   3.737   2.884  0.00  0.00    +0.045 A 
ATOM     23  CZ  TYR A  1      -19.885   4.695   3.531  0.00  0.00    +0.117 A 
ATOM     24  CE1 TYR A  1      -19.290   5.562   4.436  0.00  0.00    +0.045 A 
ATOM     25  CD1 TYR A  1      -17.936   5.466   4.694  0.00  0.00    +0.007 A 
BRANCH  23  26
ATOM     26  OH  TYR A  1      -21.218   4.784   3.280  0.00  0.00    -0.507 OA
ATOM     27  HH  TYR A  1      -21.765   4.239   3.860  0.00  0.00    +0.292 HD
ENDBRANCH  23  26
ENDBRANCH  19  20
ENDBRANCH  15  19
ENDBRANCH  13  15
ENDBRANCH  10  11
ENDBRANCH   8  10
ENDBRANCH   5   6
ENDBRANCH   3   5
BRANCH   1  28
ATOM     28  CA  PHE A  4       -5.918  -1.268   2.639  0.00  0.00    +0.163 C 
BRANCH  28  31
ATOM     29  N   MET A  5       -3.966  -1.949   1.281  0.00  0.00    -0.301 N 
ATOM     30  H   MET A  5       -3.415  -1.832   2.071  0.00  0.00    +0.150 HD
ATOM     31  C   PHE A  4       -5.291  -1.713   1.343  0.00  0.00    +0.234 C 
ATOM     32  O   PHE A  4       -5.980  -1.859   0.355  0.00  0.00    -0.274 OA
BRANCH  29  33
ATOM     33  CA  MET A  5       -3.356  -2.382   0.021  0.00  0.00    +0.182 C 
BRANCH  33  34
ATOM     34  C   MET A  5       -3.482  -3.878  -0.109  0.00  0.00    +0.325 C 
ATOM     35  O   MET A  5       -3.861  -4.543   0.840  0.00  0.00    -0.249 OA
BRANCH  34  36
ATOM     36  OXT MET A  5       -3.205  -4.423  -1.164  0.00  0.00    -0.479 OA
ATOM     37  HXT MET A  5       -2.914  -3.912  -1.893  0.00  0.00    +0.295 HD
ENDBRANCH  34  36
ENDBRANCH  33  34
BRANCH  33  38
ATOM     38  CB  MET A  5       -1.877  -1.992   0.009  0.00  0.00    +0.044 C 
BRANCH  38  39
ATOM     39  CG  MET A  5       -1.752  -0.467   0.016  0.00  0.00    +0.071 C 
BRANCH  39  41
ATOM     40  CE  MET A  5       -0.022   1.810   0.012  0.00  0.00    +0.084 C 
ATOM     41  SD  MET A  5        0.002  -0.004   0.002  0.00  0.00    -0.164 S 
ENDBRANCH  39  41
ENDBRANCH  38  39
ENDBRANCH  33  38
ENDBRANCH  29  33
ENDBRANCH  28  31
BRANCH  28  42
ATOM     42  CB  PHE A  4       -5.681  -2.332   3.712  0.00  0.00    +0.067 C 
BRANCH  42  43
ATOM     43  CG  PHE A  4       -6.199  -1.834   5.037  0.00  0.00    -0.045 A 
ATOM     44  CD2 PHE A  4       -5.367  -1.122   5.881  0.00  0.00    +0.004 A 
ATOM     45  CE2 PHE A  4       -5.843  -0.665   7.096  0.00  0.00    +0.000 A 
ATOM     46  CZ  PHE A  4       -7.150  -0.919   7.467  0.00  0.00    +0.000 A 
ATOM     47  CE1 PHE A  4       -7.982  -1.631   6.622  0.00  0.00    +0.000 A 
ATOM     48  CD1 PHE A  4       -7.508  -2.084   5.405  0.00  0.00    +0.004 A 
ENDBRANCH  42  43
ENDBRANCH  28  42
ENDBRANCH   1  28
TORSDOF 19
