REMARK  Name = ZINC58633224
REMARK                            x       y       z     vdW  Elec       q    Type
REMARK                         _______ _______ _______ _____ _____    ______ ____
ROOT
ATOM      1  C   LIG    1        0.006   1.464  -0.333  0.00  0.00    +0.154 C 
ATOM      2  N   LIG    1        0.019   0.007  -0.174  0.00  0.00    -0.293 N 
ATOM      3  C   LIG    1       -1.167  -0.667  -0.030  0.00  0.00    +0.148 A 
ATOM      4  C   LIG    1       -1.158  -2.070   0.123  0.00  0.00    +0.039 A 
ATOM      5  C   LIG    1       -2.377  -2.740   0.268  0.00  0.00    +0.126 A 
ATOM      6  N   LIG    1       -3.491  -2.029   0.256  0.00  0.00    -0.222 NA
ATOM      7  C   LIG    1       -3.463  -0.709   0.110  0.00  0.00    +0.217 A 
ATOM      8  C   LIG    1        0.118  -2.780   0.125  0.00  0.00    +0.065 A 
ATOM      9  C   LIG    1        1.261  -2.054  -0.022  0.00  0.00    +0.193 A 
ATOM     10  N   LIG    1       -2.333  -0.033  -0.030  0.00  0.00    -0.196 NA
ATOM     11  C   LIG    1        1.193  -0.649  -0.177  0.00  0.00    +0.295 A 
ATOM     12  O   LIG    1        2.226  -0.016  -0.312  0.00  0.00    -0.264 OA
ENDROOT
BRANCH   7  13
ATOM     13  N   LIG    1       -4.658  -0.015   0.105  0.00  0.00    -0.310 N 
ATOM     14  H   LIG    1       -4.658   0.949  -0.001  0.00  0.00    +0.149 HD
BRANCH  13  15
ATOM     15  C   LIG    1       -5.924  -0.736   0.258  0.00  0.00    +0.077 C 
ATOM     16  C   LIG    1       -6.394  -1.243  -1.109  0.00  0.00    +0.050 C 
ATOM     17  C   LIG    1       -7.755  -1.926  -0.951  0.00  0.00    +0.161 C 
ATOM     18  O   LIG    1       -8.687  -1.002  -0.384  0.00  0.00    -0.380 OA
ATOM     19  C   LIG    1       -8.323  -0.531   0.915  0.00  0.00    +0.161 C 
ATOM     20  C   LIG    1       -6.985   0.208   0.832  0.00  0.00    +0.050 C 
ENDBRANCH  13  15
ENDBRANCH   7  13
BRANCH   9  21
ATOM     21  O   LIG    1        2.468  -2.680  -0.025  0.00  0.00    -0.448 OA
BRANCH  21  22
ATOM     22  C   LIG    1        3.314  -2.440   1.012  0.00  0.00    +0.164 A 
ATOM     23  C   LIG    1        2.893  -1.672   2.087  0.00  0.00    +0.052 A 
ATOM     24  C   LIG    1        3.754  -1.429   3.141  0.00  0.00    +0.042 A 
ATOM     25  C   LIG    1        5.036  -1.951   3.124  0.00  0.00    +0.126 A 
ATOM     26  F   LIG    1        5.876  -1.711   4.155  0.00  0.00    -0.205 F 
ATOM     27  C   LIG    1        5.460  -2.717   2.051  0.00  0.00    +0.080 A 
ATOM     28  C   LIG    1        4.599  -2.968   0.998  0.00  0.00    +0.168 A 
ATOM     29  F   LIG    1        5.009  -3.721  -0.046  0.00  0.00    -0.202 F 
ENDBRANCH  21  22
ENDBRANCH   9  21
TORSDOF 4
