REMARK  Name = ZINC25627477
REMARK                            x       y       z     vdW  Elec       q    Type
REMARK                         _______ _______ _______ _____ _____    ______ ____
ROOT
ATOM      1  C   LIG    1        1.151   3.592   0.010  0.00  0.00    +0.258 C 
ENDROOT
BRANCH   1   5
ATOM      2  C   LIG    1        1.208  -0.679  -0.014  0.00  0.00    +0.000 A 
ATOM      3  C   LIG    1        0.002  -0.004   0.002  0.00  0.00    +0.000 A 
ATOM      4  C   LIG    1       -0.017   1.378   0.010  0.00  0.00    +0.007 A 
ATOM      5  C   LIG    1        1.171   2.086   0.002  0.00  0.00    -0.007 A 
ATOM      6  C   LIG    1        2.377   1.411  -0.014  0.00  0.00    +0.007 A 
ATOM      7  C   LIG    1        2.396   0.029  -0.021  0.00  0.00    +0.000 A 
ENDBRANCH   1   5
BRANCH   1   8
ATOM      8  P   LIG    1        1.158   4.191   1.732  0.00  0.00    +0.360 P 
ATOM      9  O   LIG    1       -0.037   3.678   2.438  0.00  0.00    -0.256 OA
BRANCH   8  10
ATOM     10  O   LIG    1        1.137   5.801   1.740  0.00  0.00    -0.322 OA
ATOM     11  H   LIG    1        1.138   6.346   2.696  0.00  0.00    +0.220 HD
ENDBRANCH   8  10
BRANCH   8  12
ATOM     12  O   LIG    1        2.487   3.669   2.476  0.00  0.00    -0.322 OA
ATOM     13  H   LIG    1        2.500   2.699   2.471  0.00  0.00    +0.220 HD
ENDBRANCH   8  12
ENDBRANCH   1   8
BRANCH   1  14
ATOM     14  O   LIG    1        2.304   4.088  -0.672  0.00  0.00    -0.375 OA
ATOM     15  H   LIG    1        2.463   5.172  -0.769  0.00  0.00    +0.211 HD
ENDBRANCH   1  14
TORSDOF 5
