REMARK  Name = ZINC14977637
REMARK                            x       y       z     vdW  Elec       q    Type
REMARK                         _______ _______ _______ _____ _____    ______ ____
ROOT
ATOM      1  C   LIG    1        1.750   4.924  -1.461  0.00  0.00    +0.009 A 
ATOM      2  C   LIG    1        1.128   5.956  -2.093  0.00  0.00    +0.064 A 
ATOM      3  C   LIG    1        1.666   6.416  -3.373  0.00  0.00    +0.083 A 
ATOM      4  C   LIG    1        1.189   7.505  -4.251  0.00  0.00    +0.265 A 
ATOM      5  N   LIG    1        1.839   7.756  -5.401  0.00  0.00    -0.263 N 
ATOM      6  C   LIG    1        1.363   8.837  -6.268  0.00  0.00    +0.157 C 
ATOM      7  C   LIG    1        2.914   7.044  -5.777  0.00  0.00    +0.333 A 
ATOM      8  N   LIG    1        3.389   6.041  -5.013  0.00  0.00    -0.287 N 
ATOM      9  O   LIG    1        3.469   7.309  -6.826  0.00  0.00    -0.246 OA
ATOM     10  O   LIG    1        0.217   8.168  -3.937  0.00  0.00    -0.267 OA
ATOM     11  C   LIG    1        2.785   5.723  -3.829  0.00  0.00    +0.097 A 
ATOM     12  S   LIG    1        3.085   4.513  -2.568  0.00  0.00    -0.074 S 
ENDROOT
BRANCH   2  13
ATOM     13  C   LIG    1       -0.055   6.598  -1.501  0.00  0.00    +0.271 C 
ATOM     14  N   LIG    1       -1.268   6.022  -1.627  0.00  0.00    -0.174 N 
ATOM     15  C   LIG    1       -2.510   6.490  -0.989  0.00  0.00    +0.174 C 
ATOM     16  C   LIG    1       -3.586   5.458  -1.401  0.00  0.00    +0.162 C 
ATOM     17  C   LIG    1       -2.715   4.237  -1.799  0.00  0.00    +0.223 C 
ATOM     18  O   LIG    1       -1.560   4.867  -2.403  0.00  0.00    -0.274 OA
ATOM     19  O   LIG    1        0.060   7.648  -0.897  0.00  0.00    -0.268 OA
BRANCH  16  20
ATOM     20  O   LIG    1       -4.439   5.140  -0.300  0.00  0.00    -0.388 OA
ATOM     21  H   LIG    1       -5.129   4.496  -0.510  0.00  0.00    +0.210 HD
ENDBRANCH  16  20
ENDBRANCH   2  13
BRANCH   1  22
ATOM     22  C   LIG    1        1.392   4.279  -0.146  0.00  0.00    +0.082 C 
BRANCH  22  25
ATOM     23  C   LIG    1        0.530   6.612   1.752  0.00  0.00    +0.065 C 
ATOM     24  C   LIG    1        1.854   5.893   1.774  0.00  0.00    +0.037 A 
ATOM     25  C   LIG    1        2.227   4.883   0.953  0.00  0.00    +0.000 A 
ATOM     26  C   LIG    1        3.525   4.500   1.305  0.00  0.00    +0.063 A 
ATOM     27  C   LIG    1        4.333   3.409   0.650  0.00  0.00    +0.068 C 
ATOM     28  N   LIG    1        3.920   5.255   2.298  0.00  0.00    -0.179 NA
ATOM     29  N   LIG    1        2.880   6.139   2.615  0.00  0.00    -0.281 N 
ATOM     30  H   LIG    1        2.895   6.830   3.338  0.00  0.00    +0.189 HD
ENDBRANCH  22  25
ENDBRANCH   1  22
BRANCH   8  31
ATOM     31  C   LIG    1        4.564   5.285  -5.454  0.00  0.00    +0.130 C 
BRANCH  31  32
ATOM     32  C   LIG    1        4.114   4.090  -6.297  0.00  0.00    +0.003 C 
ATOM     33  C   LIG    1        5.330   3.232  -6.654  0.00  0.00    +0.009 C 
ATOM     34  C   LIG    1        3.450   4.592  -7.581  0.00  0.00    +0.009 C 
ENDBRANCH  31  32
ENDBRANCH   8  31
TORSDOF 6
