REMARK  Name = ZINC59193775
REMARK                            x       y       z     vdW  Elec       q    Type
REMARK                         _______ _______ _______ _____ _____    ______ ____
ROOT
ATOM      1  C   LIG    1        3.656   2.167  -0.055  0.00  0.00    +0.082 A 
ATOM      2  C   LIG    1        4.849   1.508   0.043  0.00  0.00    +0.077 A 
ATOM      3  S   LIG    1        5.993   2.882   0.004  0.00  0.00    -0.059 S 
ATOM      4  C   LIG    1        4.775   4.182  -0.138  0.00  0.00    +0.178 A 
ATOM      5  N   LIG    1        3.650   3.489  -0.149  0.00  0.00    -0.224 NA
ENDROOT
BRANCH   1   8
ATOM      6  C   LIG    1        0.962  -0.282   0.877  0.00  0.00    +0.021 A 
ATOM      7  C   LIG    1        2.150   0.419   0.888  0.00  0.00    +0.013 A 
ATOM      8  C   LIG    1        2.381   1.410  -0.063  0.00  0.00    +0.019 A 
ATOM      9  C   LIG    1        1.408   1.689  -1.023  0.00  0.00    +0.052 A 
ATOM     10 CL   LIG    1        1.686   2.923  -2.212  0.00  0.00    -0.083 Cl
ATOM     11  C   LIG    1        0.222   0.981  -1.026  0.00  0.00    +0.040 A 
ATOM     12  C   LIG    1       -0.001  -0.003  -0.077  0.00  0.00    +0.042 A 
ATOM     13 CL   LIG    1       -1.494  -0.889  -0.086  0.00  0.00    -0.083 Cl
ENDBRANCH   1   8
BRANCH   4  14
ATOM     14  N   LIG    1        4.961   5.552  -0.221  0.00  0.00    -0.215 N 
ATOM     15  H   LIG    1        4.194   6.142  -0.294  0.00  0.00    +0.176 HD
BRANCH  14  16
ATOM     16  N   LIG    1        6.256   6.086  -0.197  0.00  0.00    -0.190 NA
ATOM     17  C   LIG    1        6.425   7.355  -0.179  0.00  0.00    +0.037 C 
ATOM     18  C   LIG    1        5.228   8.290  -0.043  0.00  0.00    +0.052 C 
ATOM     19  C   LIG    1        5.551   9.458   0.849  0.00  0.00    +0.006 C 
ATOM     20  C   LIG    1        6.136  10.607   0.015  0.00  0.00    +0.000 C 
ATOM     21  C   LIG    1        7.558  10.421  -0.283  0.00  0.00    +0.000 C 
ATOM     22  C   LIG    1        7.824   9.184  -1.151  0.00  0.00    +0.006 C 
ATOM     23  C   LIG    1        7.827   7.947  -0.287  0.00  0.00    +0.052 C 
ENDBRANCH  14  16
ENDBRANCH   4  14
TORSDOF 3
