REMARK  Name = ZINC28234701
REMARK                            x       y       z     vdW  Elec       q    Type
REMARK                         _______ _______ _______ _____ _____    ______ ____
ROOT
ATOM      1  N   LIG    1       -3.008   0.554  -0.879  0.00  0.00    +0.387 N 
ATOM      2  H   LIG    1       -2.812  -0.173  -0.077  0.00  0.00    -0.085 HD
ATOM      3  H   LIG    1       -2.718   0.118  -1.847  0.00  0.00    -0.085 HD
ENDROOT
BRANCH   1  11
ATOM      4  C   LIG    1       -1.237   2.204   3.490  0.00  0.00    +0.000 A 
ATOM      5  C   LIG    1       -2.509   2.599   3.119  0.00  0.00    +0.000 A 
ATOM      6  C   LIG    1       -2.907   2.492   1.801  0.00  0.00    +0.002 A 
ATOM      7  C   LIG    1       -2.036   1.989   0.849  0.00  0.00    -0.058 A 
ATOM      8  C   LIG    1       -0.762   1.594   1.221  0.00  0.00    -0.046 A 
ATOM      9  C   LIG    1       -0.013   1.086   0.008  0.00  0.00    +0.034 C 
ATOM     10  C   LIG    1       -0.800   1.617  -1.208  0.00  0.00    -0.007 C 
ATOM     11  C   LIG    1       -2.226   1.774  -0.637  0.00  0.00    -0.040 C 
ATOM     12  C   LIG    1       -0.367   1.702   2.542  0.00  0.00    +0.004 A 
ENDBRANCH   1  11
BRANCH   1  13
ATOM     13  C   LIG    1       -4.447   0.848  -0.907  0.00  0.00    -0.042 C 
ATOM     14  C   LIG    1       -4.847   1.305  -2.312  0.00  0.00    -0.013 C 
ATOM     15  C   LIG    1       -6.346   1.612  -2.341  0.00  0.00    -0.001 C 
ATOM     16  C   LIG    1       -7.131   0.352  -1.971  0.00  0.00    +0.002 C 
ATOM     17  C   LIG    1       -6.731  -0.105  -0.567  0.00  0.00    +0.030 C 
ATOM     18  C   LIG    1       -5.233  -0.411  -0.537  0.00  0.00    +0.101 C 
BRANCH  18  19
ATOM     19  O   LIG    1       -4.859  -0.838   0.774  0.00  0.00    -0.393 OA
ATOM     20  H   LIG    1       -5.322  -1.733   1.214  0.00  0.00    +0.210 HD
ENDBRANCH  18  19
ENDBRANCH   1  13
TORSDOF 3
