REMARK  Name = ZINC49775513
REMARK                            x       y       z     vdW  Elec       q    Type
REMARK                         _______ _______ _______ _____ _____    ______ ____
ROOT
ATOM      1  C   LIG    1       -0.299  -4.189  -3.369  0.00  0.00    -0.004 C 
ATOM      2  C   LIG    1        0.769  -4.301  -4.281  0.00  0.00    -0.017 C 
ATOM      3  C   LIG    1        1.911  -3.484  -4.133  0.00  0.00    +0.010 C 
ATOM      4  C   LIG    1        2.939  -3.591  -5.009  0.00  0.00    +0.028 C 
ATOM      5  C   LIG    1        2.868  -4.521  -6.071  0.00  0.00    +0.065 C 
ATOM      6  C   LIG    1        1.724  -5.338  -6.218  0.00  0.00    +0.028 C 
ATOM      7  N   LIG    1        3.881  -4.627  -6.935  0.00  0.00    -0.248 NA
ATOM      8  C   LIG    1        0.700  -5.234  -5.338  0.00  0.00    +0.010 C 
ENDROOT
BRANCH   1  12
ATOM      9  C   LIG    1       -0.098   0.531  -1.812  0.00  0.00    +0.046 C 
ATOM     10  C   LIG    1       -0.131  -0.946  -1.517  0.00  0.00    -0.027 A 
ATOM     11  C   LIG    1       -0.197  -1.845  -2.543  0.00  0.00    +0.013 A 
ATOM     12  C   LIG    1       -0.228  -3.219  -2.268  0.00  0.00    -0.015 A 
ATOM     13  C   LIG    1       -0.190  -3.664  -0.939  0.00  0.00    +0.040 A 
ATOM     14  C   LIG    1       -0.123  -2.758   0.080  0.00  0.00    +0.138 A 
ATOM     15  C   LIG    1       -0.087  -1.393  -0.198  0.00  0.00    +0.055 A 
BRANCH  14  16
ATOM     16  S   LIG    1       -0.075  -3.317   1.751  0.00  0.00    +0.111 S 
ATOM     17  O   LIG    1       -0.839  -2.361   2.538  0.00  0.00    -0.142 OA
ATOM     18  O   LIG    1        1.325  -3.350   2.145  0.00  0.00    -0.142 OA
BRANCH  16  19
ATOM     19  O   LIG    1       -0.677  -4.641   1.771  0.00  0.00    -0.250 OA
ATOM     20  H   LIG    1       -0.141  -5.248   1.237  0.00  0.00    +0.245 HD
ENDBRANCH  16  19
ENDBRANCH  14  16
BRANCH  15  21
ATOM     21  N   LIG    1       -0.014  -0.475   0.843  0.00  0.00    -0.356 N 
ATOM     22  H   LIG    1        0.160  -0.780   1.747  0.00  0.00    +0.142 HD
ATOM     23  H   LIG    1       -0.136   0.470   0.665  0.00  0.00    +0.142 HD
ENDBRANCH  15  21
ENDBRANCH   1  12
BRANCH   1  24
ATOM     24  C   LIG    1       -1.485  -5.043  -3.518  0.00  0.00    -0.017 A 
ATOM     25  C   LIG    1       -2.729  -4.473  -3.823  0.00  0.00    +0.010 A 
ATOM     26  C   LIG    1       -3.828  -5.270  -3.962  0.00  0.00    +0.024 A 
ATOM     27  C   LIG    1       -3.715  -6.650  -3.801  0.00  0.00    +0.031 A 
ATOM     28  C   LIG    1       -2.481  -7.222  -3.498  0.00  0.00    +0.024 A 
ATOM     29  C   LIG    1       -1.375  -6.432  -3.363  0.00  0.00    +0.010 A 
BRANCH  27  30
ATOM     30  N   LIG    1       -4.837  -7.458  -3.943  0.00  0.00    -0.314 N 
ATOM     31  H   LIG    1       -4.909  -8.281  -3.435  0.00  0.00    +0.152 HD
BRANCH  30  32
ATOM     32  C   LIG    1       -5.861  -7.085  -4.816  0.00  0.00    +0.031 A 
ATOM     33  C   LIG    1       -5.568  -6.353  -5.961  0.00  0.00    +0.025 A 
ATOM     34  C   LIG    1       -6.583  -5.985  -6.822  0.00  0.00    +0.031 A 
ATOM     35  C   LIG    1       -7.890  -6.344  -6.547  0.00  0.00    +0.117 A 
ATOM     36  C   LIG    1       -8.185  -7.072  -5.409  0.00  0.00    +0.031 A 
ATOM     37  C   LIG    1       -7.175  -7.448  -4.546  0.00  0.00    +0.025 A 
BRANCH  35  38
ATOM     38  S   LIG    1       -9.181  -5.873  -7.649  0.00  0.00    +0.110 S 
ATOM     39  O   LIG    1       -8.773  -4.622  -8.268  0.00  0.00    -0.142 OA
ATOM     40  O   LIG    1      -10.384  -5.715  -6.846  0.00  0.00    -0.142 OA
BRANCH  38  41
ATOM     41  O   LIG    1       -9.316  -6.944  -8.624  0.00  0.00    -0.250 OA
ATOM     42  H   LIG    1       -9.589  -7.759  -8.175  0.00  0.00    +0.245 HD
ENDBRANCH  38  41
ENDBRANCH  35  38
ENDBRANCH  30  32
ENDBRANCH  27  30
ENDBRANCH   1  24
BRANCH   7  43
ATOM     43  C   LIG    1        3.759  -5.421  -8.032  0.00  0.00    +0.065 A 
ATOM     44  C   LIG    1        2.707  -5.220  -8.934  0.00  0.00    +0.030 A 
ATOM     45  C   LIG    1        2.591  -6.029 -10.043  0.00  0.00    +0.031 A 
ATOM     46  C   LIG    1        3.510  -7.040 -10.267  0.00  0.00    +0.117 A 
ATOM     47  C   LIG    1        4.553  -7.247  -9.380  0.00  0.00    +0.031 A 
ATOM     48  C   LIG    1        4.688  -6.443  -8.269  0.00  0.00    +0.030 A 
BRANCH  46  49
ATOM     49  S   LIG    1        3.352  -8.070 -11.688  0.00  0.00    +0.110 S 
ATOM     50  O   LIG    1        1.932  -8.147 -11.998  0.00  0.00    -0.142 OA
ATOM     51  O   LIG    1        3.902  -9.368 -11.332  0.00  0.00    -0.142 OA
BRANCH  49  52
ATOM     52  O   LIG    1        4.107  -7.434 -12.756  0.00  0.00    -0.250 OA
ATOM     53  H   LIG    1        5.045  -7.401 -12.514  0.00  0.00    +0.245 HD
ENDBRANCH  49  52
ENDBRANCH  46  49
ENDBRANCH   7  43
TORSDOF 12
