REMARK  Name = ZINC45300069
REMARK                            x       y       z     vdW  Elec       q    Type
REMARK                         _______ _______ _______ _____ _____    ______ ____
ROOT
ATOM      1  C   LIG    1        0.606  -0.607  -1.056  0.00  0.00    +0.149 A 
ATOM      2  C   LIG    1        1.173   0.161  -2.062  0.00  0.00    +0.080 A 
ATOM      3  C   LIG    1        1.786  -0.455  -3.136  0.00  0.00    +0.125 A 
ATOM      4  C   LIG    1        1.836  -1.835  -3.208  0.00  0.00    +0.035 A 
ATOM      5  C   LIG    1        1.271  -2.602  -2.207  0.00  0.00    +0.035 A 
ATOM      6  C   LIG    1        0.661  -1.991  -1.128  0.00  0.00    +0.150 A 
ENDROOT
BRANCH   6   7
ATOM      7  S   LIG    1       -0.052  -2.970   0.152  0.00  0.00    +0.076 S 
ATOM      8  O   LIG    1        0.188  -4.327  -0.193  0.00  0.00    -0.150 OA
ATOM      9  O   LIG    1       -1.360  -2.460   0.372  0.00  0.00    -0.150 OA
BRANCH   7  10
ATOM     10  N   LIG    1        0.810  -2.673   1.534  0.00  0.00    -0.215 N 
ATOM     11  H   LIG    1        1.329  -3.383   1.944  0.00  0.00    +0.174 HD
BRANCH  10  12
ATOM     12  C   LIG    1        0.792  -1.400   2.109  0.00  0.00    +0.066 A 
ATOM     13  C   LIG    1        1.973  -0.803   2.543  0.00  0.00    +0.027 A 
ATOM     14  C   LIG    1        1.904   0.460   3.107  0.00  0.00    +0.022 A 
ATOM     15  C   LIG    1        0.674   1.083   3.219  0.00  0.00    +0.111 A 
ATOM     16  N   LIG    1       -0.426   0.491   2.798  0.00  0.00    -0.261 NA
ATOM     17  C   LIG    1       -0.404  -0.708   2.251  0.00  0.00    +0.135 A 
ENDBRANCH  10  12
ENDBRANCH   7  10
ENDBRANCH   6   7
BRANCH   1  19
ATOM     18  C   LIG    1       -0.017   1.425   0.010  0.00  0.00    +0.277 C 
ATOM     19  O   LIG    1        0.002  -0.004   0.002  0.00  0.00    -0.493 OA
ENDBRANCH   1  19
BRANCH   3  20
ATOM     20  N   LIG    1        2.391   0.364  -4.211  0.00  0.00    +0.006 N 
ATOM     21  O   LIG    1        2.349   1.571  -4.149  0.00  0.00    -0.130 OA
BRANCH  20  22
ATOM     22  O   LIG    1        2.929  -0.174  -5.151  0.00  0.00    -0.396 OA
ATOM     23  H   LIG    1        2.962  -1.109  -5.199  0.00  0.00    +0.329 HD
ENDBRANCH  20  22
ENDBRANCH   3  20
TORSDOF 6
