REMARK  Name = ZINC28112619
REMARK                            x       y       z     vdW  Elec       q    Type
REMARK                         _______ _______ _______ _____ _____    ______ ____
ROOT
ATOM      1  N   LIG    1       -1.114   2.590   0.022  0.00  0.00    -0.259 N 
ATOM      2  H   LIG    1       -2.135   2.181   0.025  0.00  0.00    +0.157 HD
ATOM      3  C   LIG    1       -0.923   3.924   0.028  0.00  0.00    +0.269 C 
ATOM      4  O   LIG    1        0.206   4.377   0.025  0.00  0.00    -0.268 OA
ENDROOT
BRANCH   1   8
ATOM      5  C   LIG    1        2.182   1.081  -0.013  0.00  0.00    +0.120 A 
ATOM      6  C   LIG    1        1.777  -0.212  -0.016  0.00  0.00    +0.068 A 
ATOM      7  S   LIG    1        0.002  -0.004   0.002  0.00  0.00    -0.061 S 
ATOM      8  C   LIG    1       -0.021   1.732   0.012  0.00  0.00    +0.165 A 
ATOM      9  N   LIG    1        1.264   2.027   0.001  0.00  0.00    -0.233 NA
ENDBRANCH   1   8
BRANCH   3  10
ATOM     10  C   LIG    1       -2.081   4.834   0.039  0.00  0.00    +0.133 A 
ATOM     11  C   LIG    1       -1.915   6.196   0.051  0.00  0.00    +0.079 A 
ATOM     12  S   LIG    1       -3.562   6.744   0.057  0.00  0.00    -0.083 S 
ATOM     13  C   LIG    1       -4.339   5.194   0.053  0.00  0.00    +0.156 A 
ATOM     14  N   LIG    1       -3.329   4.364   0.043  0.00  0.00    -0.243 NA
ENDBRANCH   3  10
TORSDOF 2
