REMARK  Name = ZINC43203317
REMARK                            x       y       z     vdW  Elec       q    Type
REMARK                         _______ _______ _______ _____ _____    ______ ____
ROOT
ATOM      1  C   LIG    1        0.109  -1.595   2.212  0.00  0.00    +0.213 A 
ATOM      2  N   LIG    1       -0.655  -0.614   2.704  0.00  0.00    -0.198 NA
ATOM      3  C   LIG    1       -0.461  -0.130   3.919  0.00  0.00    +0.153 A 
ATOM      4  C   LIG    1        0.578  -0.660   4.717  0.00  0.00    +0.103 A 
ATOM      5  C   LIG    1        1.036  -0.388   5.993  0.00  0.00    +0.032 A 
ATOM      6  C   LIG    1        2.105  -1.252   6.232  0.00  0.00    +0.022 A 
ATOM      7  C   LIG    1        2.276  -2.019   5.122  0.00  0.00    +0.111 A 
ATOM      8  N   LIG    1        1.361  -1.672   4.200  0.00  0.00    -0.257 N 
ATOM      9  N   LIG    1        1.085  -2.131   2.904  0.00  0.00    -0.264 N 
ATOM     10  H   LIG    1        1.618  -2.844   2.519  0.00  0.00    +0.190 HD
ENDROOT
BRANCH   1  16
ATOM     11  C   LIG    1       -0.240  -0.032  -0.448  0.00  0.00    +0.042 C 
ATOM     12  C   LIG    1       -0.917  -1.360  -0.103  0.00  0.00    +0.111 C 
ATOM     13  C   LIG    1       -0.952  -2.271  -1.349  0.00  0.00    +0.037 C 
ATOM     14  C   LIG    1       -0.676  -3.678  -0.758  0.00  0.00    +0.022 C 
ATOM     15  C   LIG    1        0.324  -3.348   0.378  0.00  0.00    +0.109 C 
ATOM     16  N   LIG    1       -0.142  -2.063   0.930  0.00  0.00    -0.286 N 
BRANCH  12  17
ATOM     17  C   LIG    1       -2.319  -1.107   0.390  0.00  0.00    +0.241 C 
ATOM     18  N   LIG    1       -2.805  -1.815   1.429  0.00  0.00    -0.282 N 
ATOM     19  H   LIG    1       -2.229  -2.431   1.909  0.00  0.00    +0.155 HD
ATOM     20  O   LIG    1       -3.009  -0.268  -0.147  0.00  0.00    -0.273 OA
BRANCH  18  21
ATOM     21  C   LIG    1       -4.142  -1.661   1.817  0.00  0.00    +0.052 A 
ATOM     22  C   LIG    1       -5.119  -1.345   0.875  0.00  0.00    +0.029 A 
ATOM     23  C   LIG    1       -6.426  -1.203   1.305  0.00  0.00    +0.061 A 
ATOM     24  C   LIG    1       -6.719  -1.377   2.648  0.00  0.00    +0.213 A 
ATOM     25  F   LIG    1       -7.993  -1.239   3.076  0.00  0.00    -0.184 F 
ATOM     26  N   LIG    1       -5.770  -1.676   3.515  0.00  0.00    -0.226 NA
ATOM     27  C   LIG    1       -4.513  -1.825   3.144  0.00  0.00    +0.137 A 
ENDBRANCH  18  21
ENDBRANCH  12  17
ENDBRANCH   1  16
BRANCH   3  28
ATOM     28  N   LIG    1       -1.265   0.884   4.402  0.00  0.00    -0.283 N 
ATOM     29  H   LIG    1       -1.125   1.228   5.298  0.00  0.00    +0.155 HD
BRANCH  28  30
ATOM     30  C   LIG    1       -2.277   1.412   3.603  0.00  0.00    +0.120 A 
ATOM     31  N   LIG    1       -3.424   1.994   4.039  0.00  0.00    -0.264 N 
ATOM     32  H   LIG    1       -3.686   2.118   4.965  0.00  0.00    +0.190 HD
ATOM     33  N   LIG    1       -4.160   2.387   2.914  0.00  0.00    -0.177 NA
ATOM     34  C   LIG    1       -3.489   2.049   1.843  0.00  0.00    +0.068 A 
ATOM     35  C   LIG    1       -2.300   1.434   2.242  0.00  0.00    +0.068 A 
BRANCH  34  36
ATOM     36  C   LIG    1       -3.925   2.285   0.420  0.00  0.00    +0.040 C 
ATOM     37  C   LIG    1       -2.948   1.897  -0.692  0.00  0.00    +0.010 C 
ATOM     38  C   LIG    1       -3.196   3.372  -0.372  0.00  0.00    +0.010 C 
ENDBRANCH  34  36
ENDBRANCH  28  30
ENDBRANCH   3  28
TORSDOF 6
