REMARK  Name = ZINC29043709
REMARK                            x       y       z     vdW  Elec       q    Type
REMARK                         _______ _______ _______ _____ _____    ______ ____
ROOT
ATOM      1  C   LIG    1        1.264   3.083  -0.075  0.00  0.00    +0.164 A 
ATOM      2  C   LIG    1        0.062   3.758   0.079  0.00  0.00    +0.051 A 
ATOM      3  C   LIG    1       -1.130   3.060   0.061  0.00  0.00    +0.027 A 
ATOM      4  C   LIG    1       -1.126   1.683  -0.116  0.00  0.00    +0.036 A 
ATOM      5  C   LIG    1        0.077   1.006  -0.265  0.00  0.00    +0.065 A 
ATOM      6  C   LIG    1        1.270   1.705  -0.247  0.00  0.00    +0.167 A 
ATOM      7  F   LIG    1        2.440   1.048  -0.397  0.00  0.00    -0.202 F 
ENDROOT
BRANCH   4   8
ATOM      8  N   LIG    1       -2.335   0.977  -0.140  0.00  0.00    -0.297 N 
ATOM      9  H   LIG    1       -3.113   1.192   0.608  0.00  0.00    +0.154 HD
BRANCH   8  10
ATOM     10  C   LIG    1       -2.546   0.033  -1.079  0.00  0.00    +0.141 C 
ATOM     11  S   LIG    1       -1.298  -0.376  -2.177  0.00  0.00    -0.018 S 
BRANCH  10  12
ATOM     12  N   LIG    1       -3.740  -0.589  -1.153  0.00  0.00    -0.267 N 
ATOM     13  H   LIG    1       -4.541  -0.327  -0.447  0.00  0.00    +0.157 HD
ATOM     14  C   LIG    1       -3.951  -1.533  -2.091  0.00  0.00    +0.223 C 
ATOM     15  O   LIG    1       -3.067  -1.822  -2.869  0.00  0.00    -0.275 OA
BRANCH  14  16
ATOM     16  C   LIG    1       -5.285  -2.228  -2.174  0.00  0.00    +0.131 C 
BRANCH  16  17
ATOM     17  C   LIG    1       -5.260  -3.231  -3.299  0.00  0.00    -0.039 A 
ATOM     18  C   LIG    1       -5.646  -2.851  -4.572  0.00  0.00    +0.004 A 
ATOM     19  C   LIG    1       -5.618  -3.769  -5.605  0.00  0.00    +0.000 A 
ATOM     20  C   LIG    1       -5.215  -5.069  -5.364  0.00  0.00    +0.000 A 
ATOM     21  C   LIG    1       -4.835  -5.450  -4.091  0.00  0.00    +0.000 A 
ATOM     22  C   LIG    1       -4.857  -4.531  -3.058  0.00  0.00    +0.004 A 
ENDBRANCH  16  17
ENDBRANCH  14  16
ENDBRANCH  10  12
ENDBRANCH   8  10
ENDBRANCH   4   8
BRANCH   1  23
ATOM     23  O   LIG    1        2.437   3.772  -0.058  0.00  0.00    -0.452 OA
BRANCH  23  28
ATOM     24  C   LIG    1        6.377   6.374  -1.210  0.00  0.00    +0.042 A 
ATOM     25  C   LIG    1        5.912   6.005  -2.432  0.00  0.00    +0.046 A 
ATOM     26  C   LIG    1        4.750   5.218  -2.534  0.00  0.00    +0.082 A 
ATOM     27  C   LIG    1        4.148   4.868  -1.306  0.00  0.00    +0.080 A 
ATOM     28  C   LIG    1        3.001   4.098  -1.249  0.00  0.00    +0.146 A 
ATOM     29  C   LIG    1        2.446   3.663  -2.451  0.00  0.00    +0.067 A 
ATOM     30  C   LIG    1        3.064   4.033  -3.634  0.00  0.00    +0.115 A 
ATOM     31  N   LIG    1        4.150   4.763  -3.659  0.00  0.00    -0.254 NA
ATOM     32  S   LIG    1        5.198   5.630  -0.096  0.00  0.00    -0.081 S 
BRANCH  24  36
ATOM     33  C   LIG    1        9.924   8.875   1.274  0.00  0.00    +0.150 C 
ATOM     34  N   LIG    1        9.117   8.284   0.203  0.00  0.00    -0.339 N 
ATOM     35  C   LIG    1        7.985   7.536   0.364  0.00  0.00    +0.115 A 
ATOM     36  C   LIG    1        7.566   7.190  -0.884  0.00  0.00    +0.095 A 
ATOM     37  N   LIG    1        8.429   7.731  -1.770  0.00  0.00    -0.235 NA
ATOM     38  C   LIG    1        9.353   8.383  -1.124  0.00  0.00    +0.199 A 
ENDBRANCH  24  36
ENDBRANCH  23  28
ENDBRANCH   1  23
TORSDOF 8
