REMARK  Name = ZINC27110251
REMARK                            x       y       z     vdW  Elec       q    Type
REMARK                         _______ _______ _______ _____ _____    ______ ____
ROOT
ATOM      1  C   LIG    1       -2.520  -0.086   0.026  0.00  0.00    +0.033 A 
ATOM      2  C   LIG    1       -3.238   0.278   1.133  0.00  0.00    +0.048 A 
ATOM      3  N   LIG    1       -4.377   0.862   0.724  0.00  0.00    -0.267 N 
ATOM      4  C   LIG    1       -5.194   1.284   1.877  0.00  0.00    +0.144 C 
ATOM      5  C   LIG    1       -4.636   0.507   3.087  0.00  0.00    +0.029 C 
ATOM      6  N   LIG    1       -4.407   0.875  -0.681  0.00  0.00    -0.169 NA
ATOM      7  C   LIG    1       -3.179   0.243   2.647  0.00  0.00    +0.057 C 
ATOM      8  C   LIG    1       -3.307   0.321  -1.137  0.00  0.00    +0.119 A 
ENDROOT
BRANCH   1  13
ATOM      9  C   LIG    1        2.381   1.421  -0.014  0.00  0.00    +0.123 A 
ATOM     10  C   LIG    1        1.154   2.091   0.002  0.00  0.00    +0.046 A 
ATOM     11  C   LIG    1       -0.017   1.397   0.010  0.00  0.00    +0.014 A 
ATOM     12  C   LIG    1        0.002  -0.004   0.002  0.00  0.00    +0.008 A 
ATOM     13  C   LIG    1       -1.200  -0.756   0.010  0.00  0.00    -0.003 A 
ATOM     14  C   LIG    1       -1.099  -2.142   0.004  0.00  0.00    +0.029 A 
ATOM     15  C   LIG    1        0.154  -2.739  -0.011  0.00  0.00    +0.112 A 
ATOM     16  N   LIG    1        1.259  -2.031  -0.019  0.00  0.00    -0.255 NA
ATOM     17  C   LIG    1        1.239  -0.693  -0.013  0.00  0.00    +0.075 A 
ATOM     18  C   LIG    1        2.433   0.046  -0.021  0.00  0.00    +0.074 A 
BRANCH   9  19
ATOM     19  O   LIG    1        3.536   2.136  -0.021  0.00  0.00    -0.492 OA
BRANCH  19  21
ATOM     20  C   LIG    1        4.813   4.189  -0.024  0.00  0.00    +0.048 C 
ATOM     21  C   LIG    1        3.418   3.561  -0.013  0.00  0.00    +0.225 C 
ENDBRANCH  19  21
ENDBRANCH   9  19
ENDBRANCH   1  13
BRANCH   8  22
ATOM     22  C   LIG    1       -2.936   0.139  -2.560  0.00  0.00    +0.092 A 
ATOM     23  C   LIG    1       -3.933   0.078  -3.532  0.00  0.00    +0.030 A 
ATOM     24  C   LIG    1       -3.571  -0.092  -4.857  0.00  0.00    +0.004 A 
ATOM     25  C   LIG    1       -2.222  -0.195  -5.167  0.00  0.00    +0.023 A 
ATOM     26  C   LIG    1       -1.286  -0.126  -4.152  0.00  0.00    +0.039 A 
ATOM     27  C   LIG    1        0.180  -0.237  -4.485  0.00  0.00    +0.065 C 
ATOM     28  N   LIG    1       -1.657   0.042  -2.899  0.00  0.00    -0.250 NA
ENDBRANCH   8  22
TORSDOF 4
