REMARK  Name = ZINC42835776
REMARK                            x       y       z     vdW  Elec       q    Type
REMARK                         _______ _______ _______ _____ _____    ______ ____
ROOT
ATOM      1  C   LIG    1       -1.033 -11.688  -5.961  0.00  0.00    +0.000 C 
ENDROOT
BRANCH   1   2
ATOM      2  C   LIG    1       -1.918 -11.227  -4.801  0.00  0.00    +0.000 C 
BRANCH   2   3
ATOM      3  C   LIG    1       -1.784  -9.713  -4.627  0.00  0.00    +0.000 C 
BRANCH   3   4
ATOM      4  C   LIG    1       -2.669  -9.252  -3.467  0.00  0.00    +0.000 C 
BRANCH   4   5
ATOM      5  C   LIG    1       -2.535  -7.738  -3.294  0.00  0.00    +0.000 C 
BRANCH   5   6
ATOM      6  C   LIG    1       -3.420  -7.277  -2.134  0.00  0.00    +0.004 C 
BRANCH   6   7
ATOM      7  C   LIG    1       -3.286  -5.763  -1.960  0.00  0.00    +0.027 C 
BRANCH   7   9
ATOM      8  C   LIG    1       -3.643  -4.605   0.159  0.00  0.00    -0.031 C 
ATOM      9  C   LIG    1       -4.158  -5.309  -0.818  0.00  0.00    -0.031 C 
BRANCH   8  10
ATOM     10  C   LIG    1       -2.226  -4.103   0.060  0.00  0.00    +0.027 C 
BRANCH  10  11
ATOM     11  C   LIG    1       -2.198  -2.597   0.330  0.00  0.00    +0.004 C 
BRANCH  11  12
ATOM     12  C   LIG    1       -0.759  -2.087   0.229  0.00  0.00    +0.000 C 
BRANCH  12  13
ATOM     13  C   LIG    1       -0.732  -0.581   0.498  0.00  0.00    -0.000 C 
BRANCH  13  15
ATOM     14  C   LIG    1        0.735   1.435   0.667  0.00  0.00    +0.004 C 
ATOM     15  C   LIG    1        0.707  -0.071   0.398  0.00  0.00    -0.003 C 
ENDBRANCH  13  15
ENDBRANCH  12  13
ENDBRANCH  11  12
ENDBRANCH  10  11
ENDBRANCH   8  10
ENDBRANCH   7   9
ENDBRANCH   6   7
ENDBRANCH   5   6
ENDBRANCH   4   5
ENDBRANCH   3   4
ENDBRANCH   2   3
ENDBRANCH   1   2
BRANCH   1  16
ATOM     16  C   LIG    1       -1.167 -13.202  -6.134  0.00  0.00    +0.005 C 
BRANCH  16  17
ATOM     17  C   LIG    1       -0.282 -13.663  -7.294  0.00  0.00    +0.036 C 
BRANCH  17  18
ATOM     18  C   LIG    1       -0.414 -15.155  -7.465  0.00  0.00    -0.030 A 
ATOM     19  C   LIG    1        0.511 -15.999  -6.893  0.00  0.00    +0.004 A 
ATOM     20  C   LIG    1        0.396 -17.371  -7.047  0.00  0.00    +0.004 A 
ATOM     21  C   LIG    1       -0.648 -17.908  -7.775  0.00  0.00    +0.046 A 
ATOM     22  C   LIG    1       -1.590 -17.074  -8.358  0.00  0.00    +0.131 A 
ATOM     23  C   LIG    1       -1.480 -15.684  -8.200  0.00  0.00    +0.103 A 
BRANCH  23  24
ATOM     24  C   LIG    1       -2.477 -14.788  -8.809  0.00  0.00    +0.341 C 
ATOM     25  O   LIG    1       -2.341 -14.419  -9.967  0.00  0.00    -0.245 OA
BRANCH  24  26
ATOM     26  O   LIG    1       -3.441 -14.412  -8.156  0.00  0.00    -0.477 OA
ATOM     27  H   LIG    1       -3.545 -14.694  -7.269  0.00  0.00    +0.295 HD
ENDBRANCH  24  26
ENDBRANCH  23  24
BRANCH  22  28
ATOM     28  O   LIG    1       -2.615 -17.599  -9.074  0.00  0.00    -0.506 OA
ATOM     29  H   LIG    1       -3.403 -17.792  -8.548  0.00  0.00    +0.292 HD
ENDBRANCH  22  28
ENDBRANCH  17  18
ENDBRANCH  16  17
ENDBRANCH   1  16
TORSDOF 18
