REMARK  Name = ZINC28570798
REMARK                            x       y       z     vdW  Elec       q    Type
REMARK                         _______ _______ _______ _____ _____    ______ ____
ROOT
ATOM      1  C   LIG    1       -0.075   3.811  -0.014  0.00  0.00    +0.098 A 
ATOM      2  C   LIG    1        1.166   3.165  -0.070  0.00  0.00    +0.020 A 
ATOM      3  C   LIG    1        1.186   1.783  -0.119  0.00  0.00    +0.021 A 
ATOM      4  C   LIG    1       -0.008   1.084  -0.111  0.00  0.00    +0.114 A 
ATOM      5  N   LIG    1       -1.167   1.713  -0.063  0.00  0.00    -0.220 NA
ATOM      6  C   LIG    1       -1.242   3.032  -0.009  0.00  0.00    +0.233 A 
ENDROOT
BRANCH   1   9
ATOM      7  N   LIG    1        0.974   6.019   0.034  0.00  0.00    -0.304 N 
ATOM      8  H   LIG    1        1.955   5.522  -0.010  0.00  0.00    +0.150 HD
ATOM      9  C   LIG    1       -0.154   5.283   0.040  0.00  0.00    +0.250 C 
ATOM     10  O   LIG    1       -1.238   5.832   0.089  0.00  0.00    -0.270 OA
BRANCH   7  12
ATOM     11  C   LIG    1        0.703   8.033  -1.327  0.00  0.00    +0.033 C 
ATOM     12  C   LIG    1        0.896   7.481   0.087  0.00  0.00    +0.107 C 
BRANCH  12  13
ATOM     13  C   LIG    1        2.171   8.032   0.673  0.00  0.00    +0.010 A 
ATOM     14  C   LIG    1        2.337   9.056   1.544  0.00  0.00    +0.013 A 
ATOM     15  C   LIG    1        3.615   9.390   1.950  0.00  0.00    +0.008 A 
ATOM     16  C   LIG    1        4.665   8.684   1.464  0.00  0.00    +0.045 A 
ATOM     17  S   LIG    1        3.853   7.499   0.404  0.00  0.00    -0.100 S 
ENDBRANCH  12  13
ENDBRANCH   7  12
ENDBRANCH   1   9
BRANCH   6  18
ATOM     18  O   LIG    1       -2.454   3.635   0.045  0.00  0.00    -0.437 OA
BRANCH  18  19
ATOM     19  C   LIG    1       -3.561   2.853  -0.054  0.00  0.00    +0.131 A 
ATOM     20  C   LIG    1       -4.275   2.807  -1.242  0.00  0.00    +0.049 A 
ATOM     21  C   LIG    1       -5.397   2.006  -1.342  0.00  0.00    +0.042 A 
ATOM     22  C   LIG    1       -5.815   1.260  -0.254  0.00  0.00    +0.124 A 
ATOM     23  F   LIG    1       -6.916   0.483  -0.351  0.00  0.00    -0.205 F 
ATOM     24  C   LIG    1       -5.106   1.310   0.935  0.00  0.00    +0.042 A 
ATOM     25  C   LIG    1       -3.981   2.104   1.036  0.00  0.00    +0.049 A 
ENDBRANCH  18  19
ENDBRANCH   6  18
TORSDOF 5
