REMARK  Name = ZINC27652394
REMARK                            x       y       z     vdW  Elec       q    Type
REMARK                         _______ _______ _______ _____ _____    ______ ____
ROOT
ATOM      1  C   LIG    1       -1.187   1.624   0.017  0.00  0.00    +0.234 C 
ATOM      2  N   LIG    1       -0.011   0.966   0.007  0.00  0.00    -0.314 N 
ATOM      3  H   LIG    1        0.004  -0.134   0.006  0.00  0.00    +0.149 HD
ATOM      4  O   LIG    1       -1.204   2.837   0.023  0.00  0.00    -0.274 OA
ENDROOT
BRANCH   2   5
ATOM      5  C   LIG    1        1.248   1.716  -0.001  0.00  0.00    +0.104 C 
BRANCH   5   6
ATOM      6  C   LIG    1        2.424   0.737  -0.017  0.00  0.00    +0.019 C 
BRANCH   6   7
ATOM      7  C   LIG    1        3.738   1.520  -0.025  0.00  0.00    +0.002 C 
BRANCH   7   8
ATOM      8  C   LIG    1        4.915   0.542  -0.042  0.00  0.00    -0.000 C 
BRANCH   8   9
ATOM      9  C   LIG    1        6.229   1.325  -0.050  0.00  0.00    -0.002 C 
BRANCH   9  10
ATOM     10  C   LIG    1        7.405   0.346  -0.067  0.00  0.00    -0.019 C 
BRANCH  10  11
ATOM     11  C   LIG    1        8.720   1.129  -0.075  0.00  0.00    -0.083 C 
BRANCH  11  12
ATOM     12  N   LIG    1        9.849   0.190  -0.091  0.00  0.00    +0.379 N 
ATOM     13  H   LIG    1        9.791  -0.438  -0.992  0.00  0.00    -0.086 HD
ATOM     14  H   LIG    1        9.808  -0.448   0.804  0.00  0.00    -0.086 HD
BRANCH  12  15
ATOM     15  C   LIG    1       11.131   0.908  -0.099  0.00  0.00    -0.083 C 
BRANCH  15  16
ATOM     16  C   LIG    1       12.280  -0.101  -0.116  0.00  0.00    -0.021 C 
BRANCH  16  17
ATOM     17  C   LIG    1       13.615   0.646  -0.124  0.00  0.00    -0.021 C 
BRANCH  17  18
ATOM     18  C   LIG    1       14.765  -0.363  -0.141  0.00  0.00    -0.087 C 
BRANCH  18  19
ATOM     19  N   LIG    1       16.047   0.355  -0.149  0.00  0.00    +0.378 N 
ATOM     20  H   LIG    1       16.105   0.991  -1.045  0.00  0.00    -0.090 HD
ATOM     21  H   LIG    1       16.122   0.982   0.752  0.00  0.00    -0.090 HD
ATOM     22  H   LIG    1       16.873  -0.371  -0.161  0.00  0.00    -0.090 HD
ENDBRANCH  18  19
ENDBRANCH  17  18
ENDBRANCH  16  17
ENDBRANCH  15  16
ENDBRANCH  12  15
ENDBRANCH  11  12
ENDBRANCH  10  11
ENDBRANCH   9  10
ENDBRANCH   8   9
ENDBRANCH   7   8
ENDBRANCH   6   7
ENDBRANCH   5   6
ENDBRANCH   2   5
BRANCH   1  23
ATOM     23  C   LIG    1       -2.482   0.853   0.018  0.00  0.00    +0.163 C 
BRANCH  23  25
ATOM     24  C   LIG    1       -3.861   2.850   0.230  0.00  0.00    +0.214 C 
ATOM     25  N   LIG    1       -3.568   1.720  -0.444  0.00  0.00    -0.304 N 
ATOM     26  H   LIG    1       -4.144   1.450  -1.341  0.00  0.00    +0.149 HD
ATOM     27  O   LIG    1       -3.226   3.149   1.218  0.00  0.00    -0.276 OA
BRANCH  24  28
ATOM     28  C   LIG    1       -4.978   3.743  -0.246  0.00  0.00    +0.095 C 
BRANCH  28  30
ATOM     29  C   LIG    1       -6.235   5.855   0.205  0.00  0.00    +0.004 C 
ATOM     30  C   LIG    1       -5.101   4.948   0.688  0.00  0.00    +0.006 C 
ENDBRANCH  28  30
ENDBRANCH  24  28
ENDBRANCH  23  25
BRANCH  23  31
ATOM     31  C   LIG    1       -2.785   0.369   1.438  0.00  0.00    +0.067 C 
BRANCH  31  32
ATOM     32  C   LIG    1       -4.013  -0.505   1.419  0.00  0.00    -0.045 A 
ATOM     33  C   LIG    1       -5.263   0.058   1.598  0.00  0.00    +0.007 A 
ATOM     34  C   LIG    1       -6.391  -0.740   1.575  0.00  0.00    +0.045 A 
ATOM     35  C   LIG    1       -6.267  -2.108   1.385  0.00  0.00    +0.117 A 
ATOM     36  C   LIG    1       -5.011  -2.671   1.212  0.00  0.00    +0.045 A 
ATOM     37  C   LIG    1       -3.887  -1.869   1.229  0.00  0.00    +0.007 A 
BRANCH  35  38
ATOM     38  O   LIG    1       -7.375  -2.896   1.368  0.00  0.00    -0.507 OA
ATOM     39  H   LIG    1       -7.275  -3.981   1.217  0.00  0.00    +0.292 HD
ENDBRANCH  35  38
ENDBRANCH  31  32
ENDBRANCH  23  31
ENDBRANCH   1  23
TORSDOF 20
