REMARK  Name = ZINC29406073
REMARK                            x       y       z     vdW  Elec       q    Type
REMARK                         _______ _______ _______ _____ _____    ______ ____
ROOT
ATOM      1  C   LIG    1        2.181  -4.537  -3.772  0.00  0.00    +0.217 C 
ATOM      2  N   LIG    1        2.320  -5.859  -3.994  0.00  0.00    -0.280 N 
ATOM      3  C   LIG    1        1.795  -6.866  -3.047  0.00  0.00    +0.178 C 
ATOM      4  S   LIG    1        2.840  -8.331  -3.464  0.00  0.00    -0.139 S 
ATOM      5  C   LIG    1        3.078  -7.913  -5.249  0.00  0.00    +0.102 C 
ATOM      6  C   LIG    1        2.989  -6.369  -5.179  0.00  0.00    +0.173 C 
ATOM      7  O   LIG    1        2.624  -3.738  -4.571  0.00  0.00    -0.276 OA
ENDROOT
BRANCH   6   8
ATOM      8  C   LIG    1        2.250  -5.872  -6.396  0.00  0.00    +0.237 C 
ATOM      9  N   LIG    1        2.678  -6.211  -7.628  0.00  0.00    -0.300 N 
ATOM     10  C   LIG    1        3.848  -7.049  -7.929  0.00  0.00    +0.108 C 
ATOM     11  C   LIG    1        3.961  -7.143  -9.465  0.00  0.00    +0.020 C 
ATOM     12  C   LIG    1        3.190  -5.885  -9.946  0.00  0.00    +0.020 C 
ATOM     13  C   LIG    1        2.053  -5.797  -8.898  0.00  0.00    +0.108 C 
ATOM     14  O   LIG    1        1.272  -5.168  -6.265  0.00  0.00    -0.274 OA
ENDBRANCH   6   8
BRANCH   1  15
ATOM     15  C   LIG    1        1.476  -4.051  -2.532  0.00  0.00    +0.096 C 
BRANCH  15  16
ATOM     16  C   LIG    1        1.455  -2.521  -2.524  0.00  0.00    +0.009 C 
BRANCH  16  17
ATOM     17  C   LIG    1        0.739  -2.027  -1.265  0.00  0.00    +0.000 C 
BRANCH  17  18
ATOM     18  C   LIG    1        0.718  -0.497  -1.257  0.00  0.00    -0.000 C 
BRANCH  18  20
ATOM     19  C   LIG    1       -0.019   1.526   0.010  0.00  0.00    +0.004 C 
ATOM     20  C   LIG    1        0.002  -0.004   0.002  0.00  0.00    -0.003 C 
ENDBRANCH  18  20
ENDBRANCH  17  18
ENDBRANCH  16  17
ENDBRANCH  15  16
ENDBRANCH   1  15
TORSDOF 6
