REMARK  Name = ZINC16155529
REMARK                            x       y       z     vdW  Elec       q    Type
REMARK                         _______ _______ _______ _____ _____    ______ ____
ROOT
ATOM      1  C   LIG    1       -0.017   1.376   0.010  0.00  0.00    +0.001 A 
ATOM      2  C   LIG    1        1.172   2.086   0.002  0.00  0.00    +0.002 A 
ATOM      3  C   LIG    1        2.385   1.427  -0.013  0.00  0.00    +0.024 A 
ATOM      4  C   LIG    1        2.424   0.037  -0.021  0.00  0.00    +0.043 A 
ATOM      5  C   LIG    1        1.219  -0.677  -0.014  0.00  0.00    +0.028 A 
ATOM      6  C   LIG    1        1.584  -2.113  -0.025  0.00  0.00    +0.152 C 
ATOM      7  C   LIG    1        3.059  -2.131  -0.040  0.00  0.00    +0.269 C 
ATOM      8  O   LIG    1        3.763  -3.124  -0.052  0.00  0.00    -0.268 OA
ATOM      9  N   LIG    1        0.772  -3.143  -0.024  0.00  0.00    -0.175 NA
ATOM     10  N   LIG    1        3.488  -0.857  -0.037  0.00  0.00    -0.280 N 
ATOM     11  H   LIG    1        4.422  -0.595  -0.045  0.00  0.00    +0.155 HD
ATOM     12  C   LIG    1        0.002  -0.004   0.002  0.00  0.00    +0.012 A 
ENDROOT
BRANCH   9  13
ATOM     13  N   LIG    1        1.292  -4.444  -0.036  0.00  0.00    -0.218 N 
ATOM     14  H   LIG    1        2.252  -4.583  -0.046  0.00  0.00    +0.176 HD
BRANCH  13  15
ATOM     15  C   LIG    1        0.458  -5.503  -0.035  0.00  0.00    +0.147 C 
ATOM     16  S   LIG    1        1.093  -7.093  -0.050  0.00  0.00    -0.017 S 
BRANCH  15  17
ATOM     17  N   LIG    1       -0.876  -5.311  -0.021  0.00  0.00    -0.339 N 
ATOM     18  H   LIG    1       -1.476  -6.073  -0.020  0.00  0.00    +0.144 HD
ATOM     19  H   LIG    1       -1.236  -4.410  -0.013  0.00  0.00    +0.144 HD
ENDBRANCH  15  17
ENDBRANCH  13  15
ENDBRANCH   9  13
TORSDOF 3
