REMARK  Name = ZINC26172693
REMARK                            x       y       z     vdW  Elec       q    Type
REMARK                         _______ _______ _______ _____ _____    ______ ____
ROOT
ATOM      1  C   LIG    1        1.341   1.833  -0.001  0.00  0.00    +0.217 C 
ATOM      2  C   LIG    1        2.093   0.662  -0.680  0.00  0.00    -0.010 C 
ATOM      3  C   LIG    1        1.172  -0.510  -0.388  0.00  0.00    +0.013 C 
ATOM      4  C   LIG    1        0.002  -0.004   0.002  0.00  0.00    +0.199 C 
ATOM      5  O   LIG    1       -0.016   1.352   0.009  0.00  0.00    -0.487 OA
ENDROOT
BRANCH   2   6
ATOM      6  N   LIG    1        3.413   0.459  -0.069  0.00  0.00    +0.385 N 
ATOM      7  H   LIG    1        4.013   1.375  -0.179  0.00  0.00    -0.089 HD
ATOM      8  H   LIG    1        3.291   0.227   0.999  0.00  0.00    -0.089 HD
ATOM      9  H   LIG    1        3.925  -0.376  -0.570  0.00  0.00    -0.089 HD
ENDBRANCH   2   6
BRANCH   4  10
ATOM     10  C   LIG    1       -1.154  -0.834   0.386  0.00  0.00    +0.371 C 
ATOM     11  O   LIG    1       -1.069  -2.045   0.356  0.00  0.00    -0.242 OA
BRANCH  10  12
ATOM     12  O   LIG    1       -2.305  -0.248   0.770  0.00  0.00    -0.475 OA
ATOM     13  H   LIG    1       -2.371   0.686   0.793  0.00  0.00    +0.296 HD
ENDBRANCH  10  12
ENDBRANCH   4  10
TORSDOF 3
