REMARK  Name = ZINC29333986
REMARK                            x       y       z     vdW  Elec       q    Type
REMARK                         _______ _______ _______ _____ _____    ______ ____
ROOT
ATOM      1  C   LIG    1        0.714  -0.509  -1.181  0.00  0.00    -0.046 C 
ATOM      2  C   LIG    1        2.145   0.035  -1.180  0.00  0.00    +0.144 C 
ATOM      3  O   LIG    1        2.106   1.465  -1.141  0.00  0.00    -0.379 OA
ATOM      4  C   LIG    1        1.420   1.990  -0.001  0.00  0.00    +0.112 C 
ATOM      5  C   LIG    1       -0.018   1.466   0.010  0.00  0.00    -0.050 C 
ATOM      6  N   LIG    1        0.002  -0.004   0.002  0.00  0.00    +0.384 N 
ATOM      7  H   LIG    1        0.508  -0.357   0.913  0.00  0.00    -0.085 HD
ATOM      8  H   LIG    1       -1.034  -0.373  -0.008  0.00  0.00    -0.085 HD
ENDROOT
BRANCH   1  10
ATOM      9  C   LIG    1       -1.397  -0.688  -2.507  0.00  0.00    +0.002 C 
ATOM     10  C   LIG    1       -0.009  -0.046  -2.448  0.00  0.00    -0.017 C 
ENDBRANCH   1  10
BRANCH   4  11
ATOM     11  C   LIG    1        1.406   3.519  -0.073  0.00  0.00    +0.150 C 
BRANCH  11  12
ATOM     12  C   LIG    1        2.816   4.040   0.040  0.00  0.00    +0.307 C 
ATOM     13  O   LIG    1        3.737   3.268   0.165  0.00  0.00    -0.251 OA
BRANCH  12  14
ATOM     14  O   LIG    1        3.048   5.362   0.001  0.00  0.00    -0.481 OA
ATOM     15  H   LIG    1        2.333   5.960  -0.097  0.00  0.00    +0.295 HD
ENDBRANCH  12  14
ENDBRANCH  11  12
ENDBRANCH   4  11
TORSDOF 4
