REMARK  Name = ZINC14959984
REMARK                            x       y       z     vdW  Elec       q    Type
REMARK                         _______ _______ _______ _____ _____    ______ ____
ROOT
ATOM      1  C   LIG    1        0.689  -4.781  -0.019  0.00  0.00    +0.263 C 
ATOM      2  N   LIG    1        1.899  -4.189  -0.022  0.00  0.00    -0.306 N 
ATOM      3  H   LIG    1        1.966  -3.222  -0.018  0.00  0.00    +0.149 HD
ATOM      4  O   LIG    1        0.605  -5.993  -0.024  0.00  0.00    -0.269 OA
ENDROOT
BRANCH   1   9
ATOM      5  C   LIG    1       -1.498  -1.844   0.006  0.00  0.00    +0.235 A 
ATOM      6  C   LIG    1       -2.792  -2.392   0.010  0.00  0.00    +0.134 A 
ATOM      7  C   LIG    1       -2.937  -3.791   0.004  0.00  0.00    +0.050 A 
ATOM      8  C   LIG    1       -1.783  -4.574  -0.006  0.00  0.00    +0.057 A 
ATOM      9  C   LIG    1       -0.541  -3.953  -0.009  0.00  0.00    +0.131 A 
ATOM     10  N   LIG    1       -0.437  -2.627  -0.008  0.00  0.00    -0.207 NA
BRANCH   7  11
ATOM     11  N   LIG    1       -4.194  -4.375   0.007  0.00  0.00    -0.357 N 
ATOM     12  H   LIG    1       -4.279  -5.342   0.003  0.00  0.00    +0.142 HD
ATOM     13  H   LIG    1       -4.988  -3.818   0.014  0.00  0.00    +0.142 HD
ENDBRANCH   7  11
BRANCH   6  14
ATOM     14  C   LIG    1       -3.943  -1.540   0.021  0.00  0.00    +0.106 C 
ATOM     15  N   LIG    1       -4.856  -0.864   0.029  0.00  0.00    -0.191 NA
ENDBRANCH   6  14
BRANCH   5  16
ATOM     16  O   LIG    1       -1.339  -0.499   0.012  0.00  0.00    -0.476 OA
BRANCH  16  18
ATOM     17  C   LIG    1       -0.019   1.526   0.010  0.00  0.00    +0.048 C 
ATOM     18  C   LIG    1        0.002  -0.004   0.002  0.00  0.00    +0.227 C 
ENDBRANCH  16  18
ENDBRANCH   5  16
ENDBRANCH   1   9
BRANCH   2  19
ATOM     19  C   LIG    1        3.115  -5.008  -0.032  0.00  0.00    +0.141 C 
BRANCH  19  20
ATOM     20  C   LIG    1        4.325  -4.110  -0.033  0.00  0.00    -0.004 A 
ATOM     21  C   LIG    1        4.995  -3.854  -1.215  0.00  0.00    +0.007 A 
ATOM     22  C   LIG    1        6.105  -3.031  -1.216  0.00  0.00    +0.000 A 
ATOM     23  C   LIG    1        6.545  -2.462  -0.036  0.00  0.00    +0.002 A 
ATOM     24  C   LIG    1        5.874  -2.716   1.146  0.00  0.00    +0.029 A 
ATOM     25  C   LIG    1        4.761  -3.537   1.146  0.00  0.00    +0.110 A 
BRANCH  25  26
ATOM     26  S   LIG    1        3.903  -3.856   2.652  0.00  0.00    +0.056 S 
ATOM     27  O   LIG    1        4.569  -3.114   3.664  0.00  0.00    -0.153 OA
ATOM     28  O   LIG    1        3.729  -5.264   2.729  0.00  0.00    -0.153 OA
BRANCH  26  29
ATOM     29  N   LIG    1        2.390  -3.199   2.501  0.00  0.00    -0.204 NA
ATOM     30  H   LIG    1        1.756  -3.270   3.232  0.00  0.00    +0.144 HD
ATOM     31  H   LIG    1        2.138  -2.745   1.683  0.00  0.00    +0.144 HD
ENDBRANCH  26  29
ENDBRANCH  25  26
ENDBRANCH  19  20
ENDBRANCH   2  19
TORSDOF 9
