REMARK  Name = ZINC35143438
REMARK                            x       y       z     vdW  Elec       q    Type
REMARK                         _______ _______ _______ _____ _____    ______ ____
ROOT
ATOM      1  C   LIG    1       -0.017   1.378   0.010  0.00  0.00    +0.002 A 
ATOM      2  C   LIG    1        1.171   2.086   0.002  0.00  0.00    +0.005 A 
ATOM      3  C   LIG    1        2.378   1.412  -0.013  0.00  0.00    -0.026 A 
ATOM      4  C   LIG    1        2.398   0.029  -0.021  0.00  0.00    +0.025 A 
ATOM      5  C   LIG    1        1.210  -0.679  -0.013  0.00  0.00    +0.041 A 
ATOM      6 CL   LIG    1        1.234  -2.415  -0.024  0.00  0.00    -0.084 Cl
ATOM      7  C   LIG    1        0.002  -0.004   0.002  0.00  0.00    +0.020 A 
ENDROOT
BRANCH   3   8
ATOM      8  C   LIG    1        3.672   2.184  -0.021  0.00  0.00    +0.157 C 
BRANCH   8   9
ATOM      9  N   LIG    1        4.104   2.427   1.357  0.00  0.00    -0.334 N 
ATOM     10  C   LIG    1        3.775   3.505   2.134  0.00  0.00    +0.105 A 
ATOM     11  C   LIG    1        4.382   3.328   3.323  0.00  0.00    +0.101 A 
ATOM     12  N   LIG    1        5.064   2.174   3.274  0.00  0.00    -0.352 N 
ATOM     13  H   LIG    1        5.593   1.803   3.997  0.00  0.00    +0.166 HD
ATOM     14  C   LIG    1        4.898   1.626   2.101  0.00  0.00    +0.174 A 
ENDBRANCH   8   9
ENDBRANCH   3   8
TORSDOF 2
