REMARK  Name = ZINC49110472
REMARK                            x       y       z     vdW  Elec       q    Type
REMARK                         _______ _______ _______ _____ _____    ______ ____
ROOT
ATOM      1  C   LIG    1        1.332  -4.082  -2.300  0.00  0.00    +0.121 C 
ATOM      2  N   LIG    1        0.840  -4.926  -1.434  0.00  0.00    -0.177 NA
ATOM      3  N   LIG    1        1.070  -6.245  -1.825  0.00  0.00    -0.201 N 
ATOM      4  H   LIG    1        0.788  -7.027  -1.326  0.00  0.00    +0.178 HD
ATOM      5  C   LIG    1        1.742  -6.277  -2.993  0.00  0.00    +0.285 C 
ATOM      6  O   LIG    1        2.098  -7.269  -3.605  0.00  0.00    -0.267 OA
ATOM      7  C   LIG    1        1.951  -4.873  -3.384  0.00  0.00    +0.172 C 
ATOM      8  N   LIG    1        2.560  -4.421  -4.463  0.00  0.00    -0.175 NA
ENDROOT
BRANCH   1  13
ATOM      9  C   LIG    1        0.606  -0.607  -1.056  0.00  0.00    +0.121 A 
ATOM     10  C   LIG    1        1.173   0.163  -2.063  0.00  0.00    +0.045 A 
ATOM     11  C   LIG    1        1.788  -0.446  -3.140  0.00  0.00    +0.004 A 
ATOM     12  C   LIG    1        1.843  -1.823  -3.222  0.00  0.00    +0.010 A 
ATOM     13  C   LIG    1        1.276  -2.604  -2.215  0.00  0.00    +0.008 A 
ATOM     14  C   LIG    1        0.660  -1.989  -1.126  0.00  0.00    +0.055 A 
BRANCH   9  16
ATOM     15  C   LIG    1       -0.017   1.425   0.010  0.00  0.00    +0.277 C 
ATOM     16  O   LIG    1        0.002  -0.004   0.002  0.00  0.00    -0.495 OA
ENDBRANCH   9  16
ENDBRANCH   1  13
BRANCH   8  17
ATOM     17  N   LIG    1        3.052  -5.250  -5.321  0.00  0.00    -0.236 N 
ATOM     18  H   LIG    1        2.973  -6.205  -5.173  0.00  0.00    +0.174 HD
BRANCH  17  19
ATOM     19  C   LIG    1        3.696  -4.772  -6.463  0.00  0.00    +0.067 A 
ATOM     20  C   LIG    1        3.814  -3.404  -6.675  0.00  0.00    +0.026 A 
ATOM     21  C   LIG    1        4.452  -2.934  -7.806  0.00  0.00    +0.002 A 
ATOM     22  C   LIG    1        4.973  -3.824  -8.728  0.00  0.00    +0.002 A 
ATOM     23  C   LIG    1        4.858  -5.186  -8.522  0.00  0.00    +0.022 A 
ATOM     24  C   LIG    1        4.226  -5.664  -7.389  0.00  0.00    +0.063 A 
ATOM     25 CL   LIG    1        4.088  -7.374  -7.127  0.00  0.00    -0.082 Cl
ENDBRANCH  17  19
ENDBRANCH   8  17
TORSDOF 4
