REMARK  Name = ZINC28645580
REMARK                            x       y       z     vdW  Elec       q    Type
REMARK                         _______ _______ _______ _____ _____    ______ ____
ROOT
ATOM      1  C   LIG    1        0.152   1.542   0.023  0.00  0.00    +0.012 C 
ATOM      2  C   LIG    1        0.117   0.017   0.009  0.00  0.00    -0.024 C 
ATOM      3  C   LIG    1       -1.385  -0.396   0.109  0.00  0.00    +0.007 C 
ATOM      4  C   LIG    1       -1.470  -1.815  -0.213  0.00  0.00    +0.001 C 
ATOM      5  C   LIG    1       -0.816  -2.826   0.697  0.00  0.00    +0.007 C 
ATOM      6  C   LIG    1        0.597  -3.087   0.277  0.00  0.00    -0.032 C 
ATOM      7  C   LIG    1        1.052  -4.321   1.110  0.00  0.00    +0.011 C 
ATOM      8  C   LIG    1        0.753  -3.474  -1.170  0.00  0.00    +0.011 C 
ATOM      9  C   LIG    1        1.497  -1.915   0.757  0.00  0.00    +0.002 C 
ATOM     10  C   LIG    1        2.122  -1.259  -0.537  0.00  0.00    -0.001 C 
ATOM     11  C   LIG    1        2.989  -0.177   0.196  0.00  0.00    +0.004 C 
ATOM     12  C   LIG    1        2.136   0.233   1.423  0.00  0.00    +0.004 C 
ATOM     13  C   LIG    1        0.919  -0.495  -1.168  0.00  0.00    +0.024 C 
ATOM     14  C   LIG    1        0.817  -0.598   1.240  0.00  0.00    -0.001 C 
ENDROOT
BRANCH  13  15
ATOM     15  C   LIG    1        1.378   0.670  -2.053  0.00  0.00    +0.160 C 
BRANCH  15  16
ATOM     16  O   LIG    1        2.031   0.157  -3.216  0.00  0.00    -0.395 OA
ATOM     17  H   LIG    1        2.348   0.839  -3.822  0.00  0.00    +0.209 HD
ENDBRANCH  15  16
ENDBRANCH  13  15
TORSDOF 2
