REMARK  Name = ZINC66079137
REMARK                            x       y       z     vdW  Elec       q    Type
REMARK                         _______ _______ _______ _____ _____    ______ ____
ROOT
ATOM      1  C   LIG    1       -0.018   1.503   0.010  0.00  0.00    +0.066 C 
ATOM      2  C   LIG    1        0.002  -0.004   0.002  0.00  0.00    +0.042 A 
ATOM      3  C   LIG    1       -1.204  -0.719   0.004  0.00  0.00    +0.046 A 
ATOM      4  C   LIG    1       -1.176  -2.074  -0.004  0.00  0.00    +0.044 A 
ATOM      5  C   LIG    1       -2.459  -2.864  -0.001  0.00  0.00    +0.066 C 
ATOM      6  N   LIG    1        0.029  -2.714  -0.013  0.00  0.00    -0.215 N 
ATOM      7  C   LIG    1        1.189  -1.982  -0.014  0.00  0.00    +0.183 A 
ATOM      8  C   LIG    1        2.241  -2.887  -0.024  0.00  0.00    +0.179 A 
ATOM      9  C   LIG    1        1.693  -4.168  -0.028  0.00  0.00    +0.169 A 
ATOM     10  N   LIG    1        0.379  -4.069  -0.021  0.00  0.00    -0.148 NA
ATOM     11  N   LIG    1        1.149  -0.642  -0.012  0.00  0.00    -0.231 NA
ENDROOT
BRANCH   8  12
ATOM     12  S   LIG    1        3.957  -2.489  -0.030  0.00  0.00    +0.032 S 
ATOM     13  O   LIG    1        4.069  -1.182  -0.576  0.00  0.00    -0.164 OA
ATOM     14  O   LIG    1        4.631  -3.608  -0.589  0.00  0.00    -0.164 OA
BRANCH  12  15
ATOM     15  C   LIG    1        4.473  -2.379   1.651  0.00  0.00    +0.094 A 
ATOM     16  C   LIG    1        4.399  -1.171   2.319  0.00  0.00    +0.027 A 
ATOM     17  C   LIG    1        4.804  -1.084   3.638  0.00  0.00    +0.002 A 
ATOM     18  C   LIG    1        5.282  -2.206   4.289  0.00  0.00    +0.000 A 
ATOM     19  C   LIG    1        5.354  -3.415   3.622  0.00  0.00    +0.002 A 
ATOM     20  C   LIG    1        4.946  -3.502   2.304  0.00  0.00    +0.027 A 
ENDBRANCH  12  15
ENDBRANCH   8  12
BRANCH   9  21
ATOM     21  N   LIG    1        2.419  -5.363  -0.037  0.00  0.00    -0.329 N 
ATOM     22  H   LIG    1        3.388  -5.341  -0.042  0.00  0.00    +0.147 HD
ATOM     23  C   LIG    1        1.714  -6.647  -0.041  0.00  0.00    +0.127 C 
ENDBRANCH   9  21
TORSDOF 3
