REMARK  Name = ZINC36178975
REMARK                            x       y       z     vdW  Elec       q    Type
REMARK                         _______ _______ _______ _____ _____    ______ ____
ROOT
ATOM      1  C   LIG    1        3.045  -8.151   4.926  0.00  0.00    +0.000 C 
ENDROOT
BRANCH   1   2
ATOM      2  C   LIG    1        3.024  -6.621   4.935  0.00  0.00    +0.000 C 
BRANCH   2   3
ATOM      3  C   LIG    1        2.284  -6.114   3.695  0.00  0.00    -0.000 C 
BRANCH   3   4
ATOM      4  C   LIG    1        2.264  -4.584   3.704  0.00  0.00    -0.000 C 
BRANCH   4   5
ATOM      5  C   LIG    1        1.524  -4.077   2.464  0.00  0.00    -0.000 C 
BRANCH   5   6
ATOM      6  C   LIG    1        1.503  -2.548   2.473  0.00  0.00    -0.000 C 
BRANCH   6   7
ATOM      7  C   LIG    1        0.763  -2.041   1.233  0.00  0.00    -0.000 C 
BRANCH   7   8
ATOM      8  C   LIG    1        0.742  -0.511   1.242  0.00  0.00    -0.000 C 
BRANCH   8  10
ATOM      9  C   LIG    1       -0.019   1.526   0.010  0.00  0.00    +0.004 C 
ATOM     10  C   LIG    1        0.002  -0.004   0.002  0.00  0.00    -0.003 C 
ENDBRANCH   8  10
ENDBRANCH   7   8
ENDBRANCH   6   7
ENDBRANCH   5   6
ENDBRANCH   4   5
ENDBRANCH   3   4
ENDBRANCH   2   3
ENDBRANCH   1   2
BRANCH   1  11
ATOM     11  C   LIG    1        3.785  -8.658   6.166  0.00  0.00    +0.000 C 
BRANCH  11  12
ATOM     12  C   LIG    1        3.806 -10.187   6.158  0.00  0.00    +0.001 C 
BRANCH  12  13
ATOM     13  C   LIG    1        4.546 -10.694   7.397  0.00  0.00    +0.012 C 
BRANCH  13  14
ATOM     14  C   LIG    1        4.566 -12.224   7.389  0.00  0.00    +0.127 C 
BRANCH  14  15
ATOM     15  P   LIG    1        5.448 -12.828   8.866  0.00  0.00    +0.328 P 
ATOM     16  O   LIG    1        6.856 -12.193   8.921  0.00  0.00    -0.259 OA
BRANCH  15  17
ATOM     17  O   LIG    1        5.585 -14.431   8.791  0.00  0.00    -0.324 OA
ATOM     18  H   LIG    1        6.045 -14.822   9.547  0.00  0.00    +0.220 HD
ENDBRANCH  15  17
BRANCH  15  19
ATOM     19  O   LIG    1        4.657 -12.437  10.134  0.00  0.00    -0.324 OA
ATOM     20  H   LIG    1        4.575 -11.471  10.178  0.00  0.00    +0.220 HD
ENDBRANCH  15  19
ENDBRANCH  14  15
ENDBRANCH  13  14
ENDBRANCH  12  13
ENDBRANCH  11  12
ENDBRANCH   1  11
TORSDOF 15
