REMARK  Name = ZINC36187798
REMARK                            x       y       z     vdW  Elec       q    Type
REMARK                         _______ _______ _______ _____ _____    ______ ____
ROOT
ATOM      1  C   LIG    1       -0.016   1.355   0.009  0.00  0.00    +0.001 A 
ATOM      2  C   LIG    1        1.157   2.098   0.002  0.00  0.00    +0.001 A 
ATOM      3  C   LIG    1        2.374   1.446  -0.013  0.00  0.00    +0.015 A 
ATOM      4  C   LIG    1        2.405   0.067  -0.021  0.00  0.00    +0.020 A 
ATOM      5  C   LIG    1        1.229  -0.710  -0.013  0.00  0.00    -0.007 A 
ATOM      6  C   LIG    1        1.432  -2.161  -0.022  0.00  0.00    -0.026 A 
ATOM      7  C   LIG    1        2.707  -2.605  -0.037  0.00  0.00    +0.008 A 
ATOM      8  C   LIG    1        3.154  -4.034  -0.045  0.00  0.00    +0.124 C 
ATOM      9  N   LIG    1        2.003  -4.880   0.321  0.00  0.00    -0.301 NA
ATOM     10  H   LIG    1        2.225  -5.859   0.214  0.00  0.00    +0.123 HD
ATOM     11  C   LIG    1        0.820  -4.518  -0.472  0.00  0.00    +0.145 C 
ATOM     12  C   LIG    1        0.278  -3.160  -0.018  0.00  0.00    +0.064 C 
ATOM     13  S   LIG    1        3.705  -1.142  -0.041  0.00  0.00    -0.092 S 
ATOM     14  C   LIG    1        0.002  -0.004   0.002  0.00  0.00    +0.009 A 
ENDROOT
BRANCH  11  15
ATOM     15  C   LIG    1       -0.246  -5.566  -0.287  0.00  0.00    +0.231 C 
ATOM     16  N   LIG    1       -1.240  -5.684  -1.190  0.00  0.00    -0.311 N 
ATOM     17  H   LIG    1       -1.269  -5.094  -1.959  0.00  0.00    +0.149 HD
ATOM     18  O   LIG    1       -0.210  -6.304   0.675  0.00  0.00    -0.274 OA
BRANCH  16  19
ATOM     19  C   LIG    1       -2.277  -6.703  -1.009  0.00  0.00    +0.073 C 
ATOM     20  C   LIG    1       -1.791  -8.033  -1.589  0.00  0.00    +0.022 C 
ATOM     21  C   LIG    1       -2.873  -9.098  -1.401  0.00  0.00    +0.002 C 
ATOM     22  C   LIG    1       -4.149  -8.662  -2.125  0.00  0.00    +0.000 C 
ATOM     23  C   LIG    1       -4.635  -7.332  -1.545  0.00  0.00    +0.002 C 
ATOM     24  C   LIG    1       -3.552  -6.267  -1.733  0.00  0.00    +0.022 C 
ENDBRANCH  16  19
ENDBRANCH  11  15
TORSDOF 2
