REMARK  Name = ZINC59097866
REMARK                            x       y       z     vdW  Elec       q    Type
REMARK                         _______ _______ _______ _____ _____    ______ ____
ROOT
ATOM      1  C   LIG    1       -5.062  -1.621  -0.463  0.00  0.00    +0.013 A 
ATOM      2  C   LIG    1       -6.203  -2.341  -0.679  0.00  0.00    +0.042 A 
ATOM      3  C   LIG    1       -7.184  -1.868  -1.543  0.00  0.00    +0.160 A 
ATOM      4  F   LIG    1       -8.305  -2.595  -1.745  0.00  0.00    -0.202 F 
ATOM      5  C   LIG    1       -7.024  -0.661  -2.199  0.00  0.00    +0.182 A 
ATOM      6  F   LIG    1       -7.983  -0.211  -3.036  0.00  0.00    -0.200 F 
ATOM      7  C   LIG    1       -5.869   0.087  -1.991  0.00  0.00    +0.088 A 
ATOM      8  N   LIG    1       -5.682   1.295  -2.631  0.00  0.00    -0.320 N 
ATOM      9  H   LIG    1       -6.365   1.627  -3.235  0.00  0.00    +0.169 HD
ATOM     10  C   LIG    1       -4.566   2.018  -2.431  0.00  0.00    +0.250 A 
ATOM     11  O   LIG    1       -4.434   3.081  -3.013  0.00  0.00    -0.268 OA
ATOM     12  C   LIG    1       -3.544   1.577  -1.564  0.00  0.00    +0.076 A 
ATOM     13  C   LIG    1       -3.668   0.398  -0.904  0.00  0.00    -0.013 A 
ATOM     14  C   LIG    1       -4.879  -0.397  -1.115  0.00  0.00    +0.006 A 
ENDROOT
BRANCH  13  15
ATOM     15  C   LIG    1       -2.583  -0.083   0.025  0.00  0.00    +0.161 C 
BRANCH  15  16
ATOM     16  N   LIG    1       -2.888   0.345   1.393  0.00  0.00    -0.306 N 
ATOM     17  C   LIG    1       -3.525  -0.403   2.358  0.00  0.00    +0.180 A 
ATOM     18  C   LIG    1       -3.593   0.417   3.502  0.00  0.00    +0.198 A 
ATOM     19  N   LIG    1       -3.006   1.595   3.178  0.00  0.00    -0.211 NA
ATOM     20  N   LIG    1       -4.167  -0.048   4.609  0.00  0.00    -0.232 NA
ATOM     21  C   LIG    1       -4.665  -1.269   4.626  0.00  0.00    +0.133 A 
ATOM     22  C   LIG    1       -4.596  -2.073   3.498  0.00  0.00    +0.133 A 
ATOM     23  N   LIG    1       -4.030  -1.626   2.392  0.00  0.00    -0.233 NA
ATOM     24  C   LIG    1       -2.588   1.550   1.945  0.00  0.00    +0.117 A 
BRANCH  24  25
ATOM     25  C   LIG    1       -1.879   2.674   1.233  0.00  0.00    +0.055 C 
ATOM     26  C   LIG    1       -0.815   3.375   2.095  0.00  0.00    +0.011 C 
ATOM     27  C   LIG    1       -1.303   4.698   1.481  0.00  0.00    +0.001 C 
ATOM     28  C   LIG    1       -2.655   4.001   1.251  0.00  0.00    +0.011 C 
ENDBRANCH  24  25
ENDBRANCH  15  16
ENDBRANCH  13  15
TORSDOF 3
