REMARK  Name = ZINC00012513
REMARK                            x       y       z     vdW  Elec       q    Type
REMARK                         _______ _______ _______ _____ _____    ______ ____
ROOT
ATOM      1  C   LIG    1        0.506   5.671   4.740  0.00  0.00    +0.225 A 
ATOM      2  N   LIG    1       -0.422   5.879   5.657  0.00  0.00    -0.219 NA
ATOM      3  C   LIG    1       -1.637   5.354   5.537  0.00  0.00    +0.147 A 
ATOM      4  C   LIG    1       -1.919   4.567   4.408  0.00  0.00    +0.147 A 
ATOM      5  C   LIG    1       -0.898   4.375   3.462  0.00  0.00    +0.166 A 
ATOM      6  N   LIG    1       -1.435   3.582   2.481  0.00  0.00    -0.312 N 
ATOM      7  C   LIG    1       -2.726   3.318   2.830  0.00  0.00    +0.202 A 
ATOM      8  N   LIG    1       -3.006   3.892   3.964  0.00  0.00    -0.231 NA
ATOM      9  N   LIG    1        0.287   4.941   3.667  0.00  0.00    -0.216 NA
ENDROOT
BRANCH   6  10
ATOM     10  C   LIG    1       -0.750   3.109   1.275  0.00  0.00    +0.090 C 
ATOM     11  C   LIG    1       -0.729   1.579   1.267  0.00  0.00    +0.025 C 
ATOM     12  C   LIG    1       -0.013   1.086   0.008  0.00  0.00    +0.002 C 
ATOM     13  C   LIG    1       -0.753   1.593  -1.232  0.00  0.00    +0.000 C 
ATOM     14  C   LIG    1       -0.773   3.123  -1.223  0.00  0.00    +0.002 C 
ATOM     15  C   LIG    1       -1.490   3.616   0.036  0.00  0.00    +0.025 C 
ENDBRANCH   6  10
BRANCH   3  16
ATOM     16  N   LIG    1       -2.603   5.578   6.503  0.00  0.00    -0.341 N 
ATOM     17  H   LIG    1       -2.397   6.123   7.278  0.00  0.00    +0.144 HD
ATOM     18  H   LIG    1       -3.389   6.036   6.088  0.00  0.00    +0.144 HD
ENDBRANCH   3  16
TORSDOF 2
