REMARK  Name = ZINC19511897
REMARK                            x       y       z     vdW  Elec       q    Type
REMARK                         _______ _______ _______ _____ _____    ______ ____
ROOT
ATOM      1  C   LIG    1        0.002  -0.004   0.002  0.00  0.00    +0.267 C 
ATOM      2  N   LIG    1       -0.016   1.344   0.009  0.00  0.00    -0.193 N 
ATOM      3  H   LIG    1       -0.976   1.881   0.021  0.00  0.00    +0.183 HD
ATOM      4  O   LIG    1        1.064  -0.598  -0.011  0.00  0.00    -0.268 OA
ENDROOT
BRANCH   1   9
ATOM      5  C   LIG    1       -1.280  -2.199  -0.003  0.00  0.00    +0.020 A 
ATOM      6  C   LIG    1       -2.487  -2.797   0.010  0.00  0.00    +0.046 A 
ATOM      7  S   LIG    1       -3.619  -1.422   0.028  0.00  0.00    -0.104 S 
ATOM      8  C   LIG    1       -2.483  -0.115   0.025  0.00  0.00    +0.058 A 
ATOM      9  C   LIG    1       -1.262  -0.757   0.010  0.00  0.00    +0.046 A 
ENDBRANCH   1   9
BRANCH   2  10
ATOM     10  O   LIG    1        1.200   2.068   0.002  0.00  0.00    -0.295 OA
ATOM     11  H   LIG    1        1.185   3.168   0.008  0.00  0.00    +0.241 HD
ENDBRANCH   2  10
TORSDOF 2
