REMARK  Name = ZINC29128228
REMARK                            x       y       z     vdW  Elec       q    Type
REMARK                         _______ _______ _______ _____ _____    ______ ____
ROOT
ATOM      1  C   LIG    1       -6.842   2.300  -1.378  0.00  0.00    +0.217 C 
ATOM      2  N   LIG    1       -7.527   2.276  -2.538  0.00  0.00    -0.290 N 
ATOM      3  C   LIG    1       -6.933   2.298  -3.887  0.00  0.00    +0.108 C 
ATOM      4  C   LIG    1       -8.004   1.645  -4.800  0.00  0.00    +0.021 C 
ATOM      5  C   LIG    1       -9.316   2.191  -4.177  0.00  0.00    +0.033 C 
ATOM      6  C   LIG    1       -8.991   2.231  -2.668  0.00  0.00    +0.162 C 
ATOM      7  O   LIG    1       -7.438   2.284  -0.322  0.00  0.00    -0.276 OA
ENDROOT
BRANCH   6   8
ATOM      8  C   LIG    1       -9.527   0.993  -1.996  0.00  0.00    +0.238 C 
ATOM      9  N   LIG    1      -10.852   0.748  -1.994  0.00  0.00    -0.283 N 
ATOM     10  H   LIG    1      -11.550   1.494  -2.402  0.00  0.00    +0.155 HD
ATOM     11  O   LIG    1       -8.766   0.218  -1.457  0.00  0.00    -0.273 OA
BRANCH   9  12
ATOM     12  C   LIG    1      -11.340  -0.454  -1.473  0.00  0.00    +0.041 A 
ATOM     13  C   LIG    1      -10.527  -1.578  -1.437  0.00  0.00    +0.024 A 
ATOM     14  C   LIG    1      -11.011  -2.764  -0.922  0.00  0.00    +0.002 A 
ATOM     15  C   LIG    1      -12.306  -2.840  -0.439  0.00  0.00    +0.001 A 
ATOM     16  C   LIG    1      -13.125  -1.730  -0.468  0.00  0.00    +0.010 A 
ATOM     17  C   LIG    1      -12.647  -0.527  -0.980  0.00  0.00    +0.003 A 
BRANCH  17  18
ATOM     18  C   LIG    1      -13.522   0.671  -1.008  0.00  0.00    -0.016 A 
ATOM     19  C   LIG    1      -13.062   1.885  -0.502  0.00  0.00    +0.008 A 
ATOM     20  C   LIG    1      -13.879   2.997  -0.535  0.00  0.00    +0.001 A 
ATOM     21  C   LIG    1      -15.155   2.906  -1.060  0.00  0.00    +0.000 A 
ATOM     22  C   LIG    1      -15.619   1.702  -1.559  0.00  0.00    +0.001 A 
ATOM     23  C   LIG    1      -14.809   0.585  -1.536  0.00  0.00    +0.008 A 
ENDBRANCH  17  18
ENDBRANCH   9  12
ENDBRANCH   6   8
BRANCH   1  24
ATOM     24  C   LIG    1       -5.336   2.346  -1.393  0.00  0.00    +0.103 C 
BRANCH  24  25
ATOM     25  C   LIG    1       -4.812   2.365   0.045  0.00  0.00    +0.083 C 
BRANCH  25  35
ATOM     26  C   LIG    1       -3.074   4.923   0.022  0.00  0.00    +0.150 C 
ATOM     27  N   LIG    1       -2.561   3.550   0.020  0.00  0.00    -0.331 N 
ATOM     28  C   LIG    1       -1.233   3.172   0.008  0.00  0.00    +0.069 A 
ATOM     29  C   LIG    1       -0.031   3.866  -0.005  0.00  0.00    +0.028 A 
ATOM     30  C   LIG    1        1.159   3.170  -0.015  0.00  0.00    +0.002 A 
ATOM     31  C   LIG    1        1.162   1.782  -0.011  0.00  0.00    +0.002 A 
ATOM     32  C   LIG    1       -0.012   1.083   0.002  0.00  0.00    +0.030 A 
ATOM     33  C   LIG    1       -1.230   1.767   0.006  0.00  0.00    +0.089 A 
ATOM     34  N   LIG    1       -2.528   1.369   0.025  0.00  0.00    -0.232 NA
ATOM     35  C   LIG    1       -3.306   2.412   0.030  0.00  0.00    +0.111 A 
ENDBRANCH  25  35
ENDBRANCH  24  25
ENDBRANCH   1  24
TORSDOF 6
