REMARK  Name = ZINC19632927
REMARK                            x       y       z     vdW  Elec       q    Type
REMARK                         _______ _______ _______ _____ _____    ______ ____
ROOT
ATOM      1  C   LIG    1        2.188  -4.533   1.006  0.00  0.00    +0.248 C 
ATOM      2  N   LIG    1        2.366  -5.857   1.185  0.00  0.00    -0.262 N 
ATOM      3  C   LIG    1        3.219  -6.327   2.182  0.00  0.00    +0.064 A 
ATOM      4  C   LIG    1        4.562  -5.979   2.167  0.00  0.00    +0.027 A 
ATOM      5  C   LIG    1        5.417  -6.475   3.131  0.00  0.00    +0.002 A 
ATOM      6  C   LIG    1        4.941  -7.324   4.117  0.00  0.00    +0.001 A 
ATOM      7  C   LIG    1        3.607  -7.667   4.155  0.00  0.00    +0.015 A 
ATOM      8  C   LIG    1        2.725  -7.157   3.197  0.00  0.00    +0.063 A 
ATOM      9  C   LIG    1        1.291  -7.454   3.293  0.00  0.00    +0.258 A 
ATOM     10  N   LIG    1        0.472  -7.672   2.275  0.00  0.00    -0.319 N 
ATOM     11  H   LIG    1       -0.458  -7.835   2.495  0.00  0.00    +0.169 HD
ATOM     12  C   LIG    1        0.803  -7.693   0.923  0.00  0.00    +0.085 A 
ATOM     13  C   LIG    1        0.219  -8.646   0.093  0.00  0.00    +0.031 A 
ATOM     14  C   LIG    1        0.508  -8.621  -1.251  0.00  0.00    +0.022 A 
ATOM     15  C   LIG    1        1.369  -7.657  -1.736  0.00  0.00    +0.113 A 
ATOM     16  N   LIG    1        1.927  -6.779  -0.926  0.00  0.00    -0.236 NA
ATOM     17  O   LIG    1        0.810  -7.503   4.409  0.00  0.00    -0.267 OA
ATOM     18  C   LIG    1        1.693  -6.779   0.379  0.00  0.00    +0.164 A 
ATOM     19  O   LIG    1        2.776  -3.740   1.710  0.00  0.00    -0.271 OA
ENDROOT
BRANCH   1  20
ATOM     20  C   LIG    1        1.257  -4.037  -0.071  0.00  0.00    +0.184 C 
BRANCH  20  25
ATOM     21  C   LIG    1       -0.018   1.465   0.010  0.00  0.00    +0.105 C 
ATOM     22  N   LIG    1        0.002  -0.004   0.002  0.00  0.00    -0.303 NA
ATOM     23  C   LIG    1        0.603  -0.516  -1.238  0.00  0.00    +0.099 C 
ATOM     24  C   LIG    1        0.533  -2.045  -1.242  0.00  0.00    +0.100 C 
ATOM     25  N   LIG    1        1.237  -2.568  -0.063  0.00  0.00    -0.291 NA
ATOM     26  C   LIG    1        0.636  -2.057   1.176  0.00  0.00    +0.100 C 
ATOM     27  C   LIG    1        0.706  -0.528   1.181  0.00  0.00    +0.099 C 
ENDBRANCH  20  25
ENDBRANCH   1  20
TORSDOF 2
