REMARK  Name = ZINC45506745
REMARK                            x       y       z     vdW  Elec       q    Type
REMARK                         _______ _______ _______ _____ _____    ______ ____
ROOT
ATOM      1  C   LIG    1        1.651  -2.380   2.323  0.00  0.00    +0.061 C 
ATOM      2  C   LIG    1        1.484  -3.684   2.599  0.00  0.00    +0.013 C 
ATOM      3  C   LIG    1        0.776  -4.565   1.603  0.00  0.00    +0.061 C 
ATOM      4  N   LIG    1        1.942  -4.228   3.764  0.00  0.00    -0.331 N 
ATOM      5  H   LIG    1        1.600  -5.083   4.067  0.00  0.00    +0.147 HD
ATOM      6  C   LIG    1        2.901  -3.555   4.520  0.00  0.00    +0.144 C 
ATOM      7  C   LIG    1        3.123  -2.204   4.305  0.00  0.00    +0.053 C 
ATOM      8  C   LIG    1        4.089  -1.555   5.065  0.00  0.00    +0.062 C 
ATOM      9  C   LIG    1        4.799  -2.289   6.025  0.00  0.00    +0.023 C 
ATOM     10  C   LIG    1        4.520  -3.622   6.189  0.00  0.00    +0.060 C 
ATOM     11  C   LIG    1        5.226  -4.474   7.213  0.00  0.00    +0.019 C 
ATOM     12  C   LIG    1        6.520  -3.803   7.669  0.00  0.00    +0.002 C 
ATOM     13  C   LIG    1        6.199  -2.363   8.086  0.00  0.00    +0.000 C 
ATOM     14  C   LIG    1        5.845  -1.567   6.832  0.00  0.00    +0.006 C 
ATOM     15  N   LIG    1        3.593  -4.209   5.439  0.00  0.00    -0.295 NA
ATOM     16  H   LIG    1        3.417  -5.153   5.571  0.00  0.00    +0.124 HD
ATOM     17  C   LIG    1        2.343  -1.446   3.272  0.00  0.00    +0.066 C 
ENDROOT
BRANCH  17  18
ATOM     18  C   LIG    1        1.313  -0.593   3.966  0.00  0.00    -0.021 A 
ATOM     19  C   LIG    1        1.341   0.788   3.837  0.00  0.00    +0.007 A 
ATOM     20  C   LIG    1        0.374   1.532   4.493  0.00  0.00    +0.020 A 
ATOM     21  C   LIG    1       -0.581   0.879   5.250  0.00  0.00    +0.111 A 
ATOM     22  N   LIG    1       -0.577  -0.436   5.351  0.00  0.00    -0.263 NA
ATOM     23  C   LIG    1        0.324  -1.176   4.735  0.00  0.00    +0.115 A 
ENDBRANCH  17  18
BRANCH   8  24
ATOM     24  N   LIG    1        4.346  -0.200   4.875  0.00  0.00    -0.327 NA
ATOM     25  H   LIG    1        5.022   0.244   5.410  0.00  0.00    +0.118 HD
ATOM     26  H   LIG    1        3.850   0.299   4.208  0.00  0.00    +0.118 HD
ENDBRANCH   8  24
BRANCH   1  27
ATOM     27  C   LIG    1        1.164  -1.873   1.098  0.00  0.00    +0.337 C 
ATOM     28  O   LIG    1        1.925  -1.711   0.162  0.00  0.00    -0.245 OA
BRANCH  27  29
ATOM     29  O   LIG    1       -0.144  -1.569   0.966  0.00  0.00    -0.462 OA
BRANCH  29  31
ATOM     30  C   LIG    1       -2.070  -0.775  -0.261  0.00  0.00    +0.048 C 
ATOM     31  C   LIG    1       -0.567  -1.060  -0.301  0.00  0.00    +0.229 C 
ENDBRANCH  29  31
ENDBRANCH  27  29
ENDBRANCH   1  27
TORSDOF 5
