REMARK  Name = ZINC27988410
REMARK                            x       y       z     vdW  Elec       q    Type
REMARK                         _______ _______ _______ _____ _____    ______ ____
ROOT
ATOM      1  C   LIG    1       -1.236   3.137   0.030  0.00  0.00    +0.121 A 
ATOM      2  C   LIG    1       -1.217   1.750   0.017  0.00  0.00    +0.048 A 
ATOM      3  C   LIG    1       -0.013   1.076   0.008  0.00  0.00    +0.031 A 
ATOM      4  C   LIG    1        1.180   1.786   0.000  0.00  0.00    +0.066 A 
ATOM      5  C   LIG    1        1.161   3.175   0.007  0.00  0.00    +0.031 A 
ATOM      6  C   LIG    1       -0.045   3.848   0.022  0.00  0.00    +0.048 A 
ENDROOT
BRANCH   4   7
ATOM      7  N   LIG    1        2.404   1.102  -0.014  0.00  0.00    -0.239 N 
ATOM      8  C   LIG    1        3.623   1.671  -0.028  0.00  0.00    +0.129 A 
ATOM      9  C   LIG    1        4.554   0.651  -0.036  0.00  0.00    +0.097 A 
ATOM     10  C   LIG    1        3.838  -0.568  -0.036  0.00  0.00    +0.149 A 
ATOM     11  N   LIG    1        2.564  -0.288  -0.022  0.00  0.00    -0.174 NA
BRANCH   9  12
ATOM     12  C   LIG    1        6.019   0.805  -0.049  0.00  0.00    +0.340 C 
ATOM     13  O   LIG    1        6.514   1.915  -0.049  0.00  0.00    -0.245 OA
BRANCH  12  14
ATOM     14  O   LIG    1        6.811  -0.286  -0.062  0.00  0.00    -0.477 OA
ATOM     15  H   LIG    1        6.429  -1.142  -0.062  0.00  0.00    +0.295 HD
ENDBRANCH  12  14
ENDBRANCH   9  12
ENDBRANCH   4   7
BRANCH   1  16
ATOM     16  O   LIG    1       -2.423   3.800   0.044  0.00  0.00    -0.492 OA
BRANCH  16  17
ATOM     17  C   LIG    1       -3.610   3.006   0.051  0.00  0.00    +0.232 C 
BRANCH  17  19
ATOM     18  C   LIG    1       -4.893   4.721  -1.236  0.00  0.00    +0.010 C 
ATOM     19  C   LIG    1       -4.836   3.921   0.067  0.00  0.00    +0.020 C 
ATOM     20  C   LIG    1       -6.103   3.073   0.201  0.00  0.00    +0.010 C 
ENDBRANCH  17  19
ENDBRANCH  16  17
ENDBRANCH   1  16
TORSDOF 6
