REMARK  Name = ZINC13819699
REMARK                            x       y       z     vdW  Elec       q    Type
REMARK                         _______ _______ _______ _____ _____    ______ ____
ROOT
ATOM      1  C   LIG    1       -0.742   1.591   3.570  0.00  0.00    +0.068 A 
ATOM      2  C   LIG    1       -0.149   1.182   2.380  0.00  0.00    +0.140 A 
ATOM      3  C   LIG    1        0.991   0.393   2.431  0.00  0.00    +0.156 A 
ATOM      4  N   LIG    1        1.514   0.040   3.588  0.00  0.00    -0.258 NA
ATOM      5  C   LIG    1        0.978   0.410   4.734  0.00  0.00    +0.131 A 
ATOM      6  C   LIG    1       -0.162   1.193   4.765  0.00  0.00    +0.062 A 
ATOM      7 CL   LIG    1       -0.858   1.673   6.281  0.00  0.00    -0.082 Cl
ENDROOT
BRANCH   2   8
ATOM      8  O   LIG    1       -0.682   1.547   1.184  0.00  0.00    -0.492 OA
BRANCH   8   9
ATOM      9  C   LIG    1       -0.013   1.086   0.008  0.00  0.00    +0.210 C 
BRANCH   9  10
ATOM     10  C   LIG    1       -0.753   1.593  -1.232  0.00  0.00    -0.045 C 
BRANCH  10  11
ATOM     11  N   LIG    1       -0.682   3.064  -1.265  0.00  0.00    +0.380 N 
ATOM     12  H   LIG    1       -1.146   3.443  -0.431  0.00  0.00    -0.090 HD
ATOM     13  H   LIG    1       -1.151   3.418  -2.097  0.00  0.00    -0.090 HD
ATOM     14  H   LIG    1        0.291   3.367  -1.270  0.00  0.00    -0.090 HD
ENDBRANCH  10  11
ENDBRANCH   9  10
ENDBRANCH   8   9
ENDBRANCH   2   8
TORSDOF 4
