REMARK  Name = ZINC43467149
REMARK                            x       y       z     vdW  Elec       q    Type
REMARK                         _______ _______ _______ _____ _____    ______ ____
ROOT
ATOM      1  N   LIG    1        1.312  -4.188   2.103  0.00  0.00    -0.299 N 
ATOM      2  H   LIG    1        0.873  -4.606   1.347  0.00  0.00    +0.150 HD
ATOM      3  C   LIG    1        1.887  -4.949   3.055  0.00  0.00    +0.300 C 
ATOM      4  N   LIG    1        1.851  -6.293   2.956  0.00  0.00    -0.294 N 
ATOM      5  H   LIG    1        1.412  -6.712   2.200  0.00  0.00    +0.151 HD
ATOM      6  O   LIG    1        2.438  -4.424   4.004  0.00  0.00    -0.253 OA
ENDROOT
BRANCH   4   7
ATOM      7  C   LIG    1        2.476  -7.120   3.991  0.00  0.00    +0.037 C 
ATOM      8  C   LIG    1        3.969  -6.795   4.072  0.00  0.00    +0.029 C 
ATOM      9  C   LIG    1        4.621  -7.660   5.153  0.00  0.00    -0.008 C 
ATOM     10  C   LIG    1        4.439  -9.138   4.802  0.00  0.00    +0.007 C 
ATOM     11  C   LIG    1        2.946  -9.463   4.722  0.00  0.00    -0.008 C 
ATOM     12  C   LIG    1        2.288  -9.174   6.072  0.00  0.00    +0.007 C 
ATOM     13  C   LIG    1        2.470  -7.696   6.423  0.00  0.00    -0.008 C 
ATOM     14  C   LIG    1        3.962  -7.371   6.503  0.00  0.00    +0.007 C 
ATOM     15  C   LIG    1        1.817  -6.832   5.342  0.00  0.00    +0.029 C 
ATOM     16  C   LIG    1        2.294  -8.598   3.641  0.00  0.00    +0.029 C 
ENDBRANCH   4   7
BRANCH   1  17
ATOM     17  C   LIG    1        1.351  -2.727   2.211  0.00  0.00    +0.108 C 
BRANCH  17  18
ATOM     18  C   LIG    1        0.633  -2.108   1.011  0.00  0.00    +0.047 C 
BRANCH  18  19
ATOM     19  C   LIG    1        0.673  -0.582   1.123  0.00  0.00    +0.161 C 
BRANCH  19  21
ATOM     20  C   LIG    1       -0.017   1.425   0.010  0.00  0.00    +0.193 C 
ATOM     21  O   LIG    1        0.002  -0.004   0.002  0.00  0.00    -0.383 OA
ENDBRANCH  19  21
ENDBRANCH  18  19
ENDBRANCH  17  18
ENDBRANCH   1  17
TORSDOF 5
