REMARK  Name = ZINC42856596
REMARK                            x       y       z     vdW  Elec       q    Type
REMARK                         _______ _______ _______ _____ _____    ______ ____
ROOT
ATOM      1  C   LIG    1       -1.690  -1.267   3.780  0.00  0.00    +0.109 C 
ATOM      2  C   LIG    1       -2.861  -1.676   4.678  0.00  0.00    +0.046 C 
ATOM      3  C   LIG    1       -2.703  -1.015   6.049  0.00  0.00    +0.060 C 
ATOM      4  C   LIG    1       -1.404  -1.495   6.701  0.00  0.00    +0.038 C 
ATOM      5  C   LIG    1       -0.216  -1.084   5.826  0.00  0.00    +0.111 C 
ATOM      6  N   LIG    1       -0.430  -1.591   4.464  0.00  0.00    -0.278 N 
ATOM      7  C   LIG    1        0.508  -2.342   3.854  0.00  0.00    +0.306 C 
ATOM      8  N   LIG    1        1.326  -3.124   4.587  0.00  0.00    -0.282 N 
ATOM      9  C   LIG    1        1.075  -3.307   6.019  0.00  0.00    +0.134 C 
ATOM     10  O   LIG    1        0.618  -2.315   2.644  0.00  0.00    -0.252 OA
ENDROOT
BRANCH   3  11
ATOM     11  N   LIG    1       -3.842  -1.379   6.902  0.00  0.00    -0.296 NA
ATOM     12  C   LIG    1       -5.115  -1.024   6.261  0.00  0.00    +0.103 C 
ATOM     13  C   LIG    1       -6.275  -1.579   7.093  0.00  0.00    +0.123 C 
ATOM     14  N   LIG    1       -6.124  -1.108   8.479  0.00  0.00    -0.299 N 
ATOM     15  C   LIG    1       -7.147  -0.511   9.122  0.00  0.00    +0.213 C 
ATOM     16  C   LIG    1       -6.970  -0.036  10.541  0.00  0.00    +0.109 C 
ATOM     17  O   LIG    1       -8.210  -0.356   8.558  0.00  0.00    -0.276 OA
ATOM     18  C   LIG    1       -4.827  -1.306   9.143  0.00  0.00    +0.123 C 
ATOM     19  C   LIG    1       -3.724  -0.762   8.230  0.00  0.00    +0.103 C 
ENDBRANCH   3  11
BRANCH   1  27
ATOM     20  C   LIG    1       -3.326  -0.259   1.624  0.00  0.00    +0.044 C 
ATOM     21  C   LIG    1       -2.549  -1.537   1.445  0.00  0.00    -0.043 A 
ATOM     22  C   LIG    1       -2.615  -2.224   0.247  0.00  0.00    +0.042 A 
ATOM     23  C   LIG    1       -1.900  -3.398   0.083  0.00  0.00    +0.124 A 
ATOM     24  F   LIG    1       -1.964  -4.071  -1.087  0.00  0.00    -0.205 F 
ATOM     25  C   LIG    1       -1.119  -3.883   1.119  0.00  0.00    +0.039 A 
ATOM     26  C   LIG    1       -1.055  -3.195   2.315  0.00  0.00    +0.008 A 
ATOM     27  C   LIG    1       -1.765  -2.020   2.477  0.00  0.00    -0.024 A 
ENDBRANCH   1  27
BRANCH   8  28
ATOM     28  C   LIG    1        2.465  -3.791   3.952  0.00  0.00    +0.104 C 
ATOM     29  C   LIG    1        2.402  -5.292   4.238  0.00  0.00    +0.033 C 
BRANCH  28  30
ATOM     30  C   LIG    1        3.749  -3.228   4.505  0.00  0.00    -0.026 A 
ATOM     31  C   LIG    1        4.772  -4.078   4.880  0.00  0.00    +0.017 A 
ATOM     32  C   LIG    1        5.949  -3.562   5.387  0.00  0.00    +0.056 A 
ATOM     33  C   LIG    1        6.105  -2.194   5.518  0.00  0.00    +0.024 A 
ATOM     34  C   LIG    1        5.082  -1.344   5.141  0.00  0.00    +0.056 A 
ATOM     35  C   LIG    1        3.906  -1.860   4.630  0.00  0.00    +0.017 A 
BRANCH  32  36
ATOM     36  C   LIG    1        7.064  -4.489   5.798  0.00  0.00    +0.417 C 
ATOM     37  F   LIG    1        6.523  -5.705   6.231  0.00  0.00    -0.166 F 
ATOM     38  F   LIG    1        7.795  -3.907   6.839  0.00  0.00    -0.166 F 
ATOM     39  F   LIG    1        7.908  -4.717   4.706  0.00  0.00    -0.166 F 
ENDBRANCH  32  36
BRANCH  34  40
ATOM     40  C   LIG    1        5.251   0.147   5.284  0.00  0.00    +0.417 C 
ATOM     41  F   LIG    1        4.265   0.648   6.141  0.00  0.00    -0.166 F 
ATOM     42  F   LIG    1        5.130   0.753   4.029  0.00  0.00    -0.166 F 
ATOM     43  F   LIG    1        6.515   0.424   5.816  0.00  0.00    -0.166 F 
ENDBRANCH  34  40
ENDBRANCH  28  30
ENDBRANCH   8  28
TORSDOF 6
