REMARK  Name = ZINC00039089
REMARK                            x       y       z     vdW  Elec       q    Type
REMARK                         _______ _______ _______ _____ _____    ______ ____
ROOT
ATOM      1  C   LIG    1        1.462  -2.520   2.405  0.00  0.00    -0.017 A 
ATOM      2  C   LIG    1        0.783  -2.672   3.599  0.00  0.00    +0.010 A 
ATOM      3  C   LIG    1        1.447  -3.130   4.722  0.00  0.00    +0.049 A 
ATOM      4  C   LIG    1        2.796  -3.437   4.652  0.00  0.00    +0.158 A 
ATOM      5  C   LIG    1        3.480  -3.284   3.449  0.00  0.00    +0.159 A 
ATOM      6  C   LIG    1        2.807  -2.829   2.326  0.00  0.00    +0.055 A 
ENDROOT
BRANCH   4   7
ATOM      7  O   LIG    1        3.451  -3.887   5.755  0.00  0.00    -0.503 OA
ATOM      8  H   LIG    1        3.440  -4.849   5.855  0.00  0.00    +0.292 HD
ENDBRANCH   4   7
BRANCH   5   9
ATOM      9  O   LIG    1        4.804  -3.584   3.375  0.00  0.00    -0.503 OA
ATOM     10  H   LIG    1        4.987  -4.503   3.134  0.00  0.00    +0.292 HD
ENDBRANCH   5   9
BRANCH   1  11
ATOM     11  C   LIG    1        0.733  -2.021   1.184  0.00  0.00    +0.128 C 
BRANCH  11  12
ATOM     12  O   LIG    1       -0.607  -2.515   1.194  0.00  0.00    -0.389 OA
ATOM     13  H   LIG    1       -1.122  -2.241   1.965  0.00  0.00    +0.210 HD
ENDBRANCH  11  12
BRANCH  11  14
ATOM     14  C   LIG    1        0.713  -0.491   1.192  0.00  0.00    -0.046 C 
BRANCH  14  16
ATOM     15  C   LIG    1       -0.018   1.465   0.010  0.00  0.00    -0.100 C 
ATOM     16  N   LIG    1        0.002  -0.004   0.002  0.00  0.00    +0.379 N 
ATOM     17  H   LIG    1        0.474  -0.330  -0.828  0.00  0.00    -0.086 HD
ATOM     18  H   LIG    1       -0.945  -0.353   0.009  0.00  0.00    -0.086 HD
ENDBRANCH  14  16
ENDBRANCH  11  14
ENDBRANCH   1  11
TORSDOF 6
