REMARK  Name = ZINC28353885
REMARK                            x       y       z     vdW  Elec       q    Type
REMARK                         _______ _______ _______ _____ _____    ______ ____
ROOT
ATOM      1  N   LIG    1       -1.191   1.869   0.018  0.00  0.00    -0.272 N 
ATOM      2  H   LIG    1       -1.206   2.969   0.024  0.00  0.00    +0.153 HD
ATOM      3  C   LIG    1       -0.014   1.211   0.009  0.00  0.00    +0.401 C 
ATOM      4  O   LIG    1        0.002  -0.004   0.002  0.00  0.00    -0.226 OA
ENDROOT
BRANCH   1   5
ATOM      5  CA  LIG    1       -2.449   1.119   0.020  0.00  0.00    +0.139 C 
BRANCH   5   6
ATOM      6  C   LIG    1       -2.811   0.748   1.435  0.00  0.00    +0.245 C 
ATOM      7  O   LIG    1       -2.091   1.076   2.348  0.00  0.00    -0.299 OA
ENDBRANCH   5   6
BRANCH   5   8
ATOM      8  C   LIG    1       -3.559   1.985  -0.580  0.00  0.00    +0.030 C 
BRANCH   8   9
ATOM      9  C   LIG    1       -3.253   2.258  -2.054  0.00  0.00    +0.002 C 
BRANCH   9  11
ATOM     10  C   LIG    1       -4.057   3.396  -4.128  0.00  0.00    +0.004 C 
ATOM     11  C   LIG    1       -4.363   3.123  -2.654  0.00  0.00    -0.003 C 
ENDBRANCH   9  11
ENDBRANCH   8   9
ENDBRANCH   5   8
ENDBRANCH   1   5
BRANCH   3  12
ATOM     12  O   LIG    1        1.142   1.900   0.001  0.00  0.00    -0.445 OA
BRANCH  12  13
ATOM     13  C   LIG    1        2.371   1.126  -0.015  0.00  0.00    +0.107 C 
ATOM     14  C   LIG    1        2.429   0.237   1.229  0.00  0.00    +0.055 C 
ATOM     15  C   LIG    1        3.571   2.074  -0.021  0.00  0.00    +0.055 C 
ATOM     16  C   LIG    1        2.405   0.250  -1.269  0.00  0.00    +0.055 C 
ENDBRANCH  12  13
ENDBRANCH   3  12
TORSDOF 7
