REMARK  Name = ZINC72113075
REMARK                            x       y       z     vdW  Elec       q    Type
REMARK                         _______ _______ _______ _____ _____    ______ ____
ROOT
ATOM      1  C   LIG    1        6.385  -1.149   4.922  0.00  0.00    +0.216 C 
ATOM      2  N   LIG    1        7.460  -1.904   5.223  0.00  0.00    -0.314 N 
ATOM      3  H   LIG    1        8.014  -2.265   4.513  0.00  0.00    +0.149 HD
ATOM      4  O   LIG    1        5.693  -0.697   5.809  0.00  0.00    -0.276 OA
ENDROOT
BRANCH   1   9
ATOM      5  N   LIG    1        4.132  -1.068   1.315  0.00  0.00    +0.382 N 
ATOM      6  H   LIG    1        3.409  -1.549   1.828  0.00  0.00    -0.081 HD
ATOM      7  C   LIG    1        4.401   0.227   1.952  0.00  0.00    -0.078 C 
ATOM      8  C   LIG    1        4.787   0.009   3.416  0.00  0.00    -0.006 C 
ATOM      9  C   LIG    1        6.044  -0.865   3.482  0.00  0.00    +0.071 C 
ATOM     10  C   LIG    1        5.776  -2.183   2.749  0.00  0.00    -0.006 C 
ATOM     11  C   LIG    1        5.352  -1.883   1.310  0.00  0.00    -0.078 C 
BRANCH   5  12
ATOM     12  C   LIG    1        3.686  -0.848  -0.068  0.00  0.00    -0.043 C 
BRANCH  12  16
ATOM     13  C   LIG    1       -0.049   1.225  -0.049  0.00  0.00    +0.000 A 
ATOM     14  C   LIG    1        1.136   1.936  -0.072  0.00  0.00    +0.000 A 
ATOM     15  C   LIG    1        2.345   1.265  -0.078  0.00  0.00    +0.002 A 
ATOM     16  C   LIG    1        2.368  -0.117  -0.060  0.00  0.00    -0.064 A 
ATOM     17  C   LIG    1        1.183  -0.828  -0.036  0.00  0.00    +0.002 A 
ATOM     18  C   LIG    1       -0.025  -0.157  -0.032  0.00  0.00    +0.000 A 
ENDBRANCH  12  16
ENDBRANCH   5  12
ENDBRANCH   1   9
BRANCH   2  19
ATOM     19  C   LIG    1        7.792  -2.180   6.623  0.00  0.00    +0.115 C 
BRANCH  19  20
ATOM     20  C   LIG    1        8.972  -3.152   6.685  0.00  0.00    +0.011 C 
ATOM     21  C   LIG    1        8.631  -4.444   5.922  0.00  0.00    +0.013 C 
ATOM     22  C   LIG    1        8.707  -5.594   6.947  0.00  0.00    +0.001 C 
ATOM     23  C   LIG    1        8.481  -4.900   8.314  0.00  0.00    +0.001 C 
ATOM     24  C   LIG    1        9.243  -3.562   8.147  0.00  0.00    +0.013 C 
BRANCH  20  25
ATOM     25  C   LIG    1       10.201  -2.510   6.093  0.00  0.00    -0.040 A 
ATOM     26  C   LIG    1       10.171  -1.182   5.711  0.00  0.00    +0.007 A 
ATOM     27  C   LIG    1       11.297  -0.593   5.169  0.00  0.00    +0.038 A 
ATOM     28  C   LIG    1       12.455  -1.333   5.008  0.00  0.00    +0.123 A 
ATOM     29  F   LIG    1       13.557  -0.758   4.477  0.00  0.00    -0.205 F 
ATOM     30  C   LIG    1       12.485  -2.663   5.390  0.00  0.00    +0.038 A 
ATOM     31  C   LIG    1       11.359  -3.249   5.937  0.00  0.00    +0.007 A 
ENDBRANCH  20  25
ENDBRANCH  19  20
ENDBRANCH   2  19
TORSDOF 6
