REMARK  Name = ZINC16957895
REMARK                            x       y       z     vdW  Elec       q    Type
REMARK                         _______ _______ _______ _____ _____    ______ ____
ROOT
ATOM      1  C   LIG    1        2.897   2.351  -3.169  0.00  0.00    +0.193 C 
ATOM      2  C   LIG    1        3.430   2.417  -1.761  0.00  0.00    +0.106 C 
ENDROOT
BRANCH   2   3
ATOM      3  C   LIG    1        4.432   3.538  -1.655  0.00  0.00    +0.140 A 
ATOM      4  C   LIG    1        5.009   3.881  -0.350  0.00  0.00    +0.240 A 
ATOM      5  N   LIG    1        5.910   4.884  -0.272  0.00  0.00    -0.210 NA
ATOM      6  C   LIG    1        6.253   5.566  -1.422  0.00  0.00    +0.093 A 
ATOM      7  C   LIG    1        7.173   6.609  -1.374  0.00  0.00    +0.030 A 
ATOM      8  C   LIG    1        7.507   7.283  -2.528  0.00  0.00    +0.002 A 
ATOM      9  C   LIG    1        6.933   6.929  -3.742  0.00  0.00    +0.002 A 
ATOM     10  C   LIG    1        6.029   5.910  -3.814  0.00  0.00    +0.030 A 
ATOM     11  C   LIG    1        5.670   5.208  -2.652  0.00  0.00    +0.090 A 
ATOM     12  N   LIG    1        4.777   4.202  -2.720  0.00  0.00    -0.240 NA
BRANCH   4  13
ATOM     13  O   LIG    1        4.684   3.265   0.649  0.00  0.00    -0.491 OA
ATOM     14  H   LIG    1        4.058   2.570   0.588  0.00  0.00    +0.294 HD
ENDBRANCH   4  13
ENDBRANCH   2   3
BRANCH   1  17
ATOM     15  N   LIG    1        1.036   1.804  -4.679  0.00  0.00    -0.278 N 
ATOM     16  H   LIG    1        1.632   2.205  -5.511  0.00  0.00    +0.155 HD
ATOM     17  C   LIG    1        1.512   1.863  -3.419  0.00  0.00    +0.284 C 
ATOM     18  O   LIG    1        0.813   1.517  -2.489  0.00  0.00    -0.266 OA
BRANCH  15  24
ATOM     19  C   LIG    1       -0.491  -0.057  -4.492  0.00  0.00    -0.026 A 
ATOM     20  C   LIG    1       -1.729  -0.617  -4.739  0.00  0.00    +0.005 A 
ATOM     21  C   LIG    1       -2.694   0.105  -5.416  0.00  0.00    +0.001 A 
ATOM     22  C   LIG    1       -2.423   1.391  -5.850  0.00  0.00    +0.006 A 
ATOM     23  C   LIG    1       -1.190   1.959  -5.602  0.00  0.00    -0.023 A 
ATOM     24  C   LIG    1       -0.215   1.234  -4.926  0.00  0.00    +0.040 A 
BRANCH  23  25
ATOM     25  C   LIG    1       -0.898   3.362  -6.069  0.00  0.00    +0.015 C 
ATOM     26  C   LIG    1       -1.883   4.332  -5.415  0.00  0.00    +0.012 C 
ATOM     27  C   LIG    1       -1.044   3.434  -7.590  0.00  0.00    +0.012 C 
ENDBRANCH  23  25
BRANCH  19  29
ATOM     28  C   LIG    1       -0.114  -1.921  -2.901  0.00  0.00    +0.009 C 
ATOM     29  C   LIG    1        0.561  -0.845  -3.754  0.00  0.00    +0.033 C 
ENDBRANCH  19  29
ENDBRANCH  15  24
ENDBRANCH   1  17
BRANCH   2  30
ATOM     30  C   LIG    1        4.099   1.111  -1.415  0.00  0.00    +0.275 C 
ATOM     31  O   LIG    1        5.292   0.989  -1.554  0.00  0.00    -0.279 OA
BRANCH  30  32
ATOM     32  C   LIG    1        3.287  -0.029  -0.903  0.00  0.00    +0.380 C 
ATOM     33  O   LIG    1        2.088   0.094  -0.764  0.00  0.00    -0.241 OA
BRANCH  32  34
ATOM     34  O   LIG    1        3.884  -1.195  -0.594  0.00  0.00    -0.462 OA
ATOM     35  C   LIG    1        3.032  -2.262  -0.101  0.00  0.00    +0.280 C 
ENDBRANCH  32  34
ENDBRANCH  30  32
ENDBRANCH   2  30
BRANCH   1  36
ATOM     36  O   LIG    1        3.593   2.695  -4.095  0.00  0.00    -0.502 OA
ATOM     37  H   LIG    1        3.261   2.654  -4.970  0.00  0.00    +0.292 HD
ENDBRANCH   1  36
TORSDOF 10
