REMARK  Name = ZINC36190184
REMARK                            x       y       z     vdW  Elec       q    Type
REMARK                         _______ _______ _______ _____ _____    ______ ____
ROOT
ATOM      1  C   LIG    1        0.106  -4.490  -0.170  0.00  0.00    +0.053 C 
ENDROOT
BRANCH   1   7
ATOM      2  C   LIG    1       -2.376   0.807  -0.947  0.00  0.00    +0.048 C 
ATOM      3  C   LIG    1       -1.769  -0.559  -0.755  0.00  0.00    +0.003 C 
ATOM      4  C   LIG    1       -2.512  -1.656  -0.951  0.00  0.00    +0.003 C 
ATOM      5  C   LIG    1       -3.956  -1.525  -1.362  0.00  0.00    +0.048 C 
ATOM      6  C   LIG    1       -1.917  -2.995  -0.764  0.00  0.00    +0.186 C 
ATOM      7  C   LIG    1       -0.501  -3.124  -0.361  0.00  0.00    +0.013 C 
ATOM      8  C   LIG    1        0.242  -2.026  -0.166  0.00  0.00    +0.004 C 
ATOM      9  C   LIG    1        1.686  -2.158   0.246  0.00  0.00    +0.048 C 
ATOM     10  O   LIG    1       -2.590  -3.990  -0.941  0.00  0.00    -0.287 OA
ATOM     11  C   LIG    1       -0.352  -0.688  -0.358  0.00  0.00    +0.185 C 
ATOM     12  O   LIG    1        0.323   0.307  -0.185  0.00  0.00    -0.287 OA
ENDBRANCH   1   7
BRANCH   1  13
ATOM     13  C   LIG    1       -0.362  -5.069   1.140  0.00  0.00    -0.040 A 
ATOM     14  C   LIG    1       -1.651  -4.832   1.579  0.00  0.00    +0.004 A 
ATOM     15  C   LIG    1       -2.081  -5.364   2.781  0.00  0.00    +0.000 A 
ATOM     16  C   LIG    1       -1.221  -6.132   3.543  0.00  0.00    +0.000 A 
ATOM     17  C   LIG    1        0.068  -6.369   3.104  0.00  0.00    +0.000 A 
ATOM     18  C   LIG    1        0.496  -5.841   1.900  0.00  0.00    +0.004 A 
ENDBRANCH   1  13
BRANCH   1  19
ATOM     19  C   LIG    1       -0.327  -5.406  -1.317  0.00  0.00    +0.013 C 
BRANCH  19  20
ATOM     20  C   LIG    1        0.388  -6.753  -1.191  0.00  0.00    +0.001 C 
BRANCH  20  21
ATOM     21  C   LIG    1       -0.045  -7.668  -2.337  0.00  0.00    +0.001 C 
BRANCH  21  22
ATOM     22  C   LIG    1        0.669  -9.015  -2.212  0.00  0.00    +0.011 C 
BRANCH  22  23
ATOM     23  C   LIG    1        0.236  -9.931  -3.358  0.00  0.00    +0.120 C 
BRANCH  23  24
ATOM     24  C   LIG    1        0.940 -11.258  -3.235  0.00  0.00    +0.305 C 
ATOM     25  O   LIG    1        1.717 -11.453  -2.315  0.00  0.00    -0.251 OA
BRANCH  24  26
ATOM     26  O   LIG    1        0.734 -12.137  -4.055  0.00  0.00    -0.481 OA
ATOM     27  H   LIG    1        0.137 -11.987  -4.761  0.00  0.00    +0.295 HD
ENDBRANCH  24  26
ENDBRANCH  23  24
ENDBRANCH  22  23
ENDBRANCH  21  22
ENDBRANCH  20  21
ENDBRANCH  19  20
ENDBRANCH   1  19
TORSDOF 9
