REMARK  Name = ZINC26816145
REMARK                            x       y       z     vdW  Elec       q    Type
REMARK                         _______ _______ _______ _____ _____    ______ ____
ROOT
ATOM      1  C   LIG    1        0.220  -1.975   1.691  0.00  0.00    +0.285 C 
ATOM      2  C   LIG    1        1.163  -2.418   2.592  0.00  0.00    +0.060 C 
ATOM      3  C   LIG    1        1.628  -1.546   3.745  0.00  0.00    +0.063 C 
ATOM      4  C   LIG    1        0.407  -1.184   4.593  0.00  0.00    +0.018 C 
ATOM      5  C   LIG    1        2.671  -2.161   4.661  0.00  0.00    +0.065 C 
ATOM      6  C   LIG    1        3.096  -3.427   4.374  0.00  0.00    +0.049 C 
ATOM      7  C   LIG    1        4.131  -4.064   5.265  0.00  0.00    +0.066 C 
ATOM      8  N   LIG    1        2.632  -4.115   3.342  0.00  0.00    -0.256 NA
ATOM      9  C   LIG    1        1.729  -3.690   2.488  0.00  0.00    +0.049 C 
ATOM     10  C   LIG    1        1.297  -4.596   1.365  0.00  0.00    +0.066 C 
ENDROOT
BRANCH   1  11
ATOM     11  O   LIG    1       -0.263  -2.814   0.754  0.00  0.00    -0.480 OA
ATOM     12  H   LIG    1       -0.904  -2.513   0.141  0.00  0.00    +0.295 HD
ENDBRANCH   1  11
BRANCH   5  13
ATOM     13  C   LIG    1        3.181  -1.454   5.763  0.00  0.00    +0.337 C 
ATOM     14  O   LIG    1        3.934  -2.005   6.545  0.00  0.00    -0.245 OA
BRANCH  13  15
ATOM     15  O   LIG    1        2.835  -0.162   5.956  0.00  0.00    -0.460 OA
BRANCH  15  16
ATOM     16  C   LIG    1        3.390   0.495   7.097  0.00  0.00    +0.243 C 
BRANCH  16  17
ATOM     17  C   LIG    1        2.888   1.940   7.147  0.00  0.00    +0.115 C 
BRANCH  17  18
ATOM     18  S   LIG    1        3.593   2.774   8.596  0.00  0.00    -0.122 S 
BRANCH  18  19
ATOM     19  C   LIG    1        2.928   4.404   8.514  0.00  0.00    +0.008 A 
ATOM     20  C   LIG    1        2.067   4.754   7.481  0.00  0.00    +0.015 A 
ATOM     21  C   LIG    1        1.548   6.032   7.420  0.00  0.00    +0.001 A 
ATOM     22  C   LIG    1        1.885   6.964   8.385  0.00  0.00    +0.000 A 
ATOM     23  C   LIG    1        2.743   6.619   9.414  0.00  0.00    +0.001 A 
ATOM     24  C   LIG    1        3.260   5.341   9.485  0.00  0.00    +0.015 A 
ENDBRANCH  18  19
ENDBRANCH  17  18
ENDBRANCH  16  17
ENDBRANCH  15  16
ENDBRANCH  13  15
ENDBRANCH   5  13
BRANCH   1  25
ATOM     25  O   LIG    1       -0.220  -0.702   1.747  0.00  0.00    -0.464 OA
BRANCH  25  27
ATOM     26  C   LIG    1       -1.573   1.156   1.000  0.00  0.00    +0.048 C 
ATOM     27  C   LIG    1       -1.198  -0.311   0.781  0.00  0.00    +0.229 C 
ENDBRANCH  25  27
ENDBRANCH   1  25
TORSDOF 9
