REMARK  Name = ZINC14761282
REMARK                            x       y       z     vdW  Elec       q    Type
REMARK                         _______ _______ _______ _____ _____    ______ ____
ROOT
ATOM      1  C   LIG    1       -4.918   5.508   0.078  0.00  0.00    +0.048 C 
ATOM      2  C   LIG    1       -3.559   6.158   0.069  0.00  0.00    +0.009 A 
ATOM      3  C   LIG    1       -2.405   5.371   0.088  0.00  0.00    +0.071 A 
ATOM      4  C   LIG    1       -1.135   5.970   0.080  0.00  0.00    +0.143 A 
ATOM      5  O   LIG    1       -0.013   5.220   0.100  0.00  0.00    -0.454 OA
ATOM      6  C   LIG    1       -0.019   3.871   0.126  0.00  0.00    +0.146 A 
ATOM      7  C   LIG    1        1.181   3.174   0.144  0.00  0.00    +0.092 A 
ATOM      8  C   LIG    1        1.183   1.788   0.173  0.00  0.00    +0.124 A 
ATOM      9  C   LIG    1       -0.012   1.077   0.184  0.00  0.00    +0.091 A 
ATOM     10  C   LIG    1       -1.219   1.751   0.161  0.00  0.00    +0.135 A 
ATOM     11  C   LIG    1       -1.227   3.153   0.137  0.00  0.00    +0.106 A 
ATOM     12  C   LIG    1       -1.040   7.356   0.053  0.00  0.00    +0.096 A 
ATOM     13  C   LIG    1       -2.186   8.131   0.034  0.00  0.00    +0.162 A 
ATOM     14  C   LIG    1       -2.497   3.898   0.118  0.00  0.00    +0.204 A 
ATOM     15  O   LIG    1       -3.573   3.326   0.126  0.00  0.00    -0.286 OA
ATOM     16  C   LIG    1       -3.448   7.532   0.043  0.00  0.00    +0.162 A 
ENDROOT
BRANCH   8  17
ATOM     17  O   LIG    1        2.363   1.119   0.190  0.00  0.00    -0.507 OA
ATOM     18  H   LIG    1        2.708   0.906  -0.688  0.00  0.00    +0.292 HD
ENDBRANCH   8  17
BRANCH  10  19
ATOM     19  O   LIG    1       -2.387   1.061   0.167  0.00  0.00    -0.506 OA
ATOM     20  H   LIG    1       -2.732   0.880   1.051  0.00  0.00    +0.292 HD
ENDBRANCH  10  19
BRANCH  13  21
ATOM     21  O   LIG    1       -2.082   9.485   0.008  0.00  0.00    -0.503 OA
ATOM     22  H   LIG    1       -2.055   9.894   0.883  0.00  0.00    +0.292 HD
ENDBRANCH  13  21
BRANCH  16  23
ATOM     23  O   LIG    1       -4.568   8.305   0.025  0.00  0.00    -0.503 OA
ATOM     24  H   LIG    1       -4.893   8.546   0.903  0.00  0.00    +0.292 HD
ENDBRANCH  16  23
TORSDOF 4
