REMARK  Name = ZINC53738308
REMARK                            x       y       z     vdW  Elec       q    Type
REMARK                         _______ _______ _______ _____ _____    ______ ____
ROOT
ATOM      1  C   LIG    1       -1.245  -2.036   0.064  0.00  0.00    -0.019 C 
ATOM      2  C   LIG    1       -0.408  -2.497  -1.131  0.00  0.00    +0.010 C 
ATOM      3  C   LIG    1       -1.107  -2.089  -2.430  0.00  0.00    +0.001 C 
ATOM      4  C   LIG    1       -2.489  -2.742  -2.493  0.00  0.00    +0.000 C 
ATOM      5  C   LIG    1       -3.325  -2.281  -1.297  0.00  0.00    +0.001 C 
ATOM      6  C   LIG    1       -2.627  -2.689   0.002  0.00  0.00    +0.010 C 
ENDROOT
BRANCH   1   7
ATOM      7  C   LIG    1       -0.557  -2.438   1.343  0.00  0.00    -0.043 A 
ATOM      8  C   LIG    1       -1.157  -3.346   2.195  0.00  0.00    +0.005 A 
ATOM      9  C   LIG    1       -0.527  -3.715   3.368  0.00  0.00    +0.020 A 
ATOM     10  C   LIG    1        0.705  -3.175   3.691  0.00  0.00    +0.041 A 
ATOM     11 CL   LIG    1        1.497  -3.637   5.165  0.00  0.00    -0.084 Cl
ATOM     12  C   LIG    1        1.306  -2.266   2.838  0.00  0.00    +0.020 A 
ATOM     13  C   LIG    1        0.677  -1.902   1.662  0.00  0.00    +0.005 A 
ENDBRANCH   1   7
BRANCH   1  14
ATOM     14  C   LIG    1       -1.398  -0.514   0.024  0.00  0.00    -0.071 C 
BRANCH  14  16
ATOM     15  C   LIG    1       -2.237   1.398   1.204  0.00  0.00    -0.100 C 
ATOM     16  N   LIG    1       -2.177  -0.069   1.187  0.00  0.00    +0.378 N 
ATOM     17  H   LIG    1       -3.113  -0.443   1.127  0.00  0.00    -0.086 HD
ATOM     18  H   LIG    1       -1.737  -0.398   2.033  0.00  0.00    -0.086 HD
ENDBRANCH  14  16
ENDBRANCH   1  14
TORSDOF 3
