REMARK  Name = ZINC21989839
REMARK                            x       y       z     vdW  Elec       q    Type
REMARK                         _______ _______ _______ _____ _____    ______ ____
ROOT
ATOM      1  C   LIG    1        0.148   2.497   2.083  0.00  0.00    +0.016 C 
ATOM      2  C   LIG    1       -0.762   1.596   1.246  0.00  0.00    +0.061 C 
ATOM      3  C   LIG    1       -0.013   1.086   0.008  0.00  0.00    +0.047 C 
ATOM      4  C   LIG    1       -0.773   1.601  -1.191  0.00  0.00    -0.033 A 
ATOM      5  C   LIG    1       -0.534   1.437  -2.540  0.00  0.00    +0.053 A 
ATOM      6  C   LIG    1       -1.381   2.010  -3.478  0.00  0.00    +0.162 A 
ATOM      7  C   LIG    1       -2.482   2.758  -3.059  0.00  0.00    +0.162 A 
ATOM      8  C   LIG    1       -2.729   2.927  -1.714  0.00  0.00    +0.061 A 
ATOM      9  C   LIG    1       -1.873   2.347  -0.761  0.00  0.00    +0.025 A 
ATOM     10  C   LIG    1       -1.930   2.388   0.707  0.00  0.00    +0.167 C 
ATOM     11  O   LIG    1       -2.770   2.958   1.370  0.00  0.00    -0.292 OA
ENDROOT
BRANCH   6  12
ATOM     12  O   LIG    1       -1.139   1.843  -4.803  0.00  0.00    -0.491 OA
ATOM     13  C   LIG    1        0.005   1.066  -5.160  0.00  0.00    +0.277 C 
ENDBRANCH   6  12
BRANCH   7  14
ATOM     14  O   LIG    1       -3.313   3.319  -3.978  0.00  0.00    -0.491 OA
ATOM     15  C   LIG    1       -4.420   4.071  -3.479  0.00  0.00    +0.277 C 
ENDBRANCH   7  14
TORSDOF 2
