REMARK  Name = ZINC45258031
REMARK                            x       y       z     vdW  Elec       q    Type
REMARK                         _______ _______ _______ _____ _____    ______ ____
ROOT
ATOM      1  N   LIG    1        0.991  -2.653  -1.456  0.00  0.00    -0.186 NA
ATOM      2  H   LIG    1        1.153  -1.647  -1.492  0.00  0.00    +0.148 HD
ENDROOT
BRANCH   1   3
ATOM      3  C   LIG    1        2.209  -3.269  -1.752  0.00  0.00    +0.091 C 
ATOM      4  C   LIG    1        2.847  -3.007  -2.950  0.00  0.00    +0.026 C 
ATOM      5  C   LIG    1        4.071  -3.652  -3.201  0.00  0.00    +0.008 C 
ATOM      6  C   LIG    1        4.778  -3.436  -4.396  0.00  0.00    +0.005 C 
ATOM      7  C   LIG    1        5.961  -4.077  -4.604  0.00  0.00    +0.000 C 
ATOM      8  C   LIG    1        6.480  -4.947  -3.647  0.00  0.00    +0.002 C 
ATOM      9  C   LIG    1        5.822  -5.179  -2.478  0.00  0.00    +0.019 C 
ATOM     10  C   LIG    1        4.598  -4.535  -2.226  0.00  0.00    +0.057 C 
ATOM     11  N   LIG    1        3.933  -4.746  -1.086  0.00  0.00    -0.311 NA
ATOM     12  H   LIG    1        4.304  -5.354  -0.427  0.00  0.00    +0.122 HD
ATOM     13  C   LIG    1        2.794  -4.150  -0.835  0.00  0.00    +0.101 C 
ENDBRANCH   1   3
BRANCH   1  14
ATOM     14  S   LIG    1        0.234  -2.965  -0.017  0.00  0.00    +0.062 S 
ATOM     15  O   LIG    1       -0.150  -4.332  -0.047  0.00  0.00    -0.153 OA
ATOM     16  O   LIG    1        1.066  -2.430   1.003  0.00  0.00    -0.153 OA
BRANCH  14  23
ATOM     17  C   LIG    1       -1.200  -0.637   0.010  0.00  0.00    +0.146 A 
ATOM     18  C   LIG    1       -2.375   0.101   0.019  0.00  0.00    +0.049 A 
ATOM     19  C   LIG    1       -3.596  -0.544   0.028  0.00  0.00    +0.019 A 
ATOM     20  C   LIG    1       -3.648  -1.927   0.027  0.00  0.00    +0.020 A 
ATOM     21 BR   LIG    1       -5.321  -2.808   0.038  0.00  0.00    -0.050 Br
ATOM     22  C   LIG    1       -2.479  -2.666   0.018  0.00  0.00    +0.047 A 
ATOM     23  C   LIG    1       -1.255  -2.023   0.003  0.00  0.00    +0.148 A 
BRANCH  17  25
ATOM     24  C   LIG    1       -0.017   1.425   0.010  0.00  0.00    +0.277 C 
ATOM     25  O   LIG    1        0.002  -0.004   0.002  0.00  0.00    -0.493 OA
ENDBRANCH  17  25
ENDBRANCH  14  23
ENDBRANCH   1  14
TORSDOF 4
