REMARK  Name = ZINC19632959
REMARK                            x       y       z     vdW  Elec       q    Type
REMARK                         _______ _______ _______ _____ _____    ______ ____
ROOT
ATOM      1  C   LIG    1        0.002  -0.004   0.002  0.00  0.00    -0.005 C 
ENDROOT
BRANCH   1   2
ATOM      2  C   LIG    1       -0.019   1.526   0.010  0.00  0.00    +0.011 C 
BRANCH   2   3
ATOM      3  C   LIG    1        1.417   2.055  -0.000  0.00  0.00    +0.127 C 
BRANCH   3   4
ATOM      4  P   LIG    1        1.392   3.878   0.010  0.00  0.00    +0.328 P 
ATOM      5  O   LIG    1        0.538   4.388  -1.173  0.00  0.00    -0.259 OA
BRANCH   4   6
ATOM      6  O   LIG    1        2.895   4.436  -0.134  0.00  0.00    -0.324 OA
ATOM      7  H   LIG    1        2.958   5.401  -0.136  0.00  0.00    +0.220 HD
ENDBRANCH   4   6
BRANCH   4   8
ATOM      8  O   LIG    1        0.782   4.378   1.338  0.00  0.00    -0.324 OA
ATOM      9  H   LIG    1       -0.124   4.041   1.425  0.00  0.00    +0.220 HD
ENDBRANCH   4   8
ENDBRANCH   3   4
ENDBRANCH   2   3
ENDBRANCH   1   2
BRANCH   1  10
ATOM     10  CA  LIG    1       -1.433  -0.534   0.013  0.00  0.00    +0.036 C 
BRANCH  10  11
ATOM     11  N   LIG    1       -2.083  -0.161   1.276  0.00  0.00    +0.387 N 
ATOM     12  H1  LIG    1       -1.571  -0.560   2.049  0.00  0.00    -0.089 HD
ATOM     13  H2  LIG    1       -3.030  -0.510   1.284  0.00  0.00    -0.089 HD
ATOM     14  H3  LIG    1       -2.095   0.844   1.365  0.00  0.00    -0.089 HD
ENDBRANCH  10  11
BRANCH  10  15
ATOM     15  C   LIG    1       -1.416  -2.035  -0.119  0.00  0.00    +0.290 C 
ATOM     16  O   LIG    1       -1.367  -2.734   0.878  0.00  0.00    -0.253 OA
BRANCH  15  17
ATOM     17  OXT LIG    1       -1.451  -2.550  -1.224  0.00  0.00    -0.482 OA
ATOM     18  HXT LIG    1       -1.488  -2.013  -1.990  0.00  0.00    +0.295 HD
ENDBRANCH  15  17
ENDBRANCH  10  15
ENDBRANCH   1  10
TORSDOF 9
