REMARK  Name = ZINC00019965
REMARK                            x       y       z     vdW  Elec       q    Type
REMARK                         _______ _______ _______ _____ _____    ______ ____
ROOT
ATOM      1  C   LIG    1        3.789   1.845  -0.024  0.00  0.00    +0.000 A 
ATOM      2  C   LIG    1        4.540   0.710  -0.037  0.00  0.00    +0.091 A 
ATOM      3  N   LIG    1        3.722  -0.382  -0.036  0.00  0.00    -0.360 N 
ATOM      4  C   LIG    1        2.401   0.012  -0.021  0.00  0.00    +0.050 A 
ATOM      5  C   LIG    1        1.199  -0.690  -0.014  0.00  0.00    +0.064 A 
ATOM      6  C   LIG    1        0.002  -0.004   0.002  0.00  0.00    +0.125 A 
ATOM      7  F   LIG    1       -1.162  -0.690   0.009  0.00  0.00    -0.205 F 
ATOM      8  C   LIG    1       -0.017   1.385   0.010  0.00  0.00    +0.039 A 
ATOM      9  C   LIG    1        1.163   2.096   0.002  0.00  0.00    +0.013 A 
ATOM     10  H   LIG    1        4.026  -1.302  -0.044  0.00  0.00    +0.165 HD
ATOM     11  C   LIG    1        2.379   1.416  -0.013  0.00  0.00    +0.007 A 
ENDROOT
BRANCH   1  13
ATOM     12  C   LIG    1        5.611   3.467  -0.032  0.00  0.00    +0.010 C 
ATOM     13  C   LIG    1        4.288   3.229  -0.020  0.00  0.00    +0.010 C 
BRANCH  12  16
ATOM     14  C   LIG    1        7.903   6.434  -0.037  0.00  0.00    +0.020 A 
ATOM     15  C   LIG    1        7.487   5.115  -0.040  0.00  0.00    +0.011 A 
ATOM     16  C   LIG    1        6.110   4.853  -0.028  0.00  0.00    -0.007 A 
ATOM     17  C   LIG    1        5.219   5.930  -0.019  0.00  0.00    +0.118 A 
ATOM     18  N   LIG    1        5.666   7.168  -0.012  0.00  0.00    -0.263 NA
ATOM     19  C   LIG    1        6.957   7.443  -0.022  0.00  0.00    +0.111 A 
ENDBRANCH  12  16
ENDBRANCH   1  13
TORSDOF 2
