REMARK  Name = ZINC19924797
REMARK                            x       y       z     vdW  Elec       q    Type
REMARK                         _______ _______ _______ _____ _____    ______ ____
ROOT
ATOM      1  N   LIG    1        2.011  -2.523   1.737  0.00  0.00    -0.299 N 
ATOM      2  H   LIG    1        2.226  -1.912   2.460  0.00  0.00    +0.150 HD
ATOM      3  C   LIG    1        2.166  -3.851   1.909  0.00  0.00    +0.302 C 
ATOM      4  N   LIG    1        2.712  -4.324   3.046  0.00  0.00    -0.283 N 
ATOM      5  C   LIG    1        3.039  -3.421   4.160  0.00  0.00    +0.124 C 
ATOM      6  C   LIG    1        4.491  -3.672   4.580  0.00  0.00    +0.104 C 
ATOM      7  N   LIG    1        4.675  -5.101   4.866  0.00  0.00    -0.289 NA
ATOM      8  C   LIG    1        4.450  -5.918   3.665  0.00  0.00    +0.104 C 
ATOM      9  C   LIG    1        2.991  -5.759   3.209  0.00  0.00    +0.124 C 
ATOM     10  O   LIG    1        1.814  -4.621   1.037  0.00  0.00    -0.253 OA
ENDROOT
BRANCH   1  11
ATOM     11  C   LIG    1        1.520  -2.002   0.460  0.00  0.00    +0.106 C 
BRANCH  11  12
ATOM     12  C   LIG    1        1.436  -0.475   0.529  0.00  0.00    +0.018 C 
BRANCH  12  14
ATOM     13  C   LIG    1        0.840   1.595  -0.735  0.00  0.00    +0.004 C 
ATOM     14  C   LIG    1        0.922   0.069  -0.805  0.00  0.00    -0.002 C 
ENDBRANCH  12  14
ENDBRANCH  11  12
ENDBRANCH   1  11
BRANCH   7  15
ATOM     15  C   LIG    1        6.003  -5.358   5.436  0.00  0.00    +0.117 C 
BRANCH  15  16
ATOM     16  C   LIG    1        6.127  -6.819   5.785  0.00  0.00    -0.026 A 
ATOM     17  C   LIG    1        5.073  -7.476   6.392  0.00  0.00    +0.005 A 
ATOM     18  C   LIG    1        5.186  -8.816   6.712  0.00  0.00    +0.000 A 
ATOM     19  C   LIG    1        6.353  -9.500   6.424  0.00  0.00    +0.000 A 
ATOM     20  C   LIG    1        7.406  -8.843   5.816  0.00  0.00    +0.000 A 
ATOM     21  C   LIG    1        7.292  -7.504   5.492  0.00  0.00    +0.005 A 
ENDBRANCH  15  16
BRANCH  15  22
ATOM     22  C   LIG    1        6.185  -4.528   6.681  0.00  0.00    -0.026 A 
ATOM     23  C   LIG    1        5.125  -4.342   7.548  0.00  0.00    +0.005 A 
ATOM     24  C   LIG    1        5.291  -3.580   8.690  0.00  0.00    +0.000 A 
ATOM     25  C   LIG    1        6.518  -3.005   8.964  0.00  0.00    +0.000 A 
ATOM     26  C   LIG    1        7.578  -3.192   8.097  0.00  0.00    +0.000 A 
ATOM     27  C   LIG    1        7.413  -3.957   6.958  0.00  0.00    +0.005 A 
ENDBRANCH  15  22
ENDBRANCH   7  15
TORSDOF 6
