REMARK  Name = ZINC27306749
REMARK                            x       y       z     vdW  Elec       q    Type
REMARK                         _______ _______ _______ _____ _____    ______ ____
ROOT
ATOM      1  C   LIG    1       -0.020   4.163   0.027  0.00  0.00    +0.009 A 
ATOM      2  C   LIG    1        1.171   3.497   0.011  0.00  0.00    +0.014 A 
ATOM      3  C   LIG    1        1.188   2.102   0.002  0.00  0.00    +0.046 A 
ATOM      4  C   LIG    1       -0.017   1.376   0.010  0.00  0.00    +0.058 A 
ATOM      5  N   LIG    1        0.002  -0.004   0.002  0.00  0.00    -0.314 N 
ATOM      6  C   LIG    1        1.140  -0.714  -0.013  0.00  0.00    +0.108 A 
ATOM      7  C   LIG    1        2.381  -0.112  -0.021  0.00  0.00    +0.100 A 
ATOM      8  C   LIG    1       -1.224   2.064   0.031  0.00  0.00    +0.035 A 
ATOM      9  C   LIG    1        2.461   1.357  -0.014  0.00  0.00    +0.202 A 
ATOM     10  O   LIG    1        3.534   1.934  -0.020  0.00  0.00    -0.286 OA
ATOM     11  C   LIG    1       -1.225   3.454   0.034  0.00  0.00    -0.016 A 
ENDROOT
BRANCH   5  12
ATOM     12  C   LIG    1       -1.218  -0.692   0.009  0.00  0.00    +0.065 A 
ATOM     13  C   LIG    1       -1.562  -1.486   1.096  0.00  0.00    +0.031 A 
ATOM     14  C   LIG    1       -2.767  -2.159   1.105  0.00  0.00    +0.047 A 
ATOM     15  C   LIG    1       -3.631  -2.052   0.024  0.00  0.00    +0.118 A 
ATOM     16  C   LIG    1       -3.287  -1.263  -1.064  0.00  0.00    +0.067 A 
ATOM     17  C   LIG    1       -2.084  -0.584  -1.073  0.00  0.00    +0.068 A 
ATOM     18 CL   LIG    1       -1.653   0.402  -2.435  0.00  0.00    -0.081 Cl
BRANCH  15  19
ATOM     19  O   LIG    1       -4.815  -2.720   0.032  0.00  0.00    -0.507 OA
ATOM     20  H   LIG    1       -5.500  -2.635  -0.824  0.00  0.00    +0.292 HD
ENDBRANCH  15  19
ENDBRANCH   5  12
BRANCH  11  21
ATOM     21  C   LIG    1       -2.513   4.190   0.052  0.00  0.00    -0.015 A 
ATOM     22  C   LIG    1       -3.731   3.504   0.054  0.00  0.00    +0.028 A 
ATOM     23  C   LIG    1       -4.906   4.228   0.076  0.00  0.00    +0.111 A 
ATOM     24  N   LIG    1       -4.889   5.547   0.084  0.00  0.00    -0.263 NA
ATOM     25  C   LIG    1       -3.762   6.232   0.077  0.00  0.00    +0.111 A 
ATOM     26  C   LIG    1       -2.542   5.587   0.061  0.00  0.00    +0.028 A 
ENDBRANCH  11  21
BRANCH   7  27
ATOM     27  C   LIG    1        3.606  -0.927  -0.037  0.00  0.00    +0.247 C 
ATOM     28  N   LIG    1        3.521  -2.272  -0.044  0.00  0.00    -0.325 N 
ATOM     29  H   LIG    1        2.536  -2.761  -0.037  0.00  0.00    +0.145 HD
ATOM     30  H   LIG    1        4.437  -2.881  -0.056  0.00  0.00    +0.145 HD
ATOM     31  O   LIG    1        4.696  -0.386  -0.044  0.00  0.00    -0.270 OA
ENDBRANCH   7  27
TORSDOF 4
