REMARK  Name = ZINC43132588
REMARK                            x       y       z     vdW  Elec       q    Type
REMARK                         _______ _______ _______ _____ _____    ______ ____
ROOT
ATOM      1  C   LIG    1       -2.555  -4.144   0.016  0.00  0.00    +0.021 A 
ATOM      2  C   LIG    1       -3.654  -4.936   0.018  0.00  0.00    +0.028 A 
ATOM      3  C   LIG    1       -3.484  -6.377   0.016  0.00  0.00    +0.030 A 
ATOM      4  C   LIG    1       -2.142  -6.814   0.013  0.00  0.00    +0.037 A 
ATOM      5  C   LIG    1       -1.831  -8.176   0.010  0.00  0.00    +0.069 A 
ATOM      6  C   LIG    1       -2.881  -9.098   0.011  0.00  0.00    +0.127 A 
ATOM      7  N   LIG    1       -4.131  -8.677   0.014  0.00  0.00    -0.239 NA
ATOM      8  C   LIG    1       -4.470  -7.403   0.017  0.00  0.00    +0.127 A 
ATOM      9  S   LIG    1       -1.206  -5.310   0.004  0.00  0.00    -0.087 S 
ENDROOT
BRANCH   1  14
ATOM     10  C   LIG    1       -1.200  -0.637   0.010  0.00  0.00    +0.121 A 
ATOM     11  C   LIG    1       -2.375   0.103   0.020  0.00  0.00    +0.045 A 
ATOM     12  C   LIG    1       -3.601  -0.536   0.028  0.00  0.00    +0.004 A 
ATOM     13  C   LIG    1       -3.665  -1.914   0.027  0.00  0.00    +0.009 A 
ATOM     14  C   LIG    1       -2.490  -2.667   0.017  0.00  0.00    -0.008 A 
ATOM     15  C   LIG    1       -1.254  -2.021   0.003  0.00  0.00    +0.054 A 
BRANCH  10  17
ATOM     16  C   LIG    1       -0.017   1.425   0.010  0.00  0.00    +0.277 C 
ATOM     17  O   LIG    1        0.002  -0.004   0.002  0.00  0.00    -0.495 OA
ENDBRANCH  10  17
ENDBRANCH   1  14
BRANCH   5  18
ATOM     18  C   LIG    1       -0.431  -8.629   0.006  0.00  0.00    +0.244 C 
ATOM     19  N   LIG    1       -0.149  -9.947   0.004  0.00  0.00    -0.325 N 
ATOM     20  H   LIG    1        0.774 -10.246   0.002  0.00  0.00    +0.145 HD
ATOM     21  H   LIG    1       -0.869 -10.597   0.005  0.00  0.00    +0.145 HD
ATOM     22  O   LIG    1        0.472  -7.814   0.005  0.00  0.00    -0.270 OA
ENDBRANCH   5  18
BRANCH   8  23
ATOM     23  N   LIG    1       -5.808  -7.057   0.020  0.00  0.00    -0.328 N 
ATOM     24  H   LIG    1       -6.067  -6.122   0.022  0.00  0.00    +0.148 HD
BRANCH  23  25
ATOM     25  C   LIG    1       -6.834  -8.102   0.021  0.00  0.00    +0.055 C 
ATOM     26  C   LIG    1       -7.101  -8.556   1.459  0.00  0.00    +0.018 C 
ATOM     27  C   LIG    1       -8.230  -9.591   1.456  0.00  0.00    -0.017 C 
ATOM     28  C   LIG    1       -9.471  -8.982   0.801  0.00  0.00    -0.082 C 
ATOM     29  N   LIG    1       -9.159  -8.593  -0.580  0.00  0.00    +0.380 N 
ATOM     30  H   LIG    1       -9.992  -8.242  -1.026  0.00  0.00    -0.086 HD
ATOM     31  H   LIG    1       -8.822  -9.398  -1.087  0.00  0.00    -0.086 HD
ATOM     32  C   LIG    1       -8.127  -7.549  -0.583  0.00  0.00    -0.060 C 
ENDBRANCH  23  25
ENDBRANCH   8  23
TORSDOF 5
