REMARK  Name = ZINC43178353
REMARK                            x       y       z     vdW  Elec       q    Type
REMARK                         _______ _______ _______ _____ _____    ______ ____
ROOT
ATOM      1  N   LIG    1       -1.264  -0.136  -3.124  0.00  0.00    -0.316 N 
ATOM      2  C   LIG    1       -0.047   0.263  -2.394  0.00  0.00    +0.105 C 
ATOM      3  C   LIG    1        1.073   0.268  -3.464  0.00  0.00    +0.009 C 
ATOM      4  C   LIG    1        0.316   0.809  -4.705  0.00  0.00    -0.038 C 
ATOM      5  C   LIG    1       -1.089   0.191  -4.547  0.00  0.00    +0.095 C 
ENDROOT
BRANCH   1  13
ATOM      6  C   LIG    1       -1.732  -3.251  -3.025  0.00  0.00    -0.018 A 
ATOM      7  C   LIG    1       -2.414  -4.366  -2.713  0.00  0.00    +0.088 A 
ATOM      8  N   LIG    1       -3.586  -4.033  -2.084  0.00  0.00    -0.345 N 
ATOM      9  C   LIG    1       -3.688  -2.673  -1.974  0.00  0.00    +0.143 A 
ATOM     10  N   LIG    1       -4.600  -1.847  -1.462  0.00  0.00    -0.218 NA
ATOM     11  C   LIG    1       -4.416  -0.545  -1.488  0.00  0.00    +0.225 A 
ATOM     12  N   LIG    1       -3.346   0.015  -2.024  0.00  0.00    -0.220 NA
ATOM     13  C   LIG    1       -2.383  -0.726  -2.565  0.00  0.00    +0.134 A 
ATOM     14  H   LIG    1       -4.245  -4.668  -1.764  0.00  0.00    +0.167 HD
ATOM     15  C   LIG    1       -2.530  -2.121  -2.553  0.00  0.00    +0.062 A 
BRANCH   6  17
ATOM     16  C   LIG    1        0.720  -3.131  -2.681  0.00  0.00    +0.009 C 
ATOM     17  C   LIG    1       -0.399  -3.180  -3.723  0.00  0.00    +0.034 C 
ENDBRANCH   6  17
ENDBRANCH   1  13
BRANCH   4  18
ATOM     18  N   LIG    1        0.950   0.341  -5.945  0.00  0.00    +0.384 N 
ATOM     19  H   LIG    1        1.897   0.685  -5.990  0.00  0.00    -0.089 HD
ATOM     20  H   LIG    1        0.429   0.683  -6.739  0.00  0.00    -0.089 HD
ATOM     21  H   LIG    1        0.958  -0.668  -5.958  0.00  0.00    -0.089 HD
ENDBRANCH   4  18
BRANCH   4  22
ATOM     22  C   LIG    1        0.248   2.337  -4.675  0.00  0.00    +0.093 C 
BRANCH  22  23
ATOM     23  N   LIG    1        1.596   2.889  -4.827  0.00  0.00    -0.313 N 
ATOM     24  H   LIG    1        2.356   2.294  -4.927  0.00  0.00    +0.149 HD
ATOM     25  C   LIG    1        1.781   4.224  -4.830  0.00  0.00    +0.247 C 
ATOM     26  O   LIG    1        0.829   4.971  -4.705  0.00  0.00    -0.270 OA
BRANCH  25  27
ATOM     27  C   LIG    1        3.139   4.781  -4.984  0.00  0.00    +0.072 A 
ATOM     28  C   LIG    1        4.235   3.926  -5.133  0.00  0.00    +0.019 A 
ATOM     29  C   LIG    1        5.500   4.451  -5.276  0.00  0.00    +0.039 A 
ATOM     30  C   LIG    1        5.690   5.825  -5.272  0.00  0.00    +0.126 A 
ATOM     31  F   LIG    1        6.935   6.333  -5.413  0.00  0.00    -0.205 F 
ATOM     32  C   LIG    1        4.610   6.680  -5.125  0.00  0.00    +0.077 A 
ATOM     33  C   LIG    1        3.335   6.166  -4.986  0.00  0.00    +0.138 A 
ATOM     34  F   LIG    1        2.280   7.000  -4.848  0.00  0.00    -0.205 F 
ENDBRANCH  25  27
ENDBRANCH  22  23
ENDBRANCH   4  22
TORSDOF 6
