REMARK  Name = ZINC49019448
REMARK                            x       y       z     vdW  Elec       q    Type
REMARK                         _______ _______ _______ _____ _____    ______ ____
ROOT
ATOM      1  C   LIG    1       -2.012  -2.845  -0.709  0.00  0.00    +0.222 A 
ATOM      2  N   LIG    1       -2.792  -2.309  -1.629  0.00  0.00    -0.194 NA
ATOM      3  C   LIG    1       -3.561  -3.085  -2.406  0.00  0.00    +0.167 A 
ATOM      4  C   LIG    1       -3.517  -4.489  -2.215  0.00  0.00    +0.059 A 
ATOM      5  C   LIG    1       -2.662  -5.008  -1.214  0.00  0.00    +0.136 A 
ATOM      6  C   LIG    1       -4.313  -5.320  -3.016  0.00  0.00    +0.017 A 
ATOM      7  C   LIG    1       -5.111  -4.735  -3.960  0.00  0.00    +0.029 A 
ATOM      8  C   LIG    1       -5.113  -3.341  -4.102  0.00  0.00    +0.073 A 
ATOM      9  N   LIG    1       -4.357  -2.567  -3.341  0.00  0.00    -0.227 NA
ATOM     10  N   LIG    1       -1.937  -4.156  -0.502  0.00  0.00    -0.199 NA
ENDROOT
BRANCH   1  14
ATOM     11  C   LIG    1        0.162   1.493  -0.248  0.00  0.00    +0.039 C 
ATOM     12  C   LIG    1        0.162  -0.037  -0.250  0.00  0.00    +0.133 C 
ATOM     13  C   LIG    1       -1.277  -0.548  -0.115  0.00  0.00    +0.139 C 
ATOM     14  N   LIG    1       -1.236  -2.007   0.069  0.00  0.00    -0.295 N 
ATOM     15  C   LIG    1       -0.344  -2.549   1.107  0.00  0.00    +0.139 C 
ATOM     16  C   LIG    1        1.050  -1.940   0.912  0.00  0.00    +0.133 C 
ATOM     17  C   LIG    1        1.948  -2.333   2.087  0.00  0.00    +0.039 C 
ATOM     18  O   LIG    1        0.938  -0.516   0.851  0.00  0.00    -0.371 OA
ENDBRANCH   1  14
BRANCH   5  19
ATOM     19  N   LIG    1       -2.582  -6.365  -0.987  0.00  0.00    -0.310 N 
ATOM     20  C   LIG    1       -1.601  -7.196  -1.704  0.00  0.00    +0.134 C 
ATOM     21  C   LIG    1       -0.836  -8.036  -0.674  0.00  0.00    +0.178 C 
ATOM     22  O   LIG    1       -1.771  -8.731   0.154  0.00  0.00    -0.377 OA
ATOM     23  C   LIG    1       -2.618  -7.875   0.925  0.00  0.00    +0.178 C 
ATOM     24  C   LIG    1       -3.470  -7.025  -0.018  0.00  0.00    +0.134 C 
ENDBRANCH   5  19
BRANCH   8  25
ATOM     25  C   LIG    1       -5.981  -2.720  -5.129  0.00  0.00    +0.001 A 
ATOM     26  C   LIG    1       -6.790  -3.519  -5.938  0.00  0.00    +0.013 A 
ATOM     27  C   LIG    1       -7.597  -2.938  -6.892  0.00  0.00    +0.046 A 
ATOM     28  C   LIG    1       -7.606  -1.558  -7.049  0.00  0.00    +0.125 A 
ATOM     29  C   LIG    1       -6.803  -0.759  -6.245  0.00  0.00    +0.020 A 
ATOM     30  C   LIG    1       -5.997  -1.334  -5.286  0.00  0.00    +0.019 A 
BRANCH  28  31
ATOM     31  O   LIG    1       -8.402  -0.988  -7.990  0.00  0.00    -0.495 OA
ATOM     32  C   LIG    1       -9.203  -1.868  -8.781  0.00  0.00    +0.277 C 
ENDBRANCH  28  31
BRANCH  29  33
ATOM     33  C   LIG    1       -6.816   0.738  -6.419  0.00  0.00    +0.194 C 
BRANCH  33  34
ATOM     34  O   LIG    1       -5.913   1.334  -5.485  0.00  0.00    -0.390 OA
ATOM     35  H   LIG    1       -5.870   2.298  -5.540  0.00  0.00    +0.210 HD
ENDBRANCH  33  34
ENDBRANCH  29  33
ENDBRANCH   8  25
TORSDOF 6
