REMARK  Name = ZINC18193448
REMARK                            x       y       z     vdW  Elec       q    Type
REMARK                         _______ _______ _______ _____ _____    ______ ____
ROOT
ATOM      1  C   LIG    1        2.321  -7.658  -0.626  0.00  0.00    +0.062 A 
ATOM      2  C   LIG    1        2.974  -7.806  -1.804  0.00  0.00    +0.074 A 
ATOM      3  S   LIG    1        4.404  -8.736  -1.278  0.00  0.00    -0.041 S 
ATOM      4  C   LIG    1        4.027  -8.836   0.360  0.00  0.00    +0.233 A 
ATOM      5  N   LIG    1        2.886  -8.187   0.444  0.00  0.00    -0.213 NA
ENDROOT
BRANCH   4   6
ATOM      6  N   LIG    1        4.748  -9.451   1.376  0.00  0.00    -0.225 N 
ATOM      7  H   LIG    1        4.459  -9.363   2.298  0.00  0.00    +0.267 HD
BRANCH   6   8
ATOM      8  C   LIG    1        5.868 -10.183   1.076  0.00  0.00    +0.347 C 
ATOM      9  N   LIG    1        6.629 -10.668   2.056  0.00  0.00    -0.292 N 
ATOM     10  H   LIG    1        6.391 -10.503   2.981  0.00  0.00    +0.255 HD
ATOM     11  H   LIG    1        7.422 -11.185   1.843  0.00  0.00    +0.255 HD
BRANCH   8  12
ATOM     12  N   LIG    1        6.196 -10.408  -0.195  0.00  0.00    -0.292 N 
ATOM     13  H   LIG    1        6.973 -10.947  -0.407  0.00  0.00    +0.255 HD
ATOM     14  H   LIG    1        5.656 -10.033  -0.909  0.00  0.00    +0.255 HD
ENDBRANCH   8  12
ENDBRANCH   6   8
ENDBRANCH   4   6
BRANCH   1  15
ATOM     15  C   LIG    1        1.012  -6.917  -0.539  0.00  0.00    +0.125 C 
BRANCH  15  16
ATOM     16  S   LIG    1        1.332  -5.159  -0.228  0.00  0.00    -0.151 S 
BRANCH  16  17
ATOM     17  C   LIG    1       -0.323  -4.418  -0.152  0.00  0.00    +0.106 C 
BRANCH  17  18
ATOM     18  C   LIG    1       -0.198  -2.916   0.109  0.00  0.00    +0.206 C 
BRANCH  18  19
ATOM     19  N   LIG    1       -1.534  -2.318   0.170  0.00  0.00    -0.274 N 
ATOM     20  H   LIG    1       -2.320  -2.874   0.051  0.00  0.00    +0.258 HD
BRANCH  19  23
ATOM     21  C   LIG    1       -0.763   1.226   0.719  0.00  0.00    +0.291 C 
ATOM     22  N   LIG    1       -0.618  -0.223   0.558  0.00  0.00    -0.116 NA
ATOM     23  C   LIG    1       -1.673  -0.969   0.397  0.00  0.00    +0.395 C 
BRANCH  23  24
ATOM     24  N   LIG    1       -2.932  -0.406   0.455  0.00  0.00    -0.178 N 
ATOM     25  H   LIG    1       -3.029   0.551   0.577  0.00  0.00    +0.278 HD
BRANCH  24  26
ATOM     26  C   LIG    1       -4.031  -1.190   0.341  0.00  0.00    +0.255 C 
ATOM     27  N   LIG    1       -4.952  -1.848   0.245  0.00  0.00    -0.154 NA
ENDBRANCH  24  26
ENDBRANCH  23  24
ENDBRANCH  19  23
ENDBRANCH  18  19
ENDBRANCH  17  18
ENDBRANCH  16  17
ENDBRANCH  15  16
ENDBRANCH   1  15
TORSDOF 11
