REMARK  Name = ZINC29475774
REMARK                            x       y       z     vdW  Elec       q    Type
REMARK                         _______ _______ _______ _____ _____    ______ ____
ROOT
ATOM      1  C   LIG    1       -1.769   5.660  -4.038  0.00  0.00    +0.014 C 
ATOM      2  C   LIG    1       -0.347   5.711  -3.475  0.00  0.00    +0.001 C 
ATOM      3  C   LIG    1        0.501   4.625  -4.113  0.00  0.00    +0.022 C 
ATOM      4  C   LIG    1       -0.265   3.301  -3.962  0.00  0.00    +0.046 C 
ATOM      5  C   LIG    1       -0.683   3.082  -2.521  0.00  0.00    -0.055 C 
ATOM      6  C   LIG    1       -0.543   1.856  -2.018  0.00  0.00    -0.044 C 
ATOM      7  C   LIG    1        0.072   0.753  -2.847  0.00  0.00    +0.043 C 
ATOM      8  C   LIG    1        1.011  -0.067  -1.957  0.00  0.00    +0.083 C 
ATOM      9  C   LIG    1        0.297  -0.472  -0.696  0.00  0.00    +0.157 C 
ATOM     10  C   LIG    1       -0.614   0.393  -0.065  0.00  0.00    +0.050 C 
ATOM     11  O   LIG    1        0.512  -1.566  -0.213  0.00  0.00    -0.293 OA
ATOM     12  C   LIG    1       -0.998   1.540  -0.665  0.00  0.00    -0.041 C 
ATOM     13  C   LIG    1       -1.907   2.526   0.026  0.00  0.00    +0.036 C 
ATOM     14  C   LIG    1       -1.357   3.928  -0.235  0.00  0.00    +0.013 C 
ATOM     15  C   LIG    1       -1.262   4.222  -1.722  0.00  0.00    +0.020 C 
ATOM     16  C   LIG    1        0.205   7.130  -3.585  0.00  0.00    +0.072 C 
ATOM     17  C   LIG    1       -0.208   7.837  -2.271  0.00  0.00    +0.035 C 
ATOM     18  C   LIG    1       -0.924   6.766  -1.404  0.00  0.00    +0.007 C 
ATOM     19  C   LIG    1       -0.373   5.437  -1.948  0.00  0.00    +0.005 C 
ENDROOT
BRANCH   4  20
ATOM     20  C   LIG    1       -1.492   3.335  -4.835  0.00  0.00    -0.040 A 
ATOM     21  C   LIG    1       -2.697   2.861  -4.350  0.00  0.00    +0.006 A 
ATOM     22  C   LIG    1       -3.825   2.896  -5.146  0.00  0.00    +0.023 A 
ATOM     23  C   LIG    1       -3.746   3.398  -6.439  0.00  0.00    +0.029 A 
ATOM     24  C   LIG    1       -2.533   3.867  -6.925  0.00  0.00    +0.023 A 
ATOM     25  C   LIG    1       -1.409   3.834  -6.122  0.00  0.00    +0.006 A 
BRANCH  23  26
ATOM     26  N   LIG    1       -4.884   3.430  -7.248  0.00  0.00    -0.336 N 
ATOM     27  C   LIG    1       -6.187   3.051  -6.696  0.00  0.00    +0.129 C 
ATOM     28  C   LIG    1       -4.775   3.843  -8.650  0.00  0.00    +0.129 C 
ENDBRANCH  23  26
ENDBRANCH   4  20
BRANCH  16  29
ATOM     29  O   LIG    1        1.629   7.099  -3.703  0.00  0.00    -0.388 OA
ATOM     30  H   LIG    1        2.194   8.039  -3.792  0.00  0.00    +0.210 HD
ENDBRANCH  16  29
BRANCH  16  31
ATOM     31  C   LIG    1       -0.412   7.847  -4.787  0.00  0.00    +0.037 C 
BRANCH  31  32
ATOM     32  C   LIG    1        0.153   9.266  -4.880  0.00  0.00    +0.031 C 
BRANCH  32  33
ATOM     33  C   LIG    1       -0.464   9.983  -6.083  0.00  0.00    +0.156 C 
BRANCH  33  34
ATOM     34  O   LIG    1        0.063  11.308  -6.170  0.00  0.00    -0.395 OA
ATOM     35  H   LIG    1       -0.266  11.979  -6.977  0.00  0.00    +0.209 HD
ENDBRANCH  33  34
ENDBRANCH  32  33
ENDBRANCH  31  32
ENDBRANCH  16  31
TORSDOF 7
