REMARK  Name = ZINC31962397
REMARK                            x       y       z     vdW  Elec       q    Type
REMARK                         _______ _______ _______ _____ _____    ______ ____
ROOT
ATOM      1  C   LIG    1       -2.342   1.769   1.461  0.00  0.00    +0.024 C 
ENDROOT
BRANCH   1   2
ATOM      2  C   LIG    1       -3.058   2.263   2.720  0.00  0.00    +0.127 C 
BRANCH   2   3
ATOM      3  P   LIG    1       -4.809   1.757   2.661  0.00  0.00    +0.328 P 
ATOM      4  O   LIG    1       -4.893   0.292   2.470  0.00  0.00    -0.259 OA
BRANCH   3   5
ATOM      5  O   LIG    1       -5.541   2.501   1.435  0.00  0.00    -0.324 OA
ATOM      6  H   LIG    1       -6.608   2.319   1.240  0.00  0.00    +0.220 HD
ENDBRANCH   3   5
BRANCH   3   7
ATOM      7  O   LIG    1       -5.531   2.161   4.042  0.00  0.00    -0.324 OA
ATOM      8  H   LIG    1       -5.090   1.713   4.781  0.00  0.00    +0.220 HD
ENDBRANCH   3   7
ENDBRANCH   2   3
ENDBRANCH   1   2
BRANCH   1   9
ATOM      9  C   LIG    1       -0.873   2.194   1.511  0.00  0.00    +0.127 C 
BRANCH   9  10
ATOM     10  P   LIG    1       -0.020   1.606   0.011  0.00  0.00    +0.328 P 
ATOM     11  O   LIG    1       -0.736   2.096  -1.188  0.00  0.00    -0.259 OA
BRANCH  10  12
ATOM     12  O   LIG    1        1.491   2.163  -0.001  0.00  0.00    -0.324 OA
ATOM     13  H   LIG    1        2.164   1.911  -0.834  0.00  0.00    +0.220 HD
ENDBRANCH  10  12
BRANCH  10  14
ATOM     14  O   LIG    1        0.002  -0.004   0.002  0.00  0.00    -0.324 OA
ATOM     15  H   LIG    1       -0.908  -0.340   0.009  0.00  0.00    +0.220 HD
ENDBRANCH  10  14
ENDBRANCH   9  10
ENDBRANCH   1   9
TORSDOF 8
