REMARK  Name = ZINC13817997
REMARK                            x       y       z     vdW  Elec       q    Type
REMARK                         _______ _______ _______ _____ _____    ______ ____
ROOT
ATOM      1  C   LIG    1       -0.017   1.389   0.010  0.00  0.00    +0.015 C 
ATOM      2  C   LIG    1        1.158   2.086   0.002  0.00  0.00    +0.006 C 
ATOM      3  C   LIG    1        2.362   1.358  -0.014  0.00  0.00    +0.008 C 
ATOM      4  C   LIG    1        3.609   2.007  -0.019  0.00  0.00    +0.006 C 
ATOM      5  C   LIG    1        4.753   1.280  -0.049  0.00  0.00    +0.010 C 
ATOM      6  C   LIG    1        4.729  -0.131  -0.078  0.00  0.00    +0.041 C 
ATOM      7  C   LIG    1        3.514  -0.796  -0.042  0.00  0.00    +0.101 C 
ATOM      8  N   LIG    1        3.431  -2.190   0.003  0.00  0.00    -0.185 NA
ATOM      9  H   LIG    1        2.533  -2.454  -0.403  0.00  0.00    +0.148 HD
ATOM     10  S   LIG    1        4.607  -3.067  -0.784  0.00  0.00    +0.059 S 
ATOM     11  C   LIG    1        6.107  -2.197  -0.438  0.00  0.00    +0.109 A 
ATOM     12  C   LIG    1        7.319  -2.846  -0.472  0.00  0.00    +0.030 A 
ATOM     13  C   LIG    1        8.482  -2.143  -0.205  0.00  0.00    +0.022 A 
ATOM     14  C   LIG    1        8.422  -0.792   0.093  0.00  0.00    +0.041 A 
ATOM     15 CL   LIG    1        9.885   0.084   0.420  0.00  0.00    -0.084 Cl
ATOM     16  C   LIG    1        7.207  -0.138   0.132  0.00  0.00    +0.026 A 
ATOM     17  O   LIG    1        4.694  -4.326  -0.131  0.00  0.00    -0.153 OA
ATOM     18  O   LIG    1        4.362  -2.937  -2.177  0.00  0.00    -0.153 OA
ATOM     19  C   LIG    1        6.029  -0.840  -0.132  0.00  0.00    -0.015 A 
ATOM     20  C   LIG    1        2.309  -0.056  -0.022  0.00  0.00    +0.076 C 
ATOM     21  N   LIG    1        1.127  -0.678  -0.013  0.00  0.00    -0.311 NA
ATOM     22  H   LIG    1        1.100  -1.648  -0.017  0.00  0.00    +0.122 HD
ATOM     23  C   LIG    1        0.002  -0.004   0.002  0.00  0.00    +0.081 C 
ENDROOT
TORSDOF 0
