REMARK  Name = ZINC26476322
REMARK                            x       y       z     vdW  Elec       q    Type
REMARK                         _______ _______ _______ _____ _____    ______ ____
ROOT
ATOM      1  C   LIG    1       -0.018   1.503   0.010  0.00  0.00    +0.048 C 
ATOM      2  C   LIG    1        0.002  -0.004   0.002  0.00  0.00    +0.002 A 
ATOM      3  C   LIG    1       -0.006  -0.750  -1.259  0.00  0.00    +0.023 A 
ATOM      4  C   LIG    1       -0.020  -0.083  -2.489  0.00  0.00    +0.015 A 
ATOM      5  C   LIG    1       -0.021  -0.801  -3.650  0.00  0.00    +0.046 A 
ATOM      6  C   LIG    1       -0.002  -2.194  -3.618  0.00  0.00    +0.120 A 
ATOM      7  C   LIG    1        0.018  -2.870  -2.409  0.00  0.00    +0.092 A 
ATOM      8  C   LIG    1        0.019  -2.156  -1.220  0.00  0.00    +0.143 A 
ATOM      9  O   LIG    1        0.039  -2.796  -0.031  0.00  0.00    -0.420 OA
ATOM     10  C   LIG    1        0.042  -2.120   1.129  0.00  0.00    +0.373 A 
ATOM     11  O   LIG    1        0.060  -2.741   2.177  0.00  0.00    -0.242 OA
ATOM     12  C   LIG    1        0.023  -0.708   1.164  0.00  0.00    +0.211 A 
ATOM     13  F   LIG    1        0.025  -0.060   2.350  0.00  0.00    -0.198 F 
ENDROOT
BRANCH   6  14
ATOM     14  O   LIG    1       -0.004  -2.895  -4.781  0.00  0.00    -0.507 OA
ATOM     15  H   LIG    1        0.011  -3.994  -4.761  0.00  0.00    +0.292 HD
ENDBRANCH   6  14
TORSDOF 1
