REMARK  Name = ZINC38795962
REMARK                            x       y       z     vdW  Elec       q    Type
REMARK                         _______ _______ _______ _____ _____    ______ ____
ROOT
ATOM      1  C   LIG    1        0.125   1.481   0.367  0.00  0.00    +0.061 C 
ATOM      2  C   LIG    1        0.072  -0.013   0.176  0.00  0.00    +0.016 C 
ATOM      3  C   LIG    1       -1.119  -0.636   0.140  0.00  0.00    +0.065 C 
ATOM      4  C   LIG    1       -1.219  -2.122  -0.057  0.00  0.00    +0.096 C 
ATOM      5  C   LIG    1        0.106  -2.783   0.195  0.00  0.00    +0.065 C 
ATOM      6  C   LIG    1        1.248  -2.074   0.230  0.00  0.00    +0.016 C 
ATOM      7  C   LIG    1        2.556  -2.780   0.477  0.00  0.00    +0.061 C 
ATOM      8  N   LIG    1        1.236  -0.718   0.037  0.00  0.00    -0.321 N 
ATOM      9  H   LIG    1        2.056  -0.255  -0.195  0.00  0.00    +0.152 HD
ENDROOT
BRANCH   4  10
ATOM     10  C   LIG    1       -1.655  -2.408  -1.471  0.00  0.00    -0.033 A 
ATOM     11  C   LIG    1       -0.877  -1.984  -2.532  0.00  0.00    +0.005 A 
ATOM     12  C   LIG    1       -1.276  -2.245  -3.829  0.00  0.00    +0.003 A 
ATOM     13  C   LIG    1       -2.453  -2.932  -4.066  0.00  0.00    +0.032 A 
ATOM     14  C   LIG    1       -3.230  -3.357  -3.004  0.00  0.00    +0.122 A 
ATOM     15  C   LIG    1       -2.828  -3.098  -1.707  0.00  0.00    +0.037 A 
BRANCH  14  16
ATOM     16  N   LIG    1       -4.490  -4.091  -3.257  0.00  0.00    +0.006 N 
ATOM     17  O   LIG    1       -4.839  -4.319  -4.392  0.00  0.00    -0.130 OA
BRANCH  16  18
ATOM     18  O   LIG    1       -5.170  -4.462  -2.329  0.00  0.00    -0.396 OA
ATOM     19  H   LIG    1       -4.899  -4.286  -1.450  0.00  0.00    +0.329 HD
ENDBRANCH  16  18
ENDBRANCH  14  16
ENDBRANCH   4  10
BRANCH   3  20
ATOM     20  C   LIG    1       -2.302   0.123   0.289  0.00  0.00    +0.337 C 
ATOM     21  O   LIG    1       -2.235   1.328   0.450  0.00  0.00    -0.245 OA
BRANCH  20  22
ATOM     22  O   LIG    1       -3.505  -0.487   0.255  0.00  0.00    -0.465 OA
ATOM     23  C   LIG    1       -4.658   0.342   0.413  0.00  0.00    +0.280 C 
ENDBRANCH  20  22
ENDBRANCH   3  20
BRANCH   5  24
ATOM     24  C   LIG    1        0.154  -4.182   0.401  0.00  0.00    +0.338 C 
ATOM     25  O   LIG    1       -0.229  -4.655   1.454  0.00  0.00    -0.245 OA
BRANCH  24  26
ATOM     26  O   LIG    1        0.625  -4.991  -0.571  0.00  0.00    -0.456 OA
BRANCH  26  27
ATOM     27  C   LIG    1        0.645  -6.393  -0.295  0.00  0.00    +0.106 C 
ATOM     28  C   LIG    1        1.527  -6.660   0.925  0.00  0.00    +0.055 C 
ATOM     29  C   LIG    1        1.206  -7.143  -1.505  0.00  0.00    +0.055 C 
ATOM     30  C   LIG    1       -0.779  -6.877  -0.011  0.00  0.00    +0.055 C 
ENDBRANCH  26  27
ENDBRANCH  24  26
ENDBRANCH   5  24
TORSDOF 8
