REMARK  Name = ZINC14957103
REMARK                            x       y       z     vdW  Elec       q    Type
REMARK                         _______ _______ _______ _____ _____    ______ ____
ROOT
ATOM      1  C   LIG    1        0.972  11.668   0.622  0.00  0.00    +0.047 C 
ATOM      2  C   LIG    1        1.002  10.168   0.482  0.00  0.00    -0.008 A 
ATOM      3  C   LIG    1       -0.182   9.461   0.386  0.00  0.00    +0.008 A 
ATOM      4  C   LIG    1       -0.163   8.088   0.252  0.00  0.00    +0.013 A 
ATOM      5  C   LIG    1        1.056   7.407   0.225  0.00  0.00    +0.041 A 
ATOM      6  C   LIG    1        2.251   8.122   0.322  0.00  0.00    +0.059 A 
ATOM      7  C   LIG    1        2.219   9.501   0.450  0.00  0.00    +0.134 A 
ENDROOT
BRANCH   5   8
ATOM      8  C   LIG    1        1.081   5.936   0.088  0.00  0.00    +0.248 C 
ATOM      9  N   LIG    1       -0.074   5.248  -0.005  0.00  0.00    -0.281 N 
ATOM     10  H   LIG    1       -0.917   5.723  -0.070  0.00  0.00    +0.155 HD
ATOM     11  O   LIG    1        2.144   5.346   0.059  0.00  0.00    -0.270 OA
BRANCH   9  12
ATOM     12  C   LIG    1       -0.057   3.849  -0.010  0.00  0.00    +0.034 A 
ATOM     13  C   LIG    1       -1.083   3.143  -0.624  0.00  0.00    +0.023 A 
ATOM     14  C   LIG    1       -1.063   1.762  -0.626  0.00  0.00    +0.002 A 
ATOM     15  C   LIG    1       -0.023   1.083  -0.018  0.00  0.00    +0.012 A 
ATOM     16  C   LIG    1        0.997   1.783   0.599  0.00  0.00    +0.057 A 
ATOM     17  C   LIG    1        0.986   3.164   0.600  0.00  0.00    +0.035 A 
BRANCH  16  18
ATOM     18  C   LIG    1        2.125   1.039   1.266  0.00  0.00    +0.417 C 
ATOM     19  F   LIG    1        2.165   1.372   2.624  0.00  0.00    -0.166 F 
ATOM     20  F   LIG    1        3.337   1.392   0.664  0.00  0.00    -0.166 F 
ATOM     21  F   LIG    1        1.920  -0.338   1.130  0.00  0.00    -0.166 F 
ENDBRANCH  16  18
ENDBRANCH   9  12
ENDBRANCH   5   8
BRANCH   7  22
ATOM     22  O   LIG    1        3.380  10.200   0.544  0.00  0.00    -0.437 OA
BRANCH  22  23
ATOM     23  C   LIG    1        3.801  10.886  -0.547  0.00  0.00    +0.230 A 
ATOM     24  C   LIG    1        4.934  11.705  -0.460  0.00  0.00    +0.062 A 
ATOM     25  C   LIG    1        5.350  12.403  -1.595  0.00  0.00    +0.017 A 
ATOM     26  C   LIG    1        4.621  12.253  -2.764  0.00  0.00    +0.021 A 
ATOM     27  C   LIG    1        3.513  11.426  -2.772  0.00  0.00    +0.114 A 
ATOM     28  N   LIG    1        3.142  10.773  -1.687  0.00  0.00    -0.220 NA
BRANCH  24  29
ATOM     29  C   LIG    1        5.678  11.830   0.816  0.00  0.00    +0.081 A 
ATOM     30  C   LIG    1        6.809  12.648   0.901  0.00  0.00    +0.048 A 
ATOM     31  C   LIG    1        7.470  12.732   2.112  0.00  0.00    +0.116 A 
ATOM     32  N   LIG    1        7.017  12.042   3.148  0.00  0.00    -0.223 NA
ATOM     33  C   LIG    1        5.943  11.274   3.038  0.00  0.00    +0.215 A 
ATOM     34  N   LIG    1        5.276  11.169   1.900  0.00  0.00    -0.214 NA
BRANCH  33  35
ATOM     35  N   LIG    1        5.503  10.569   4.145  0.00  0.00    -0.317 N 
ATOM     36  H   LIG    1        4.717  10.004   4.079  0.00  0.00    +0.149 HD
ATOM     37  C   LIG    1        6.222  10.678   5.417  0.00  0.00    +0.128 C 
ENDBRANCH  33  35
ENDBRANCH  24  29
ENDBRANCH  22  23
ENDBRANCH   7  22
TORSDOF 7
