REMARK  Name = ZINC28476631
REMARK                            x       y       z     vdW  Elec       q    Type
REMARK                         _______ _______ _______ _____ _____    ______ ____
ROOT
ATOM      1  C   LIG    1       -3.175   2.333  -2.936  0.00  0.00    +0.008 C 
ATOM      2  C   LIG    1       -2.916   2.912  -1.544  0.00  0.00    +0.004 C 
ATOM      3  C   LIG    1       -2.032   4.155  -1.665  0.00  0.00    +0.127 C 
ATOM      4  C   LIG    1       -1.615   4.596  -0.290  0.00  0.00    +0.237 C 
ATOM      5  N   LIG    1       -1.599   3.820   0.720  0.00  0.00    -0.277 N 
ATOM      6  H   LIG    1       -1.282   4.202   1.702  0.00  0.00    +0.304 HD
ATOM      7  C   LIG    1       -1.968   2.415   0.736  0.00  0.00    +0.176 C 
ATOM      8  C   LIG    1       -0.761   1.596   1.252  0.00  0.00    +0.049 C 
ATOM      9  C   LIG    1       -0.013   1.086   0.008  0.00  0.00    +0.005 C 
ATOM     10  C   LIG    1       -0.787   1.611  -1.220  0.00  0.00    +0.008 C 
ATOM     11  C   LIG    1       -2.211   1.871  -0.684  0.00  0.00    +0.037 C 
ENDROOT
BRANCH   4  12
ATOM     12  N   LIG    1       -1.232   5.900  -0.114  0.00  0.00    -0.254 N 
ATOM     13  H   LIG    1       -1.235   6.594  -0.967  0.00  0.00    +0.288 HD
ATOM     14  H   LIG    1       -0.921   6.252   0.881  0.00  0.00    +0.288 HD
ENDBRANCH   4  12
TORSDOF 1
