REMARK  Name = ZINC29412147
REMARK                            x       y       z     vdW  Elec       q    Type
REMARK                         _______ _______ _______ _____ _____    ______ ____
ROOT
ATOM      1  N   LIG    1        0.002  -0.004   0.002  0.00  0.00    -0.209 N 
ATOM      2  C   LIG    1       -0.016   1.344   0.009  0.00  0.00    +0.320 C 
ATOM      3  N   LIG    1        1.331   1.362  -0.003  0.00  0.00    -0.209 N 
ATOM      4  O   LIG    1       -0.886   2.190   0.018  0.00  0.00    -0.251 OA
ATOM      5  C   LIG    1        1.350   0.014  -0.011  0.00  0.00    +0.320 C 
ATOM      6  O   LIG    1        2.220  -0.833  -0.023  0.00  0.00    -0.251 OA
ENDROOT
BRANCH   1   8
ATOM      7  C   LIG    1       -1.389  -1.412  -1.435  0.00  0.00    +0.025 C 
ATOM      8  C   LIG    1       -1.020  -1.054   0.006  0.00  0.00    +0.116 C 
ENDBRANCH   1   8
BRANCH   3   9
ATOM      9  C   LIG    1        2.353   2.412  -0.008  0.00  0.00    +0.116 C 
ATOM     10  C   LIG    1        2.723   2.770   1.433  0.00  0.00    +0.025 C 
ENDBRANCH   3   9
TORSDOF 2
