REMARK  Name = ZINC20347569
REMARK                            x       y       z     vdW  Elec       q    Type
REMARK                         _______ _______ _______ _____ _____    ______ ____
ROOT
ATOM      1  C   LIG    1       -5.449   3.082   3.572  0.00  0.00    +0.062 C 
ATOM      2  C   LIG    1       -6.725   3.916   3.460  0.00  0.00    +0.109 C 
ATOM      3  C   LIG    1       -7.642   3.387   2.392  0.00  0.00    +0.218 C 
ATOM      4  N   LIG    1       -7.146   2.921   1.221  0.00  0.00    -0.280 N 
ATOM      5  H   LIG    1       -7.829   2.681   0.392  0.00  0.00    +0.155 HD
ATOM      6  C   LIG    1       -5.781   2.767   1.124  0.00  0.00    +0.078 A 
ATOM      7  S   LIG    1       -4.768   2.447  -0.291  0.00  0.00    -0.071 S 
ATOM      8  C   LIG    1       -3.194   2.436   0.532  0.00  0.00    +0.044 A 
ATOM      9  C   LIG    1       -1.901   2.244   0.118  0.00  0.00    -0.014 A 
ATOM     10  C   LIG    1       -1.581   1.978  -1.330  0.00  0.00    +0.046 C 
ATOM     11  C   LIG    1       -0.883   2.308   1.083  0.00  0.00    +0.095 A 
ATOM     12  C   LIG    1       -1.252   2.561   2.420  0.00  0.00    +0.135 A 
ATOM     13  N   LIG    1       -2.504   2.732   2.772  0.00  0.00    -0.230 NA
ATOM     14  C   LIG    1       -3.527   2.678   1.886  0.00  0.00    +0.086 A 
ATOM     15  O   LIG    1       -8.839   3.378   2.582  0.00  0.00    -0.275 OA
ATOM     16  C   LIG    1       -4.902   2.840   2.167  0.00  0.00    +0.015 A 
ENDROOT
BRANCH   1  23
ATOM     17  C   LIG    1       -4.320   2.454   6.156  0.00  0.00    +0.044 C 
ATOM     18  C   LIG    1       -5.219   1.461   5.465  0.00  0.00    -0.047 A 
ATOM     19  C   LIG    1       -5.503   0.250   6.068  0.00  0.00    +0.003 A 
ATOM     20  C   LIG    1       -6.327  -0.661   5.434  0.00  0.00    +0.000 A 
ATOM     21  C   LIG    1       -6.868  -0.360   4.197  0.00  0.00    +0.000 A 
ATOM     22  C   LIG    1       -6.588   0.853   3.597  0.00  0.00    +0.004 A 
ATOM     23  C   LIG    1       -5.759   1.761   4.229  0.00  0.00    -0.036 A 
ENDBRANCH   1  23
BRANCH  12  24
ATOM     24  N   LIG    1       -0.264   2.632   3.389  0.00  0.00    -0.342 N 
ATOM     25  H   LIG    1        0.791   2.491   3.111  0.00  0.00    +0.144 HD
ATOM     26  H   LIG    1       -0.534   2.829   4.437  0.00  0.00    +0.144 HD
ENDBRANCH  12  24
BRANCH  11  27
ATOM     27  C   LIG    1        0.489   2.121   0.720  0.00  0.00    +0.103 C 
ATOM     28  N   LIG    1        1.578   1.973   0.432  0.00  0.00    -0.191 NA
ENDBRANCH  11  27
TORSDOF 3
