REMARK  Name = ZINC14951176
REMARK                            x       y       z     vdW  Elec       q    Type
REMARK                         _______ _______ _______ _____ _____    ______ ____
ROOT
ATOM      1  C   LIG    1       -1.268  -0.760  -0.029  0.00  0.00    +0.068 A 
ATOM      2  C   LIG    1       -1.396  -2.116  -0.086  0.00  0.00    +0.045 A 
ATOM      3  N   LIG    1       -2.746  -2.407   0.002  0.00  0.00    -0.342 N 
ATOM      4  H   LIG    1       -3.138  -3.294  -0.013  0.00  0.00    +0.167 HD
ATOM      5  C   LIG    1       -3.420  -1.247   0.110  0.00  0.00    +0.117 A 
ATOM      6  C   LIG    1       -4.873  -1.113   0.227  0.00  0.00    +0.016 C 
ATOM      7  C   LIG    1       -5.685  -2.258   0.238  0.00  0.00    +0.015 C 
ATOM      8  C   LIG    1       -7.037  -2.133   0.346  0.00  0.00    +0.051 C 
ATOM      9  C   LIG    1       -7.618  -0.860   0.448  0.00  0.00    +0.179 C 
ATOM     10  C   LIG    1       -6.806   0.285   0.437  0.00  0.00    +0.051 C 
ATOM     11  O   LIG    1       -8.942  -0.738   0.554  0.00  0.00    -0.288 OA
ATOM     12  C   LIG    1       -5.454   0.160   0.334  0.00  0.00    +0.015 C 
ATOM     13  N   LIG    1       -2.536  -0.230   0.099  0.00  0.00    -0.339 N 
ATOM     14  H   LIG    1       -2.754   0.713   0.167  0.00  0.00    +0.167 HD
ENDROOT
BRANCH   1  21
ATOM     15  C   LIG    1        0.240   1.026   0.830  0.00  0.00    +0.013 A 
ATOM     16  C   LIG    1        1.422   1.733   0.771  0.00  0.00    +0.039 A 
ATOM     17  C   LIG    1        2.367   1.430  -0.197  0.00  0.00    +0.123 A 
ATOM     18  F   LIG    1        3.523   2.127  -0.250  0.00  0.00    -0.205 F 
ATOM     19  C   LIG    1        2.130   0.415  -1.110  0.00  0.00    +0.039 A 
ATOM     20  C   LIG    1        0.952  -0.299  -1.061  0.00  0.00    +0.013 A 
ATOM     21  C   LIG    1       -0.004   0.002  -0.087  0.00  0.00    +0.000 A 
ENDBRANCH   1  21
BRANCH   2  22
ATOM     22  C   LIG    1       -0.298  -3.093  -0.218  0.00  0.00    +0.040 C 
ATOM     23  C   LIG    1        0.846  -3.005   0.586  0.00  0.00    +0.025 C 
ATOM     24  C   LIG    1        1.847  -3.939   0.429  0.00  0.00    +0.081 C 
ATOM     25  N   LIG    1        1.738  -4.906  -0.463  0.00  0.00    -0.316 NA
ATOM     26  H   LIG    1        2.460  -5.548  -0.550  0.00  0.00    +0.122 HD
ATOM     27  C   LIG    1        0.679  -5.026  -1.241  0.00  0.00    +0.081 C 
ATOM     28  C   LIG    1       -0.372  -4.139  -1.148  0.00  0.00    +0.025 C 
ENDBRANCH   2  22
TORSDOF 2
