REMARK  Name = ZINC00058129
REMARK                            x       y       z     vdW  Elec       q    Type
REMARK                         _______ _______ _______ _____ _____    ______ ____
ROOT
ATOM      1  C   LIG    1        0.019  -2.062  -1.177  0.00  0.00    +0.227 A 
ATOM      2  N   LIG    1        0.044  -2.708  -0.018  0.00  0.00    -0.177 NA
ATOM      3  C   LIG    1        0.057  -4.035   0.027  0.00  0.00    +0.243 A 
ATOM      4  C   LIG    1        0.056  -4.745  -1.174  0.00  0.00    +0.147 A 
ATOM      5  N   LIG    1        0.070  -6.081  -1.522  0.00  0.00    -0.339 N 
ATOM      6  C   LIG    1        0.058  -6.141  -2.872  0.00  0.00    +0.199 A 
ATOM      7  N   LIG    1        0.037  -4.938  -3.375  0.00  0.00    -0.216 NA
ATOM      8  H   LIG    1        0.086  -6.835  -0.912  0.00  0.00    +0.167 HD
ATOM      9  C   LIG    1        0.034  -4.028  -2.382  0.00  0.00    +0.186 A 
ATOM     10  N   LIG    1        0.017  -2.693  -2.337  0.00  0.00    -0.193 NA
ENDROOT
BRANCH   1  13
ATOM     11  C   LIG    1       -0.018   1.503   0.010  0.00  0.00    +0.109 C 
ATOM     12  C   LIG    1        0.002  -0.004   0.002  0.00  0.00    +0.216 C 
ATOM     13  N   LIG    1        0.000  -0.672  -1.169  0.00  0.00    -0.255 N 
ATOM     14  H   LIG    1       -0.015  -0.182  -2.006  0.00  0.00    +0.158 HD
ATOM     15  O   LIG    1        0.020  -0.616   1.049  0.00  0.00    -0.276 OA
ENDBRANCH   1  13
BRANCH   3  16
ATOM     16  O   LIG    1        0.077  -4.687   1.215  0.00  0.00    -0.491 OA
ATOM     17  H   LIG    1        0.086  -5.624   1.235  0.00  0.00    +0.294 HD
ENDBRANCH   3  16
TORSDOF 2
