REMARK  Name = ZINC27647131
REMARK                            x       y       z     vdW  Elec       q    Type
REMARK                         _______ _______ _______ _____ _____    ______ ____
ROOT
ATOM      1  C   LIG    1       -6.269 -10.273  -2.318  0.00  0.00    -0.027 C 
ATOM      2  C   LIG    1       -6.678  -9.053  -2.071  0.00  0.00    -0.027 C 
ENDROOT
BRANCH   1   3
ATOM      3  C   LIG    1       -4.794 -10.568  -2.414  0.00  0.00    +0.053 C 
BRANCH   3   5
ATOM      4  C   LIG    1       -3.807 -12.747  -1.926  0.00  0.00    -0.027 C 
ATOM      5  C   LIG    1       -4.445 -11.694  -1.476  0.00  0.00    -0.027 C 
BRANCH   4   6
ATOM      6  C   LIG    1       -3.267 -12.757  -3.333  0.00  0.00    +0.053 C 
BRANCH   6   8
ATOM      7  C   LIG    1       -1.354 -14.098  -4.041  0.00  0.00    -0.031 C 
ATOM      8  C   LIG    1       -1.803 -13.110  -3.307  0.00  0.00    -0.027 C 
BRANCH   7   9
ATOM      9  C   LIG    1       -2.265 -14.774  -5.033  0.00  0.00    +0.027 C 
BRANCH   9  10
ATOM     10  C   LIG    1       -1.594 -14.797  -6.408  0.00  0.00    +0.004 C 
BRANCH  10  11
ATOM     11  C   LIG    1       -2.519 -15.483  -7.415  0.00  0.00    +0.000 C 
BRANCH  11  13
ATOM     12  C   LIG    1       -2.774 -16.193  -9.797  0.00  0.00    +0.004 C 
ATOM     13  C   LIG    1       -1.849 -15.506  -8.790  0.00  0.00    -0.003 C 
ENDBRANCH  11  13
ENDBRANCH  10  11
ENDBRANCH   9  10
ENDBRANCH   7   9
ENDBRANCH   6   8
ENDBRANCH   4   6
ENDBRANCH   3   5
ENDBRANCH   1   3
BRANCH   2  14
ATOM     14  C   LIG    1       -5.689  -7.917  -2.045  0.00  0.00    +0.053 C 
BRANCH  14  15
ATOM     15  C   LIG    1       -6.165  -6.816  -2.956  0.00  0.00    -0.027 C 
ATOM     16  C   LIG    1       -6.282  -5.593  -2.501  0.00  0.00    -0.031 C 
BRANCH  16  17
ATOM     17  C   LIG    1       -5.787  -5.253  -1.119  0.00  0.00    +0.027 C 
BRANCH  17  18
ATOM     18  C   LIG    1       -4.851  -4.045  -1.195  0.00  0.00    +0.015 C 
BRANCH  18  19
ATOM     19  C   LIG    1       -4.348  -3.700   0.209  0.00  0.00    +0.121 C 
BRANCH  19  20
ATOM     20  C   LIG    1       -3.427  -2.510   0.134  0.00  0.00    +0.307 C 
ATOM     21  O   LIG    1       -3.196  -1.991  -0.933  0.00  0.00    -0.251 OA
BRANCH  20  22
ATOM     22  O   LIG    1       -2.863  -2.027   1.252  0.00  0.00    -0.462 OA
BRANCH  22  23
ATOM     23  C   LIG    1       -1.986  -0.879   1.104  0.00  0.00    +0.266 C 
BRANCH  23  24
ATOM     24  C   LIG    1       -1.441  -0.474   2.475  0.00  0.00    +0.181 C 
ATOM     25  C   LIG    1       -0.447   0.687   2.534  0.00  0.00    +0.195 C 
ATOM     26  O   LIG    1       -1.798   0.814   2.980  0.00  0.00    -0.368 OA
ENDBRANCH  23  24
ENDBRANCH  22  23
ENDBRANCH  20  22
ENDBRANCH  19  20
ENDBRANCH  18  19
ENDBRANCH  17  18
ENDBRANCH  16  17
ENDBRANCH  14  15
ENDBRANCH   2  14
TORSDOF 17
