REMARK  Name = ZINC59047505
REMARK                            x       y       z     vdW  Elec       q    Type
REMARK                         _______ _______ _______ _____ _____    ______ ____
ROOT
ATOM      1  C   LIG    1       -1.739  -1.023  -1.407  0.00  0.00    -0.024 A 
ATOM      2  C   LIG    1       -1.514  -2.253  -1.997  0.00  0.00    +0.011 A 
ATOM      3  C   LIG    1       -1.923  -2.482  -3.297  0.00  0.00    -0.016 A 
ATOM      4  C   LIG    1       -2.557  -1.480  -4.009  0.00  0.00    +0.008 A 
ATOM      5  C   LIG    1       -2.783  -0.250  -3.421  0.00  0.00    +0.020 A 
ATOM      6  C   LIG    1       -2.379  -0.023  -2.117  0.00  0.00    +0.044 A 
ATOM      7 CL   LIG    1       -2.667   1.520  -1.375  0.00  0.00    -0.083 Cl
ENDROOT
BRANCH   3   8
ATOM      8  C   LIG    1       -1.678  -3.823  -3.939  0.00  0.00    +0.180 C 
ATOM      9  C   LIG    1       -2.962  -4.654  -3.892  0.00  0.00    +0.179 C 
ATOM     10  C   LIG    1       -2.721  -5.992  -4.599  0.00  0.00    +0.177 C 
ATOM     11  C   LIG    1       -2.256  -5.721  -6.034  0.00  0.00    +0.176 C 
ATOM     12  C   LIG    1       -1.000  -4.848  -5.998  0.00  0.00    +0.175 C 
ATOM     13  O   LIG    1       -1.283  -3.634  -5.300  0.00  0.00    -0.361 OA
BRANCH   9  14
ATOM     14  O   LIG    1       -3.327  -4.892  -2.530  0.00  0.00    -0.386 OA
ATOM     15  H   LIG    1       -4.134  -5.415  -2.425  0.00  0.00    +0.210 HD
ENDBRANCH   9  14
BRANCH  10  16
ATOM     16  O   LIG    1       -3.935  -6.745  -4.622  0.00  0.00    -0.386 OA
ATOM     17  H   LIG    1       -3.856  -7.606  -5.056  0.00  0.00    +0.210 HD
ENDBRANCH  10  16
BRANCH  11  18
ATOM     18  O   LIG    1       -1.961  -6.960  -6.681  0.00  0.00    -0.386 OA
ATOM     19  H   LIG    1       -2.713  -7.566  -6.735  0.00  0.00    +0.210 HD
ENDBRANCH  11  18
BRANCH  12  20
ATOM     20  C   LIG    1       -0.563  -4.524  -7.428  0.00  0.00    +0.190 C 
BRANCH  20  21
ATOM     21  O   LIG    1        0.673  -3.808  -7.399  0.00  0.00    -0.392 OA
ATOM     22  H   LIG    1        1.010  -3.569  -8.273  0.00  0.00    +0.210 HD
ENDBRANCH  20  21
ENDBRANCH  12  20
ENDBRANCH   3   8
BRANCH   1  23
ATOM     23  C   LIG    1       -1.293  -0.774   0.011  0.00  0.00    +0.071 C 
BRANCH  23  29
ATOM     24  C   LIG    1       -0.017   1.378   0.010  0.00  0.00    +0.007 A 
ATOM     25  C   LIG    1        1.169   2.087   0.002  0.00  0.00    +0.046 A 
ATOM     26  C   LIG    1        2.380   1.409  -0.013  0.00  0.00    +0.121 A 
ATOM     27  C   LIG    1        2.396   0.022  -0.021  0.00  0.00    +0.046 A 
ATOM     28  C   LIG    1        1.207  -0.681  -0.013  0.00  0.00    +0.007 A 
ATOM     29  C   LIG    1        0.002  -0.004   0.002  0.00  0.00    -0.043 A 
BRANCH  26  30
ATOM     30  O   LIG    1        3.548   2.104  -0.021  0.00  0.00    -0.490 OA
BRANCH  30  31
ATOM     31  C   LIG    1        4.756   1.341  -0.036  0.00  0.00    +0.257 C 
BRANCH  31  32
ATOM     32  C   LIG    1        5.958   2.288  -0.043  0.00  0.00    +0.201 C 
BRANCH  32  33
ATOM     33  O   LIG    1        5.991   3.024   1.181  0.00  0.00    -0.373 OA
BRANCH  33  34
ATOM     34  C   LIG    1        7.082   3.943   1.277  0.00  0.00    +0.119 C 
ATOM     35  C   LIG    1        7.766   4.086   2.638  0.00  0.00    +0.034 C 
ATOM     36  C   LIG    1        6.868   5.207   2.111  0.00  0.00    +0.034 C 
ENDBRANCH  33  34
ENDBRANCH  32  33
ENDBRANCH  31  32
ENDBRANCH  30  31
ENDBRANCH  26  30
ENDBRANCH  23  29
ENDBRANCH   1  23
TORSDOF 13
