REMARK  Name = ZINC20108598
REMARK                            x       y       z     vdW  Elec       q    Type
REMARK                         _______ _______ _______ _____ _____    ______ ____
ROOT
ATOM      1  C   LIG    1        0.819  -2.790   4.630  0.00  0.00    +0.122 A 
ATOM      2  C   LIG    1        0.235  -2.281   5.798  0.00  0.00    +0.047 A 
ATOM      3  C   LIG    1       -0.041  -3.116   6.839  0.00  0.00    -0.038 A 
ATOM      4  C   LIG    1       -0.668  -2.592   8.105  0.00  0.00    +0.044 C 
ATOM      5  C   LIG    1        0.277  -4.483   6.701  0.00  0.00    +0.005 A 
ATOM      6  C   LIG    1        0.019  -5.396   7.734  0.00  0.00    +0.033 A 
ATOM      7  C   LIG    1        0.344  -6.724   7.562  0.00  0.00    +0.034 A 
ATOM      8  C   LIG    1        0.926  -7.165   6.369  0.00  0.00    +0.025 A 
ATOM      9  C   LIG    1        1.185  -6.298   5.354  0.00  0.00    +0.030 A 
ATOM     10  C   LIG    1        0.867  -4.936   5.495  0.00  0.00    +0.073 A 
ATOM     11  N   LIG    1        1.109  -4.069   4.505  0.00  0.00    -0.232 NA
ENDROOT
BRANCH   1  16
ATOM     12  N   LIG    1        0.746  -0.463   1.223  0.00  0.00    +0.382 N 
ATOM     13  H   LIG    1        1.664  -0.046   1.265  0.00  0.00    -0.082 HD
ATOM     14  C   LIG    1       -0.013  -0.088   2.424  0.00  0.00    -0.060 C 
ATOM     15  C   LIG    1        0.776  -0.494   3.673  0.00  0.00    +0.088 C 
ATOM     16  N   LIG    1        1.094  -1.928   3.578  0.00  0.00    -0.319 N 
ATOM     17  C   LIG    1        1.710  -2.421   2.336  0.00  0.00    +0.088 C 
ATOM     18  C   LIG    1        0.877  -1.924   1.150  0.00  0.00    -0.060 C 
BRANCH  12  20
ATOM     19  C   LIG    1        0.015   1.554   0.043  0.00  0.00    -0.017 C 
ATOM     20  C   LIG    1        0.042   0.024   0.029  0.00  0.00    -0.082 C 
ENDBRANCH  12  20
ENDBRANCH   1  16
BRANCH   7  21
ATOM     21  N   LIG    1        0.088  -7.639   8.589  0.00  0.00    -0.281 N 
ATOM     22  H   LIG    1        0.695  -8.382   8.739  0.00  0.00    +0.155 HD
ATOM     23  C   LIG    1       -1.000  -7.490   9.370  0.00  0.00    +0.252 C 
ATOM     24  O   LIG    1       -1.811  -6.619   9.122  0.00  0.00    -0.270 OA
BRANCH  23  25
ATOM     25  C   LIG    1       -1.206  -8.383  10.526  0.00  0.00    +0.080 A 
ATOM     26  C   LIG    1       -0.274  -9.381  10.818  0.00  0.00    +0.036 A 
ATOM     27  C   LIG    1       -0.473 -10.213  11.900  0.00  0.00    +0.042 A 
ATOM     28 CL   LIG    1        0.686 -11.453  12.262  0.00  0.00    -0.084 Cl
ATOM     29  C   LIG    1       -1.596 -10.062  12.700  0.00  0.00    +0.023 A 
ATOM     30  C   LIG    1       -2.525  -9.079  12.421  0.00  0.00    +0.048 A 
ATOM     31  C   LIG    1       -2.337  -8.230  11.341  0.00  0.00    +0.132 A 
BRANCH  31  32
ATOM     32  O   LIG    1       -3.246  -7.260  11.070  0.00  0.00    -0.494 OA
ATOM     33  C   LIG    1       -4.372  -7.165  11.944  0.00  0.00    +0.277 C 
ENDBRANCH  31  32
ENDBRANCH  23  25
ENDBRANCH   7  21
TORSDOF 5
