REMARK  Name = ZINC26022692
REMARK                            x       y       z     vdW  Elec       q    Type
REMARK                         _______ _______ _______ _____ _____    ______ ____
ROOT
ATOM      1  C   LIG    1       -0.798   1.617  -1.212  0.00  0.00    +0.032 C 
ATOM      2  C   LIG    1       -0.013   1.086   0.008  0.00  0.00    +0.109 C 
ATOM      3  N   LIG    1       -0.737   1.577   1.186  0.00  0.00    -0.291 N 
ATOM      4  C   LIG    1       -1.981   1.975   0.862  0.00  0.00    +0.220 C 
ATOM      5  O   LIG    1       -2.795   2.417   1.645  0.00  0.00    -0.275 OA
ATOM      6  C   LIG    1       -2.216   1.792  -0.622  0.00  0.00    +0.086 C 
ENDROOT
BRANCH   3   7
ATOM      7  C   LIG    1       -0.176   1.628   2.539  0.00  0.00    +0.228 C 
BRANCH   7   8
ATOM      8  C   LIG    1        0.500   2.958   2.753  0.00  0.00    +0.322 C 
ATOM      9  O   LIG    1        0.513   3.779   1.866  0.00  0.00    -0.249 OA
BRANCH   8  10
ATOM     10  O   LIG    1        1.089   3.230   3.928  0.00  0.00    -0.480 OA
ATOM     11  H   LIG    1        1.079   2.594   4.615  0.00  0.00    +0.295 HD
ENDBRANCH   8  10
ENDBRANCH   7   8
ENDBRANCH   3   7
BRANCH   6  12
ATOM     12  C   LIG    1       -3.062   0.543  -0.879  0.00  0.00    +0.078 C 
BRANCH  12  13
ATOM     13  S   LIG    1       -4.759   0.834  -0.308  0.00  0.00    -0.178 S 
ATOM     14  H   LIG    1       -5.517   0.043  -0.411  0.00  0.00    +0.102 HD
ENDBRANCH  12  13
ENDBRANCH   6  12
TORSDOF 5
