REMARK  Name = ZINC13782161
REMARK                            x       y       z     vdW  Elec       q    Type
REMARK                         _______ _______ _______ _____ _____    ______ ____
ROOT
ATOM      1  C   LIG    1       -1.094  -1.000   0.474  0.00  0.00    +0.044 C 
ATOM      2  C   LIG    1        0.097  -0.112   0.224  0.00  0.00    -0.047 A 
ATOM      3  C   LIG    1       -0.056   1.262   0.211  0.00  0.00    +0.003 A 
ATOM      4  C   LIG    1        1.037   2.077  -0.018  0.00  0.00    +0.001 A 
ATOM      5  C   LIG    1        2.282   1.518  -0.236  0.00  0.00    +0.004 A 
ATOM      6  C   LIG    1        2.435   0.145  -0.223  0.00  0.00    -0.043 A 
ATOM      7  C   LIG    1        1.343  -0.670   0.007  0.00  0.00    -0.044 A 
ATOM      8  C   LIG    1        1.509  -2.168   0.022  0.00  0.00    +0.044 C 
ENDROOT
BRANCH   6   9
ATOM      9  C   LIG    1        3.793  -0.465  -0.459  0.00  0.00    +0.002 C 
ATOM     10  C   LIG    1        4.735  -0.073   0.683  0.00  0.00    +0.004 C 
ATOM     11  C   LIG    1        6.127  -0.646   0.406  0.00  0.00    -0.019 C 
ATOM     12  C   LIG    1        6.629  -0.123  -0.943  0.00  0.00    -0.083 C 
ATOM     13  N   LIG    1        5.698  -0.531  -2.012  0.00  0.00    +0.379 N 
ATOM     14  H   LIG    1        6.058  -0.206  -2.916  0.00  0.00    -0.086 HD
ATOM     15  H   LIG    1        5.622  -1.555  -2.022  0.00  0.00    -0.086 HD
ATOM     16  C   LIG    1        4.362   0.053  -1.782  0.00  0.00    -0.074 C 
ENDBRANCH   6   9
TORSDOF 1
