REMARK  Name = ZINC28371968
REMARK                            x       y       z     vdW  Elec       q    Type
REMARK                         _______ _______ _______ _____ _____    ______ ____
ROOT
ATOM      1  C   LIG    1        0.789  -0.543   1.221  0.00  0.00    +0.044 C 
ATOM      2  C   LIG    1        1.508  -1.760   0.593  0.00  0.00    +0.237 C 
ATOM      3  N   LIG    1        1.585  -1.462  -0.842  0.00  0.00    -0.279 N 
ATOM      4  H   LIG    1        2.228  -1.941  -1.594  0.00  0.00    +0.303 HD
ATOM      5  C   LIG    1        0.778  -0.518  -1.191  0.00  0.00    +0.239 C 
ATOM      6  C   LIG    1        0.002  -0.004   0.002  0.00  0.00    +0.103 C 
ATOM      7  C   LIG    1       -0.019   1.526   0.010  0.00  0.00    +0.020 C 
ENDROOT
BRANCH   5   8
ATOM      8  N   LIG    1        0.641  -0.043  -2.468  0.00  0.00    -0.254 N 
ATOM      9  H   LIG    1        1.245  -0.470  -3.282  0.00  0.00    +0.288 HD
ATOM     10  H   LIG    1       -0.073   0.767  -2.680  0.00  0.00    +0.288 HD
ENDBRANCH   5   8
BRANCH   1  12
ATOM     11  C   LIG    1        0.656  -1.388   3.569  0.00  0.00    +0.004 C 
ATOM     12  C   LIG    1       -0.159  -0.980   2.340  0.00  0.00    +0.005 C 
ENDBRANCH   1  12
TORSDOF 2
