REMARK  Name = ZINC58575624
REMARK                            x       y       z     vdW  Elec       q    Type
REMARK                         _______ _______ _______ _____ _____    ______ ____
ROOT
ATOM      1  C   LIG    1        0.626  -0.618   1.041  0.00  0.00    +0.132 A 
ATOM      2  C   LIG    1        1.202   0.142   2.050  0.00  0.00    +0.047 A 
ATOM      3  C   LIG    1        1.835  -0.478   3.107  0.00  0.00    +0.013 A 
ATOM      4  C   LIG    1        1.896  -1.870   3.160  0.00  0.00    +0.001 A 
ATOM      5  C   LIG    1        1.317  -2.631   2.146  0.00  0.00    +0.026 A 
ATOM      6  C   LIG    1        0.680  -2.004   1.095  0.00  0.00    +0.097 A 
ENDROOT
BRANCH   4   7
ATOM      7  C   LIG    1        2.577  -2.541   4.295  0.00  0.00    +0.075 A 
ATOM      8  C   LIG    1        3.055  -1.774   5.356  0.00  0.00    +0.056 A 
ATOM      9  C   LIG    1        3.689  -2.409   6.412  0.00  0.00    +0.071 A 
ATOM     10  C   LIG    1        3.829  -3.813   6.375  0.00  0.00    +0.125 A 
ATOM     11  N   LIG    1        4.470  -4.173   7.503  0.00  0.00    -0.233 NA
ATOM     12  C   LIG    1        4.731  -3.116   8.219  0.00  0.00    +0.197 A 
ATOM     13  C   LIG    1        3.319  -4.514   5.266  0.00  0.00    +0.168 A 
ATOM     14  N   LIG    1        4.270  -2.001   7.591  0.00  0.00    -0.344 N 
ATOM     15  H   LIG    1        4.338  -1.088   7.913  0.00  0.00    +0.167 HD
ATOM     16  N   LIG    1        2.715  -3.860   4.284  0.00  0.00    -0.234 NA
BRANCH  13  17
ATOM     17  C   LIG    1        3.447  -5.939   5.202  0.00  0.00    +0.121 C 
ATOM     18  N   LIG    1        3.549  -7.069   5.151  0.00  0.00    -0.189 NA
ENDBRANCH  13  17
ENDBRANCH   4   7
BRANCH   6  19
ATOM     19  C   LIG    1        0.049  -2.825   0.000  0.00  0.00    +0.421 C 
ATOM     20  F   LIG    1        0.648  -2.510  -1.224  0.00  0.00    -0.166 F 
ATOM     21  F   LIG    1       -1.320  -2.543  -0.064  0.00  0.00    -0.166 F 
ATOM     22  F   LIG    1        0.232  -4.185   0.273  0.00  0.00    -0.166 F 
ENDBRANCH   6  19
BRANCH   1  24
ATOM     23  C   LIG    1       -0.017   1.425   0.010  0.00  0.00    +0.277 C 
ATOM     24  O   LIG    1        0.002  -0.004   0.002  0.00  0.00    -0.495 OA
ENDBRANCH   1  24
TORSDOF 4
