REMARK  Name = ZINC15055845
REMARK                            x       y       z     vdW  Elec       q    Type
REMARK                         _______ _______ _______ _____ _____    ______ ____
ROOT
ATOM      1  C   LIG    1        1.023   1.962   0.576  0.00  0.00    +0.128 A 
ATOM      2  C   LIG    1       -0.215   1.382   0.801  0.00  0.00    +0.047 A 
ATOM      3  C   LIG    1       -1.366   2.139   0.690  0.00  0.00    +0.019 A 
ATOM      4  C   LIG    1       -1.293   3.484   0.365  0.00  0.00    +0.019 A 
ATOM      5 BR   LIG    1       -2.878   4.506   0.226  0.00  0.00    -0.050 Br
ATOM      6  C   LIG    1       -0.070   4.079   0.138  0.00  0.00    +0.026 A 
ATOM      7  C   LIG    1        1.103   3.323   0.241  0.00  0.00    +0.019 A 
ENDROOT
BRANCH   7   8
ATOM      8  C   LIG    1        2.409   3.949  -0.000  0.00  0.00    +0.032 C 
ATOM      9  C   LIG    1        2.483   5.128  -0.669  0.00  0.00    +0.080 C 
ATOM     10  C   LIG    1        3.647   6.007  -0.900  0.00  0.00    +0.258 C 
ATOM     11  N   LIG    1        3.427   7.109  -1.597  0.00  0.00    -0.243 N 
ATOM     12  H   LIG    1        4.165   7.714  -1.771  0.00  0.00    +0.159 HD
ATOM     13  C   LIG    1        2.201   7.411  -2.070  0.00  0.00    +0.283 C 
ATOM     14  O   LIG    1        1.860   8.382  -2.720  0.00  0.00    -0.262 OA
ATOM     15  O   LIG    1        4.752   5.731  -0.471  0.00  0.00    -0.269 OA
ATOM     16  S   LIG    1        1.202   6.038  -1.520  0.00  0.00    -0.026 S 
ENDBRANCH   7   8
BRANCH   1  17
ATOM     17  O   LIG    1        2.153   1.217   0.680  0.00  0.00    -0.487 OA
BRANCH  17  18
ATOM     18  C   LIG    1        1.994  -0.160   1.026  0.00  0.00    +0.264 C 
BRANCH  18  22
ATOM     19  C   LIG    1        5.828  -2.034   1.220  0.00  0.00    +0.000 A 
ATOM     20  C   LIG    1        5.286  -1.448   2.349  0.00  0.00    +0.000 A 
ATOM     21  C   LIG    1        4.046  -0.842   2.286  0.00  0.00    +0.007 A 
ATOM     22  C   LIG    1        3.346  -0.821   1.094  0.00  0.00    -0.010 A 
ATOM     23  C   LIG    1        3.885  -1.411  -0.034  0.00  0.00    +0.007 A 
ATOM     24  C   LIG    1        5.128  -2.012   0.027  0.00  0.00    +0.000 A 
ENDBRANCH  18  22
ENDBRANCH  17  18
ENDBRANCH   1  17
TORSDOF 4
