REMARK  Name = ZINC14982453
REMARK                            x       y       z     vdW  Elec       q    Type
REMARK                         _______ _______ _______ _____ _____    ______ ____
ROOT
ATOM      1  N   LIG    1       -1.237   2.067   0.019  0.00  0.00    -0.279 N 
ATOM      2  H   LIG    1       -2.069   1.574  -0.047  0.00  0.00    +0.155 HD
ATOM      3  C   LIG    1       -1.256   3.410   0.128  0.00  0.00    +0.284 C 
ATOM      4  O   LIG    1       -0.212   4.036   0.127  0.00  0.00    -0.266 OA
ENDROOT
BRANCH   1   7
ATOM      5  C   LIG    1        1.298  -0.543   0.574  0.00  0.00    +0.125 A 
ATOM      6  C   LIG    1        0.089   0.135   0.597  0.00  0.00    +0.069 A 
ATOM      7  C   LIG    1       -0.017   1.385   0.002  0.00  0.00    +0.041 A 
ATOM      8  C   LIG    1        1.089   1.954  -0.616  0.00  0.00    +0.069 A 
ATOM      9  C   LIG    1        2.297   1.275  -0.637  0.00  0.00    +0.125 A 
ATOM     10  C   LIG    1        2.402   0.026  -0.043  0.00  0.00    +0.091 A 
BRANCH   5  12
ATOM     11  C   LIG    1        2.677  -2.409   1.095  0.00  0.00    +0.277 C 
ATOM     12  O   LIG    1        1.401  -1.767   1.156  0.00  0.00    -0.495 OA
ENDBRANCH   5  12
BRANCH   9  13
ATOM     13  O   LIG    1        3.380   1.833  -1.241  0.00  0.00    -0.495 OA
ATOM     14  C   LIG    1        4.592   1.077  -1.225  0.00  0.00    +0.277 C 
ENDBRANCH   9  13
ENDBRANCH   1   7
BRANCH   3  15
ATOM     15  C   LIG    1       -2.534   4.117   0.248  0.00  0.00    +0.190 A 
ATOM     16  C   LIG    1       -2.696   5.480   0.372  0.00  0.00    +0.055 A 
ATOM     17  C   LIG    1       -4.072   5.716   0.453  0.00  0.00    +0.050 A 
ATOM     18  C   LIG    1       -4.693   4.502   0.387  0.00  0.00    +0.136 A 
ATOM     19  O   LIG    1       -3.757   3.546   0.264  0.00  0.00    -0.450 OA
BRANCH  18  20
ATOM     20  C   LIG    1       -6.151   4.276   0.442  0.00  0.00    +0.017 A 
ATOM     21  C   LIG    1       -7.023   5.359   0.579  0.00  0.00    +0.013 A 
ATOM     22  C   LIG    1       -8.384   5.142   0.625  0.00  0.00    +0.021 A 
ATOM     23  C   LIG    1       -8.886   3.854   0.547  0.00  0.00    +0.041 A 
ATOM     24 CL   LIG    1      -10.601   3.588   0.613  0.00  0.00    -0.084 Cl
ATOM     25  C   LIG    1       -8.027   2.776   0.417  0.00  0.00    +0.021 A 
ATOM     26  C   LIG    1       -6.664   2.980   0.364  0.00  0.00    +0.013 A 
ENDBRANCH  18  20
ENDBRANCH   3  15
TORSDOF 5
