REMARK  Name = ZINC21981375
REMARK                            x       y       z     vdW  Elec       q    Type
REMARK                         _______ _______ _______ _____ _____    ______ ____
ROOT
ATOM      1  C   LIG    1       -3.350  -3.306   3.640  0.00  0.00    +0.061 A 
ATOM      2  C   LIG    1       -4.156  -4.341   4.119  0.00  0.00    +0.043 A 
ATOM      3  C   LIG    1       -5.319  -4.048   4.799  0.00  0.00    +0.106 A 
ATOM      4  C   LIG    1       -5.693  -2.731   5.008  0.00  0.00    +0.032 A 
ATOM      5  C   LIG    1       -4.905  -1.698   4.539  0.00  0.00    +0.048 A 
ATOM      6  C   LIG    1       -3.729  -1.975   3.859  0.00  0.00    +0.131 A 
ENDROOT
BRANCH   1  14
ATOM      7  C   LIG    1        0.762  -2.018   1.233  0.00  0.00    +0.089 A 
ATOM      8  C   LIG    1       -0.215  -2.855   1.806  0.00  0.00    +0.119 A 
ATOM      9  C   LIG    1        0.190  -4.175   1.571  0.00  0.00    +0.151 A 
ATOM     10  N   LIG    1        1.370  -4.114   0.883  0.00  0.00    -0.260 N 
ATOM     11  C   LIG    1        2.160  -5.259   0.424  0.00  0.00    +0.173 C 
ATOM     12  C   LIG    1       -0.621  -5.232   2.047  0.00  0.00    +0.278 A 
ATOM     13  N   LIG    1       -1.756  -4.921   2.711  0.00  0.00    -0.305 N 
ATOM     14  C   LIG    1       -2.103  -3.612   2.912  0.00  0.00    +0.145 A 
ATOM     15  H   LIG    1       -2.328  -5.629   3.047  0.00  0.00    +0.170 HD
ATOM     16  O   LIG    1       -0.302  -6.394   1.864  0.00  0.00    -0.265 OA
ATOM     17  N   LIG    1       -1.362  -2.623   2.475  0.00  0.00    -0.225 NA
ATOM     18  N   LIG    1        1.686  -2.763   0.690  0.00  0.00    -0.174 NA
BRANCH   7  19
ATOM     19  C   LIG    1        0.742  -0.511   1.242  0.00  0.00    +0.059 C 
BRANCH  19  21
ATOM     20  C   LIG    1       -0.019   1.526   0.010  0.00  0.00    +0.004 C 
ATOM     21  C   LIG    1        0.002  -0.004   0.002  0.00  0.00    +0.003 C 
ENDBRANCH  19  21
ENDBRANCH   7  19
ENDBRANCH   1  14
BRANCH   3  22
ATOM     22  S   LIG    1       -6.335  -5.355   5.403  0.00  0.00    +0.061 S 
ATOM     23  O   LIG    1       -6.048  -6.495   4.604  0.00  0.00    -0.153 OA
ATOM     24  O   LIG    1       -7.647  -4.824   5.529  0.00  0.00    -0.153 OA
BRANCH  22  25
ATOM     25  N   LIG    1       -5.817  -5.708   6.936  0.00  0.00    -0.174 NA
ATOM     26  C   LIG    1       -4.767  -6.712   7.165  0.00  0.00    +0.125 C 
ATOM     27  C   LIG    1       -3.688  -6.091   8.059  0.00  0.00    +0.101 C 
ATOM     28  N   LIG    1       -4.312  -5.556   9.276  0.00  0.00    -0.298 NA
ATOM     29  C   LIG    1       -5.253  -4.473   8.960  0.00  0.00    +0.101 C 
ATOM     30  C   LIG    1       -6.392  -5.023   8.103  0.00  0.00    +0.125 C 
BRANCH  28  31
ATOM     31  C   LIG    1       -3.295  -5.106  10.236  0.00  0.00    +0.112 C 
BRANCH  31  32
ATOM     32  C   LIG    1       -3.962  -4.792  11.576  0.00  0.00    +0.171 C 
BRANCH  32  33
ATOM     33  O   LIG    1       -4.503  -5.992  12.132  0.00  0.00    -0.394 OA
ATOM     34  H   LIG    1       -4.942  -5.867  12.985  0.00  0.00    +0.209 HD
ENDBRANCH  32  33
ENDBRANCH  31  32
ENDBRANCH  28  31
ENDBRANCH  22  25
ENDBRANCH   3  22
BRANCH   6  35
ATOM     35  O   LIG    1       -2.951  -0.961   3.403  0.00  0.00    -0.492 OA
BRANCH  35  36
ATOM     36  C   LIG    1       -3.400   0.370   3.664  0.00  0.00    +0.226 C 
ATOM     37  C   LIG    1       -2.401   1.370   3.078  0.00  0.00    +0.048 C 
ENDBRANCH  35  36
ENDBRANCH   6  35
TORSDOF 10
