REMARK  Name = ZINC29043683
REMARK                            x       y       z     vdW  Elec       q    Type
REMARK                         _______ _______ _______ _____ _____    ______ ____
ROOT
ATOM      1  C   LIG    1       -2.508  -2.490  -7.400  0.00  0.00    +0.043 A 
ATOM      2  C   LIG    1       -3.687  -2.237  -8.086  0.00  0.00    +0.024 A 
ATOM      3  C   LIG    1       -4.835  -1.907  -7.390  0.00  0.00    +0.002 A 
ATOM      4  C   LIG    1       -4.817  -1.833  -6.008  0.00  0.00    +0.001 A 
ATOM      5  C   LIG    1       -3.653  -2.088  -5.312  0.00  0.00    +0.012 A 
ATOM      6  C   LIG    1       -2.490  -2.421  -6.002  0.00  0.00    +0.023 A 
ENDROOT
BRANCH   6   7
ATOM      7  C   LIG    1       -1.236  -2.696  -5.260  0.00  0.00    +0.092 A 
ATOM      8  C   LIG    1       -1.055  -2.557  -3.924  0.00  0.00    +0.122 A 
ATOM      9  N   LIG    1        0.257  -2.920  -3.636  0.00  0.00    -0.296 N 
ATOM     10  C   LIG    1        1.079  -3.004  -2.534  0.00  0.00    +0.046 A 
ATOM     11  C   LIG    1        2.343  -3.406  -2.655  0.00  0.00    +0.071 A 
ATOM     12  S   LIG    1        2.471  -3.700  -4.412  0.00  0.00    -0.057 S 
ATOM     13  C   LIG    1        0.805  -3.256  -4.847  0.00  0.00    +0.178 A 
ATOM     14  N   LIG    1       -0.075  -3.126  -5.796  0.00  0.00    -0.221 NA
BRANCH  10  15
ATOM     15  C   LIG    1        0.540  -2.644  -1.174  0.00  0.00    +0.138 C 
BRANCH  15  16
ATOM     16  N   LIG    1        0.654  -1.193  -0.970  0.00  0.00    -0.300 NA
ATOM     17  C   LIG    1       -0.071  -0.772   0.236  0.00  0.00    +0.066 C 
ATOM     18  C   LIG    1        0.005   0.751   0.368  0.00  0.00    -0.067 C 
ATOM     19  N   LIG    1        1.414   1.164   0.433  0.00  0.00    +0.381 N 
ATOM     20  H   LIG    1        1.891   0.705   1.312  0.00  0.00    -0.086 HD
ATOM     21  H   LIG    1        1.472   2.260   0.516  0.00  0.00    -0.086 HD
ATOM     22  C   LIG    1        2.140   0.743  -0.773  0.00  0.00    -0.067 C 
ATOM     23  C   LIG    1        2.063  -0.780  -0.905  0.00  0.00    +0.066 C 
ENDBRANCH  15  16
ENDBRANCH  10  15
ENDBRANCH   6   7
BRANCH   1  25
ATOM     24  C   LIG    1       -1.428  -3.484  -9.270  0.00  0.00    +0.249 C 
ATOM     25  N   LIG    1       -1.345  -2.817  -8.102  0.00  0.00    -0.281 N 
ATOM     26  H   LIG    1       -0.362  -2.530  -7.701  0.00  0.00    +0.155 HD
ATOM     27  O   LIG    1       -2.517  -3.729  -9.754  0.00  0.00    -0.270 OA
BRANCH  24  30
ATOM     28  C   LIG    1        0.870  -5.013 -11.818  0.00  0.00    +0.166 A 
ATOM     29  C   LIG    1       -0.283  -4.609 -11.173  0.00  0.00    +0.062 A 
ATOM     30  C   LIG    1       -0.199  -3.917  -9.962  0.00  0.00    +0.044 A 
ATOM     31  C   LIG    1        1.053  -3.631  -9.409  0.00  0.00    +0.062 A 
ATOM     32  C   LIG    1        2.203  -4.043 -10.056  0.00  0.00    +0.166 A 
ATOM     33  C   LIG    1        2.115  -4.732 -11.263  0.00  0.00    +0.204 A 
BRANCH  28  35
ATOM     34  C   LIG    1       -0.521  -5.941 -13.509  0.00  0.00    +0.277 C 
ATOM     35  O   LIG    1        0.788  -5.687 -12.997  0.00  0.00    -0.491 OA
ENDBRANCH  28  35
BRANCH  32  36
ATOM     36  O   LIG    1        3.421  -3.771  -9.516  0.00  0.00    -0.491 OA
ATOM     37  C   LIG    1        3.436  -3.061  -8.276  0.00  0.00    +0.277 C 
ENDBRANCH  32  36
BRANCH  33  38
ATOM     38  O   LIG    1        3.248  -5.130 -11.900  0.00  0.00    -0.488 OA
ATOM     39  C   LIG    1        3.821  -4.216 -12.837  0.00  0.00    +0.277 C 
ENDBRANCH  33  38
ENDBRANCH  24  30
ENDBRANCH   1  25
TORSDOF 8
