REMARK  Name = ZINC18106435
REMARK                            x       y       z     vdW  Elec       q    Type
REMARK                         _______ _______ _______ _____ _____    ______ ____
ROOT
ATOM      1  C   LIG    1       -0.018   1.460   0.010  0.00  0.00    +0.131 A 
ATOM      2  C   LIG    1        1.198   2.155   0.002  0.00  0.00    +0.011 A 
ATOM      3  C   LIG    1        2.443   1.376  -0.014  0.00  0.00    +0.008 A 
ATOM      4  C   LIG    1        3.685   2.021  -0.022  0.00  0.00    +0.030 A 
ATOM      5  C   LIG    1        4.841   1.274  -0.038  0.00  0.00    +0.042 A 
ATOM      6 CL   LIG    1        6.384   2.070  -0.048  0.00  0.00    -0.084 Cl
ATOM      7  C   LIG    1        4.780  -0.115  -0.045  0.00  0.00    +0.022 A 
ATOM      8  C   LIG    1        3.565  -0.763  -0.036  0.00  0.00    +0.028 A 
ATOM      9  C   LIG    1        2.382  -0.029  -0.021  0.00  0.00    +0.050 A 
ATOM     10  N   LIG    1        1.164  -0.678  -0.013  0.00  0.00    -0.321 N 
ATOM     11  H   LIG    1        1.147  -1.648  -0.018  0.00  0.00    +0.169 HD
ATOM     12  C   LIG    1        0.002  -0.004   0.002  0.00  0.00    +0.264 A 
ATOM     13  O   LIG    1       -1.049  -0.619   0.008  0.00  0.00    -0.267 OA
ENDROOT
BRANCH   2  14
ATOM     14  C   LIG    1        1.228   3.631   0.010  0.00  0.00    -0.016 A 
ATOM     15  C   LIG    1        1.747   4.328  -1.084  0.00  0.00    +0.008 A 
ATOM     16  C   LIG    1        1.767   5.707  -1.072  0.00  0.00    +0.001 A 
ATOM     17  C   LIG    1        1.283   6.400   0.025  0.00  0.00    +0.000 A 
ATOM     18  C   LIG    1        0.772   5.715   1.114  0.00  0.00    +0.001 A 
ATOM     19  C   LIG    1        0.741   4.337   1.113  0.00  0.00    +0.008 A 
ENDBRANCH   2  14
BRANCH   1  20
ATOM     20  C   LIG    1       -1.292   2.187   0.020  0.00  0.00    +0.345 C 
ATOM     21  O   LIG    1       -1.298   3.403   0.027  0.00  0.00    -0.245 OA
BRANCH  20  22
ATOM     22  O   LIG    1       -2.457   1.508   0.022  0.00  0.00    -0.461 OA
BRANCH  22  24
ATOM     23  C   LIG    1       -4.887   1.355   0.033  0.00  0.00    +0.048 C 
ATOM     24  C   LIG    1       -3.678   2.293   0.032  0.00  0.00    +0.229 C 
ENDBRANCH  22  24
ENDBRANCH  20  22
ENDBRANCH   1  20
TORSDOF 4
