REMARK  Name = ZINC19202437
REMARK                            x       y       z     vdW  Elec       q    Type
REMARK                         _______ _______ _______ _____ _____    ______ ____
ROOT
ATOM      1  C   LIG    1        0.626  -0.619   1.042  0.00  0.00    +0.121 A 
ATOM      2  C   LIG    1        1.204   0.145   2.054  0.00  0.00    +0.047 A 
ATOM      3  C   LIG    1        1.839  -0.462   3.113  0.00  0.00    +0.030 A 
ATOM      4  C   LIG    1        1.911  -1.849   3.181  0.00  0.00    +0.047 A 
ATOM      5  C   LIG    1        1.328  -2.625   2.161  0.00  0.00    +0.007 A 
ATOM      6  C   LIG    1        1.576  -4.013   2.527  0.00  0.00    -0.017 A 
ATOM      7  C   LIG    1        2.259  -4.010   3.690  0.00  0.00    +0.034 A 
ATOM      8  C   LIG    1        2.697  -5.276   4.390  0.00  0.00    +0.134 C 
ATOM      9  N   LIG    1        1.929  -6.402   3.835  0.00  0.00    -0.310 NA
ATOM     10  H   LIG    1        2.237  -7.279   4.229  0.00  0.00    +0.122 HD
ATOM     11  C   LIG    1        1.999  -6.431   2.368  0.00  0.00    +0.086 C 
ATOM     12  C   LIG    1        1.177  -5.268   1.794  0.00  0.00    +0.052 C 
ATOM     13  N   LIG    1        2.467  -2.723   4.093  0.00  0.00    -0.357 N 
ATOM     14  H   LIG    1        2.937  -2.462   4.901  0.00  0.00    +0.166 HD
ATOM     15  C   LIG    1        0.680  -1.997   1.094  0.00  0.00    +0.056 A 
ENDROOT
BRANCH   1  17
ATOM     16  C   LIG    1       -0.017   1.425   0.010  0.00  0.00    +0.277 C 
ATOM     17  O   LIG    1        0.002  -0.004   0.002  0.00  0.00    -0.495 OA
ENDBRANCH   1  17
TORSDOF 1
