REMARK  Name = ZINC34045468
REMARK                            x       y       z     vdW  Elec       q    Type
REMARK                         _______ _______ _______ _____ _____    ______ ____
ROOT
ATOM      1  O   LIG    1        2.737   4.019  -0.003  0.00  0.00    -0.380 OA
ENDROOT
BRANCH   1   2
ATOM      2  C   LIG    1        2.831   5.445   0.004  0.00  0.00    +0.160 C 
BRANCH   2   3
ATOM      3  C   LIG    1        4.304   5.859  -0.008  0.00  0.00    +0.033 C 
BRANCH   3   4
ATOM      4  C   LIG    1        4.404   7.386  -0.000  0.00  0.00    +0.037 C 
BRANCH   4  11
ATOM      5  C   LIG    1        6.529   7.981   1.180  0.00  0.00    +0.005 A 
ATOM      6  C   LIG    1        7.861   8.350   1.170  0.00  0.00    +0.020 A 
ATOM      7  C   LIG    1        8.516   8.544  -0.033  0.00  0.00    +0.041 A 
ATOM      8 CL   LIG    1       10.187   9.014  -0.047  0.00  0.00    -0.084 Cl
ATOM      9  C   LIG    1        7.838   8.363  -1.226  0.00  0.00    +0.020 A 
ATOM     10  C   LIG    1        6.508   7.988  -1.215  0.00  0.00    +0.005 A 
ATOM     11  C   LIG    1        5.854   7.794  -0.012  0.00  0.00    -0.047 A 
ENDBRANCH   4  11
ENDBRANCH   3   4
ENDBRANCH   2   3
ENDBRANCH   1   2
BRANCH   1  12
ATOM     12  C   LIG    1        1.397   3.524   0.008  0.00  0.00    +0.158 C 
BRANCH  12  13
ATOM     13  C   LIG    1        1.417   1.994  -0.001  0.00  0.00    +0.009 C 
BRANCH  13  14
ATOM     14  C   LIG    1       -0.018   1.465   0.010  0.00  0.00    -0.077 C 
BRANCH  14  15
ATOM     15  N   LIG    1        0.002  -0.004   0.002  0.00  0.00    +0.380 N 
ATOM     16  H   LIG    1        0.657  -0.340   0.820  0.00  0.00    -0.082 HD
ATOM     17  C   LIG    1        0.559  -0.516  -1.256  0.00  0.00    -0.079 C 
ATOM     18  C   LIG    1        0.700  -2.038  -1.172  0.00  0.00    -0.019 C 
ATOM     19  C   LIG    1       -0.675  -2.658  -0.911  0.00  0.00    -0.004 C 
ATOM     20  C   LIG    1       -1.255  -2.072   0.379  0.00  0.00    -0.019 C 
ATOM     21  C   LIG    1       -1.338  -0.550   0.250  0.00  0.00    -0.079 C 
ENDBRANCH  14  15
ENDBRANCH  13  14
ENDBRANCH  12  13
ENDBRANCH   1  12
TORSDOF 8
