REMARK  Name = ZINC13981023
REMARK                            x       y       z     vdW  Elec       q    Type
REMARK                         _______ _______ _______ _____ _____    ______ ____
ROOT
ATOM      1  C   LIG    1        2.345   1.369  -0.632  0.00  0.00    +0.047 A 
ATOM      2  C   LIG    1        1.105   1.941  -0.815  0.00  0.00    +0.113 A 
ATOM      3  N   LIG    1       -0.005   1.234  -0.679  0.00  0.00    -0.261 NA
ATOM      4  C   LIG    1        0.008  -0.044  -0.364  0.00  0.00    +0.140 A 
ATOM      5  C   LIG    1        1.220  -0.707  -0.160  0.00  0.00    +0.108 A 
ATOM      6  N   LIG    1        1.561  -1.976   0.163  0.00  0.00    -0.224 NA
ATOM      7  C   LIG    1        2.865  -2.077   0.232  0.00  0.00    +0.167 A 
ATOM      8  N   LIG    1        3.440  -0.864  -0.046  0.00  0.00    -0.319 N 
ATOM      9  C   LIG    1        2.420   0.021  -0.298  0.00  0.00    +0.072 A 
ENDROOT
BRANCH   7  10
ATOM     10  C   LIG    1        3.607  -3.314   0.560  0.00  0.00    +0.190 A 
ATOM     11  C   LIG    1        3.080  -4.683   0.770  0.00  0.00    +0.191 A 
ATOM     12  N   LIG    1        4.168  -5.371   1.027  0.00  0.00    -0.033 NA
ATOM     13  O   LIG    1        5.127  -4.635   0.997  0.00  0.00    -0.240 OA
ATOM     14  N   LIG    1        4.900  -3.475   0.745  0.00  0.00    -0.044 NA
BRANCH  11  15
ATOM     15  N   LIG    1        1.766  -5.127   0.708  0.00  0.00    -0.339 N 
ATOM     16  H   LIG    1        1.562  -6.062   0.869  0.00  0.00    +0.144 HD
ATOM     17  H   LIG    1        1.052  -4.503   0.504  0.00  0.00    +0.144 HD
ENDBRANCH  11  15
ENDBRANCH   7  10
BRANCH   8  18
ATOM     18  C   LIG    1        4.874  -0.567  -0.070  0.00  0.00    +0.089 C 
ATOM     19  C   LIG    1        5.293   0.902   0.012  0.00  0.00    +0.027 C 
ATOM     20  C   LIG    1        5.429   0.140  -1.308  0.00  0.00    +0.027 C 
ENDBRANCH   8  18
TORSDOF 3
