REMARK  Name = ZINC22174955
REMARK                            x       y       z     vdW  Elec       q    Type
REMARK                         _______ _______ _______ _____ _____    ______ ____
ROOT
ATOM      1  C   LIG    1        0.029   1.076   0.041  0.00  0.00    +0.021 A 
ATOM      2  C   LIG    1       -0.886   1.710  -0.781  0.00  0.00    +0.018 A 
ATOM      3  C   LIG    1       -0.909   3.109  -0.796  0.00  0.00    +0.076 A 
ATOM      4  C   LIG    1        0.002   3.809   0.013  0.00  0.00    +0.133 A 
ATOM      5  N   LIG    1        0.861   3.152   0.776  0.00  0.00    -0.240 NA
ATOM      6  C   LIG    1        0.895   1.835   0.808  0.00  0.00    +0.113 A 
ENDROOT
BRANCH   4   7
ATOM      7  N   LIG    1        0.002   5.192   0.010  0.00  0.00    -0.318 N 
ATOM      8  C   LIG    1       -0.849   5.721   1.086  0.00  0.00    +0.087 C 
ATOM      9  C   LIG    1       -0.885   7.248   0.999  0.00  0.00    -0.063 C 
ATOM     10  N   LIG    1        0.482   7.775   1.107  0.00  0.00    +0.381 N 
ATOM     11  H   LIG    1        0.913   7.482   2.075  0.00  0.00    -0.086 HD
ATOM     12  H   LIG    1        0.459   8.873   1.033  0.00  0.00    -0.086 HD
ATOM     13  C   LIG    1        1.333   7.247   0.031  0.00  0.00    -0.063 C 
ATOM     14  C   LIG    1        1.370   5.719   0.117  0.00  0.00    +0.087 C 
ENDBRANCH   4   7
BRANCH   3  15
ATOM     15  C   LIG    1       -1.868   3.835  -1.649  0.00  0.00    +0.245 C 
ATOM     16  N   LIG    1       -2.805   3.155  -2.339  0.00  0.00    -0.325 N 
ATOM     17  H   LIG    1       -2.856   2.059  -2.265  0.00  0.00    +0.145 HD
ATOM     18  H   LIG    1       -3.521   3.696  -2.975  0.00  0.00    +0.145 HD
ATOM     19  O   LIG    1       -1.812   5.047  -1.731  0.00  0.00    -0.270 OA
ENDBRANCH   3  15
TORSDOF 2
