REMARK  Name = ZINC16346669
REMARK                            x       y       z     vdW  Elec       q    Type
REMARK                         _______ _______ _______ _____ _____    ______ ____
ROOT
ATOM      1  C   LIG    1       -2.970  -4.067   0.207  0.00  0.00    +0.035 A 
ATOM      2  C   LIG    1       -1.699  -4.622   0.123  0.00  0.00    +0.025 A 
ATOM      3  C   LIG    1       -1.551  -5.991   0.018  0.00  0.00    +0.030 A 
ATOM      4  C   LIG    1       -2.666  -6.809  -0.004  0.00  0.00    +0.109 A 
ATOM      5  C   LIG    1       -3.932  -6.259   0.079  0.00  0.00    +0.030 A 
ATOM      6  C   LIG    1       -4.087  -4.891   0.190  0.00  0.00    +0.025 A 
ENDROOT
BRANCH   1  10
ATOM      7  N   LIG    1       -2.334  -0.525  -0.112  0.00  0.00    -0.269 N 
ATOM      8  H   LIG    1       -2.971  -0.164   0.523  0.00  0.00    +0.156 HD
ATOM      9  C   LIG    1       -2.251  -1.857  -0.302  0.00  0.00    +0.308 C 
ATOM     10  N   LIG    1       -3.123  -2.680   0.313  0.00  0.00    -0.269 N 
ATOM     11  H   LIG    1       -3.856  -2.312   0.830  0.00  0.00    +0.156 HD
ATOM     12  O   LIG    1       -1.391  -2.315  -1.028  0.00  0.00    -0.252 OA
BRANCH   7  18
ATOM     13  C   LIG    1       -1.122   0.017  -2.130  0.00  0.00    +0.025 A 
ATOM     14  C   LIG    1       -0.299   0.871  -2.839  0.00  0.00    +0.034 A 
ATOM     15  C   LIG    1        0.149   2.043  -2.258  0.00  0.00    +0.122 A 
ATOM     16  C   LIG    1       -0.225   2.364  -0.966  0.00  0.00    +0.034 A 
ATOM     17  C   LIG    1       -1.048   1.515  -0.252  0.00  0.00    +0.025 A 
ATOM     18  C   LIG    1       -1.500   0.338  -0.833  0.00  0.00    +0.035 A 
BRANCH  15  19
ATOM     19  N   LIG    1        1.031   2.955  -3.020  0.00  0.00    +0.006 N 
ATOM     20  O   LIG    1        1.359   2.675  -4.149  0.00  0.00    -0.130 OA
BRANCH  19  21
ATOM     21  O   LIG    1        1.423   3.980  -2.513  0.00  0.00    -0.396 OA
ATOM     22  H   LIG    1        1.169   4.197  -1.638  0.00  0.00    +0.329 HD
ENDBRANCH  19  21
ENDBRANCH  15  19
ENDBRANCH   7  18
ENDBRANCH   1  10
BRANCH   4  23
ATOM     23  S   LIG    1       -2.473  -8.555  -0.139  0.00  0.00    +0.072 S 
ATOM     24  O   LIG    1       -1.160  -8.782  -0.633  0.00  0.00    -0.150 OA
ATOM     25  O   LIG    1       -3.632  -9.042  -0.802  0.00  0.00    -0.150 OA
BRANCH  23  26
ATOM     26  N   LIG    1       -2.513  -9.172   1.398  0.00  0.00    -0.216 N 
ATOM     27  H   LIG    1       -3.211  -9.796   1.652  0.00  0.00    +0.174 HD
BRANCH  26  28
ATOM     28  C   LIG    1       -1.541  -8.794   2.328  0.00  0.00    +0.050 A 
ATOM     29  C   LIG    1       -0.200  -8.775   1.964  0.00  0.00    +0.026 A 
ATOM     30  C   LIG    1        0.759  -8.401   2.885  0.00  0.00    +0.023 A 
ATOM     31  C   LIG    1        0.386  -8.047   4.169  0.00  0.00    +0.059 A 
ATOM     32 CL   LIG    1        1.595  -7.578   5.324  0.00  0.00    -0.082 Cl
ATOM     33  C   LIG    1       -0.949  -8.066   4.535  0.00  0.00    +0.061 A 
ATOM     34 CL   LIG    1       -1.413  -7.622   6.148  0.00  0.00    -0.082 Cl
ATOM     35  C   LIG    1       -1.914  -8.433   3.616  0.00  0.00    +0.046 A 
ENDBRANCH  26  28
ENDBRANCH  23  26
ENDBRANCH   4  23
TORSDOF 7
