REMARK  Name = ZINC29126313
REMARK                            x       y       z     vdW  Elec       q    Type
REMARK                         _______ _______ _______ _____ _____    ______ ____
ROOT
ATOM      1  C   LIG    1       -3.384   3.929  -0.164  0.00  0.00    +0.162 A 
ATOM      2  C   LIG    1       -3.566   2.555  -0.082  0.00  0.00    +0.050 A 
ATOM      3  C   LIG    1       -2.475   1.714  -0.025  0.00  0.00    +0.012 A 
ATOM      4  C   LIG    1       -1.180   2.246  -0.051  0.00  0.00    -0.020 A 
ATOM      5  C   LIG    1       -0.999   3.632  -0.129  0.00  0.00    +0.057 A 
ATOM      6  C   LIG    1       -2.098   4.466  -0.190  0.00  0.00    +0.162 A 
ENDROOT
BRANCH   4   7
ATOM      7  C   LIG    1       -0.016   1.353   0.009  0.00  0.00    +0.028 C 
ATOM      8  C   LIG    1        1.231   1.850  -0.188  0.00  0.00    +0.074 C 
ATOM      9  C   LIG    1        2.543   1.194  -0.022  0.00  0.00    +0.217 C 
ATOM     10  N   LIG    1        3.611   1.927  -0.288  0.00  0.00    -0.165 NA
ATOM     11  C   LIG    1        3.502   3.209  -0.691  0.00  0.00    +0.139 C 
ATOM     12  S   LIG    1        4.754   4.311  -1.080  0.00  0.00    -0.026 S 
ATOM     13  S   LIG    1        1.738   3.478  -0.727  0.00  0.00    -0.060 S 
BRANCH   9  14
ATOM     14  O   LIG    1        2.637   0.036   0.342  0.00  0.00    -0.493 OA
ATOM     15  H   LIG    1        1.865  -0.462   0.524  0.00  0.00    +0.294 HD
ENDBRANCH   9  14
ENDBRANCH   4   7
BRANCH   1  16
ATOM     16  O   LIG    1       -4.463   4.752  -0.219  0.00  0.00    -0.489 OA
BRANCH  16  18
ATOM     17  C   LIG    1       -6.835   5.214  -0.258  0.00  0.00    +0.048 C 
ATOM     18  C   LIG    1       -5.752   4.136  -0.188  0.00  0.00    +0.226 C 
ENDBRANCH  16  18
ENDBRANCH   1  16
BRANCH   6  19
ATOM     19  O   LIG    1       -1.925   5.813  -0.271  0.00  0.00    -0.489 OA
BRANCH  19  20
ATOM     20  C   LIG    1       -0.580   6.295  -0.293  0.00  0.00    +0.226 C 
ATOM     21  C   LIG    1       -0.587   7.822  -0.386  0.00  0.00    +0.048 C 
ENDBRANCH  19  20
ENDBRANCH   6  19
TORSDOF 6
