REMARK  Name = ZINC52969852
REMARK                            x       y       z     vdW  Elec       q    Type
REMARK                         _______ _______ _______ _____ _____    ______ ____
ROOT
ATOM      1  C   LIG    1       -0.610  -2.180   0.926  0.00  0.00    +0.161 C 
ENDROOT
BRANCH   1   2
ATOM      2  N   LIG    1        0.180  -2.652  -0.219  0.00  0.00    -0.311 NA
ATOM      3  H   LIG    1        1.130  -2.316  -0.166  0.00  0.00    +0.120 HD
ATOM      4  H   LIG    1       -0.251  -2.384  -1.091  0.00  0.00    +0.120 HD
ENDBRANCH   1   2
BRANCH   1   6
ATOM      5  C   LIG    1        0.002  -0.004   0.002  0.00  0.00    -0.048 C 
ATOM      6  C   LIG    1       -0.631  -0.673   0.934  0.00  0.00    +0.002 C 
BRANCH   5   7
ATOM      7  C   LIG    1       -0.018   1.503   0.010  0.00  0.00    -0.059 C 
BRANCH   7   8
ATOM      8  N   LIG    1        1.360   2.011  -0.000  0.00  0.00    +0.380 N 
ATOM      9  H   LIG    1        1.346   3.020   0.005  0.00  0.00    -0.090 HD
ATOM     10  H   LIG    1        1.832   1.686  -0.830  0.00  0.00    -0.090 HD
ATOM     11  H   LIG    1        1.848   1.677   0.817  0.00  0.00    -0.090 HD
ENDBRANCH   7   8
ENDBRANCH   5   7
ENDBRANCH   1   6
BRANCH   1  12
ATOM     12  C   LIG    1        0.009  -2.681   2.205  0.00  0.00    +0.331 C 
ATOM     13  O   LIG    1       -0.496  -2.399   3.278  0.00  0.00    -0.248 OA
BRANCH  12  14
ATOM     14  O   LIG    1        1.016  -3.368   2.166  0.00  0.00    -0.479 OA
ATOM     15  H   LIG    1        1.404  -3.584   1.342  0.00  0.00    +0.295 HD
ENDBRANCH  12  14
ENDBRANCH   1  12
BRANCH   1  16
ATOM     16  C   LIG    1       -2.042  -2.708   0.811  0.00  0.00    +0.251 C 
ATOM     17  F   LIG    1       -2.794  -2.258   1.901  0.00  0.00    -0.246 F 
ENDBRANCH   1  16
TORSDOF 7
