REMARK  Name = ZINC22117939
REMARK                            x       y       z     vdW  Elec       q    Type
REMARK                         _______ _______ _______ _____ _____    ______ ____
ROOT
ATOM      1  N   LIG    1        0.922   7.277   0.034  0.00  0.00    -0.319 N 
ATOM      2  C   LIG    1        1.667   7.837   1.170  0.00  0.00    +0.088 C 
ATOM      3  C   LIG    1        1.628   9.365   1.100  0.00  0.00    -0.059 C 
ATOM      4  N   LIG    1        0.230   9.818   1.115  0.00  0.00    +0.389 N 
ATOM      5  H   LIG    1       -0.236   9.450   2.041  0.00  0.00    -0.081 HD
ATOM      6  C   LIG    1       -0.514   9.259  -0.021  0.00  0.00    -0.059 C 
ATOM      7  C   LIG    1       -0.476   7.731   0.049  0.00  0.00    +0.088 C 
ENDROOT
BRANCH   1  15
ATOM      8  C   LIG    1       -0.013   1.076   0.008  0.00  0.00    +0.001 A 
ATOM      9  C   LIG    1       -1.233   1.747   0.017  0.00  0.00    +0.002 A 
ATOM     10  C   LIG    1       -1.286   3.107   0.030  0.00  0.00    +0.028 A 
ATOM     11  C   LIG    1       -0.094   3.852   0.023  0.00  0.00    +0.073 A 
ATOM     12  C   LIG    1        1.145   3.167   0.008  0.00  0.00    +0.001 A 
ATOM     13  C   LIG    1        2.341   3.914   0.001  0.00  0.00    +0.013 A 
ATOM     14  C   LIG    1        2.254   5.274   0.010  0.00  0.00    +0.044 A 
ATOM     15  C   LIG    1        0.996   5.893   0.025  0.00  0.00    +0.122 A 
ATOM     16  N   LIG    1       -0.118   5.189   0.031  0.00  0.00    -0.232 NA
ATOM     17  C   LIG    1        1.163   1.764   0.000  0.00  0.00    +0.010 A 
ENDBRANCH   1  15
BRANCH   4  18
ATOM     18  C   LIG    1        0.152  11.285   1.125  0.00  0.00    +0.044 C 
BRANCH  18  19
ATOM     19  C   LIG    1        0.710  11.809   2.423  0.00  0.00    +0.288 C 
ATOM     20  O   LIG    1        1.130  11.040   3.255  0.00  0.00    -0.253 OA
BRANCH  19  21
ATOM     21  O   LIG    1        0.741  13.131   2.655  0.00  0.00    -0.482 OA
ATOM     22  H   LIG    1        0.416  13.728   2.010  0.00  0.00    +0.295 HD
ENDBRANCH  19  21
ENDBRANCH  18  19
ENDBRANCH   4  18
TORSDOF 4
