REMARK  Name = ZINC28234710
REMARK                            x       y       z     vdW  Elec       q    Type
REMARK                         _______ _______ _______ _____ _____    ______ ____
ROOT
ATOM      1  N   LIG    1        1.775   4.254   0.963  0.00  0.00    +0.387 N 
ATOM      2  H   LIG    1        1.891   3.536   1.788  0.00  0.00    -0.085 HD
ATOM      3  H   LIG    1        1.381   5.203   1.355  0.00  0.00    -0.085 HD
ENDROOT
BRANCH   1  11
ATOM      4  C   LIG    1       -2.562   1.715   1.593  0.00  0.00    +0.000 A 
ATOM      5  C   LIG    1       -1.339   1.399   2.156  0.00  0.00    +0.000 A 
ATOM      6  C   LIG    1       -0.188   2.002   1.686  0.00  0.00    +0.002 A 
ATOM      7  C   LIG    1       -0.255   2.922   0.653  0.00  0.00    -0.058 A 
ATOM      8  C   LIG    1       -1.478   3.238   0.091  0.00  0.00    -0.046 A 
ATOM      9  C   LIG    1       -1.286   4.254  -1.014  0.00  0.00    +0.034 C 
ATOM     10  C   LIG    1        0.116   4.856  -0.768  0.00  0.00    -0.007 C 
ATOM     11  C   LIG    1        0.841   3.710  -0.032  0.00  0.00    -0.040 C 
ATOM     12  C   LIG    1       -2.631   2.632   0.563  0.00  0.00    +0.004 A 
ENDBRANCH   1  11
BRANCH   1  13
ATOM     13  C   LIG    1        3.094   4.503   0.366  0.00  0.00    -0.042 C 
ATOM     14  C   LIG    1        3.930   3.223   0.425  0.00  0.00    -0.013 C 
ATOM     15  C   LIG    1        5.304   3.482  -0.197  0.00  0.00    -0.001 C 
ATOM     16  C   LIG    1        6.014   4.592   0.581  0.00  0.00    +0.002 C 
ATOM     17  C   LIG    1        5.178   5.872   0.521  0.00  0.00    +0.030 C 
ATOM     18  C   LIG    1        3.804   5.613   1.143  0.00  0.00    +0.101 C 
BRANCH  18  19
ATOM     19  O   LIG    1        3.966   5.212   2.505  0.00  0.00    -0.393 OA
ATOM     20  H   LIG    1        4.460   5.885   3.222  0.00  0.00    +0.210 HD
ENDBRANCH  18  19
ENDBRANCH   1  13
TORSDOF 3
