REMARK  Name = ZINC49872225
REMARK                            x       y       z     vdW  Elec       q    Type
REMARK                         _______ _______ _______ _____ _____    ______ ____
ROOT
ATOM      1  C   LIG    1        3.576  -8.357  -6.498  0.00  0.00    +0.114 C 
ATOM      2  C   LIG    1        3.868  -9.700  -6.662  0.00  0.00    +0.034 C 
ENDROOT
BRANCH   2   3
ATOM      3  C   LIG    1        4.434 -10.157  -7.873  0.00  0.00    +0.002 A 
ATOM      4  C   LIG    1        4.454  -9.491  -9.084  0.00  0.00    +0.094 A 
ATOM      5  N   LIG    1        5.083 -10.248 -10.004  0.00  0.00    -0.346 N 
ATOM      6  C   LIG    1        5.505 -11.440  -9.451  0.00  0.00    +0.050 A 
ATOM      7  C   LIG    1        6.185 -12.538  -9.969  0.00  0.00    +0.026 A 
ATOM      8  C   LIG    1        6.489 -13.606  -9.152  0.00  0.00    +0.002 A 
ATOM      9  C   LIG    1        6.113 -13.605  -7.818  0.00  0.00    +0.001 A 
ATOM     10  C   LIG    1        5.435 -12.529  -7.288  0.00  0.00    +0.010 A 
ATOM     11  C   LIG    1        5.128 -11.441  -8.099  0.00  0.00    +0.007 A 
BRANCH   5  12
ATOM     12  C   LIG    1        5.290  -9.859 -11.401  0.00  0.00    +0.120 C 
BRANCH  12  13
ATOM     13  C   LIG    1        4.169 -10.441 -12.264  0.00  0.00    +0.003 C 
BRANCH  13  14
ATOM     14  C   LIG    1        4.385 -10.034 -13.723  0.00  0.00    -0.078 C 
BRANCH  14  15
ATOM     15  N   LIG    1        3.309 -10.593 -14.552  0.00  0.00    +0.376 N 
ATOM     16  H   LIG    1        2.415 -10.304 -14.182  0.00  0.00    -0.083 HD
ATOM     17  C   LIG    1        3.393 -12.060 -14.541  0.00  0.00    -0.097 C 
ATOM     18  C   LIG    1        3.449 -10.105 -15.931  0.00  0.00    -0.097 C 
ENDBRANCH  14  15
ENDBRANCH  13  14
ENDBRANCH  12  13
ENDBRANCH   5  12
ENDBRANCH   2   3
BRANCH   1  21
ATOM     19  N   LIG    1        2.565  -6.595  -5.147  0.00  0.00    -0.311 N 
ATOM     20  H   LIG    1        2.842  -5.953  -5.820  0.00  0.00    +0.149 HD
ATOM     21  C   LIG    1        2.848  -7.903  -5.307  0.00  0.00    +0.254 C 
ATOM     22  O   LIG    1        2.500  -8.709  -4.464  0.00  0.00    -0.269 OA
BRANCH  19  23
ATOM     23  C   LIG    1        1.838  -6.143  -3.959  0.00  0.00    +0.104 C 
BRANCH  23  24
ATOM     24  C   LIG    1        1.648  -4.626  -4.023  0.00  0.00    +0.019 C 
BRANCH  24  25
ATOM     25  C   LIG    1        0.889  -4.154  -2.782  0.00  0.00    +0.002 C 
BRANCH  25  26
ATOM     26  C   LIG    1        0.699  -2.637  -2.846  0.00  0.00    +0.000 C 
BRANCH  26  27
ATOM     27  C   LIG    1       -0.061  -2.165  -1.605  0.00  0.00    -0.000 C 
BRANCH  27  28
ATOM     28  C   LIG    1       -0.251  -0.648  -1.670  0.00  0.00    -0.000 C 
BRANCH  28  30
ATOM     29  C   LIG    1       -1.200   1.341  -0.493  0.00  0.00    +0.004 C 
ATOM     30  C   LIG    1       -1.010  -0.176  -0.428  0.00  0.00    -0.003 C 
ENDBRANCH  28  30
ENDBRANCH  27  28
ENDBRANCH  26  27
ENDBRANCH  25  26
ENDBRANCH  24  25
ENDBRANCH  23  24
ENDBRANCH  19  23
ENDBRANCH   1  21
BRANCH   1  31
ATOM     31  C   LIG    1        3.986  -7.409  -7.491  0.00  0.00    +0.104 C 
ATOM     32  N   LIG    1        4.311  -6.657  -8.278  0.00  0.00    -0.191 NA
ENDBRANCH   1  31
TORSDOF 14
