REMARK  Name = ZINC14962120
REMARK                            x       y       z     vdW  Elec       q    Type
REMARK                         _______ _______ _______ _____ _____    ______ ____
ROOT
ATOM      1  C   LIG    1        3.135  -4.382  -5.713  0.00  0.00    +0.050 A 
ATOM      2  C   LIG    1        3.901  -3.751  -6.650  0.00  0.00    +0.028 A 
ATOM      3  C   LIG    1        4.417  -4.730  -7.506  0.00  0.00    +0.028 A 
ATOM      4  C   LIG    1        3.957  -5.940  -7.075  0.00  0.00    +0.051 A 
ATOM      5  N   LIG    1        3.173  -5.729  -5.969  0.00  0.00    -0.329 N 
ENDROOT
BRANCH   4   6
ATOM      6  C   LIG    1        4.255  -7.250  -7.690  0.00  0.00    +0.017 A 
ATOM      7  C   LIG    1        4.708  -8.309  -6.900  0.00  0.00    +0.011 A 
ATOM      8  C   LIG    1        4.984  -9.529  -7.480  0.00  0.00    +0.001 A 
ATOM      9  C   LIG    1        4.814  -9.706  -8.842  0.00  0.00    +0.001 A 
ATOM     10  C   LIG    1        4.367  -8.662  -9.632  0.00  0.00    +0.020 A 
ATOM     11  C   LIG    1        4.081  -7.437  -9.064  0.00  0.00    +0.050 A 
ATOM     12 CL   LIG    1        3.512  -6.130 -10.054  0.00  0.00    -0.083 Cl
ENDBRANCH   4   6
BRANCH   1  16
ATOM     13  C   LIG    1        1.020  -2.505  -2.543  0.00  0.00    +0.121 A 
ATOM     14  C   LIG    1        0.616  -3.752  -3.003  0.00  0.00    +0.046 A 
ATOM     15  C   LIG    1        1.300  -4.364  -4.031  0.00  0.00    +0.013 A 
ATOM     16  C   LIG    1        2.399  -3.729  -4.611  0.00  0.00    -0.001 A 
ATOM     17  C   LIG    1        2.802  -2.475  -4.147  0.00  0.00    +0.013 A 
ATOM     18  C   LIG    1        2.109  -1.867  -3.122  0.00  0.00    +0.046 A 
BRANCH  13  19
ATOM     19  O   LIG    1        0.343  -1.905  -1.529  0.00  0.00    -0.492 OA
BRANCH  19  20
ATOM     20  C   LIG    1       -0.768  -2.616  -0.980  0.00  0.00    +0.229 C 
BRANCH  20  22
ATOM     21  C   LIG    1       -2.588  -2.550   0.730  0.00  0.00    +0.007 C 
ATOM     22  C   LIG    1       -1.399  -1.789   0.142  0.00  0.00    +0.038 C 
ENDBRANCH  20  22
ENDBRANCH  19  20
ENDBRANCH  13  19
ENDBRANCH   1  16
BRANCH   5  23
ATOM     23  C   LIG    1        2.489  -6.767  -5.194  0.00  0.00    +0.239 C 
BRANCH  23  24
ATOM     24  C   LIG    1        1.160  -7.078  -5.833  0.00  0.00    +0.329 C 
ATOM     25  O   LIG    1        0.817  -6.489  -6.839  0.00  0.00    -0.252 OA
BRANCH  24  26
ATOM     26  N   LIG    1        0.362  -7.998  -5.295  0.00  0.00    -0.003 NA
ATOM     27  C   LIG    1       -0.106  -8.989  -6.043  0.00  0.00    +0.377 C 
BRANCH  27  28
ATOM     28  N   LIG    1       -1.018  -9.860  -5.527  0.00  0.00    -0.291 N 
ATOM     29  H   LIG    1       -1.360 -10.585  -6.074  0.00  0.00    +0.254 HD
ATOM     30  H   LIG    1       -1.325  -9.755  -4.613  0.00  0.00    +0.254 HD
ENDBRANCH  27  28
BRANCH  27  31
ATOM     31  N   LIG    1        0.326  -9.137  -7.327  0.00  0.00    -0.277 N 
ATOM     32  H   LIG    1        1.030  -8.565  -7.670  0.00  0.00    +0.258 HD
BRANCH  31  33
ATOM     33  C   LIG    1       -0.274 -10.159  -8.189  0.00  0.00    +0.198 C 
BRANCH  33  34
ATOM     34  C   LIG    1        0.387 -10.113  -9.568  0.00  0.00    +0.065 C 
BRANCH  34  35
ATOM     35  C   LIG    1       -0.239 -11.181 -10.468  0.00  0.00    +0.159 C 
BRANCH  35  36
ATOM     36  O   LIG    1        0.377 -11.139 -11.757  0.00  0.00    -0.395 OA
ATOM     37  H   LIG    1        0.029 -11.790 -12.381  0.00  0.00    +0.209 HD
ENDBRANCH  35  36
ENDBRANCH  34  35
ENDBRANCH  33  34
ENDBRANCH  31  33
ENDBRANCH  27  31
ENDBRANCH  24  26
ENDBRANCH  23  24
ENDBRANCH   5  23
TORSDOF 14
