REMARK  Name = ZINC20639542
REMARK                            x       y       z     vdW  Elec       q    Type
REMARK                         _______ _______ _______ _____ _____    ______ ____
ROOT
ATOM      1  C   LIG    1        2.643  -4.663   3.284  0.00  0.00    +0.121 A 
ATOM      2  C   LIG    1        3.857  -5.276   3.014  0.00  0.00    +0.046 A 
ATOM      3  C   LIG    1        4.679  -5.668   4.054  0.00  0.00    +0.007 A 
ATOM      4  C   LIG    1        4.290  -5.449   5.363  0.00  0.00    -0.043 A 
ATOM      5  C   LIG    1        3.080  -4.838   5.635  0.00  0.00    +0.007 A 
ATOM      6  C   LIG    1        2.258  -4.439   4.598  0.00  0.00    +0.046 A 
ENDROOT
BRANCH   1   7
ATOM      7  O   LIG    1        1.834  -4.277   2.263  0.00  0.00    -0.491 OA
BRANCH   7   8
ATOM      8  C   LIG    1        2.294  -4.539   0.936  0.00  0.00    +0.244 C 
BRANCH   8   9
ATOM      9  C   LIG    1        1.257  -4.037  -0.071  0.00  0.00    +0.125 C 
BRANCH   9  14
ATOM     10  C   LIG    1        0.809   1.532  -0.904  0.00  0.00    +0.105 C 
ATOM     11  N   LIG    1        0.920   0.070  -1.001  0.00  0.00    -0.303 NA
ATOM     12  C   LIG    1        2.183  -0.403  -0.419  0.00  0.00    +0.099 C 
ATOM     13  C   LIG    1        2.296  -1.917  -0.611  0.00  0.00    +0.100 C 
ATOM     14  N   LIG    1        1.147  -2.576   0.026  0.00  0.00    -0.297 NA
ATOM     15  C   LIG    1       -0.117  -2.103  -0.556  0.00  0.00    +0.100 C 
ATOM     16  C   LIG    1       -0.229  -0.589  -0.364  0.00  0.00    +0.099 C 
ENDBRANCH   9  14
ENDBRANCH   8   9
ENDBRANCH   7   8
ENDBRANCH   1   7
BRANCH   4  17
ATOM     17  C   LIG    1        5.188  -5.877   6.495  0.00  0.00    +0.070 C 
BRANCH  17  18
ATOM     18  C   LIG    1        6.123  -4.750   6.849  0.00  0.00    -0.043 A 
ATOM     19  C   LIG    1        7.348  -4.644   6.218  0.00  0.00    +0.004 A 
ATOM     20  C   LIG    1        8.207  -3.610   6.542  0.00  0.00    +0.000 A 
ATOM     21  C   LIG    1        7.839  -2.682   7.498  0.00  0.00    +0.000 A 
ATOM     22  C   LIG    1        6.614  -2.787   8.129  0.00  0.00    +0.000 A 
ATOM     23  C   LIG    1        5.754  -3.818   7.801  0.00  0.00    +0.004 A 
ENDBRANCH  17  18
ENDBRANCH   4  17
TORSDOF 6
