REMARK  Name = ZINC71297124
REMARK                            x       y       z     vdW  Elec       q    Type
REMARK                         _______ _______ _______ _____ _____    ______ ____
ROOT
ATOM      1  C   LIG    1        6.279   2.155   1.288  0.00  0.00    +0.090 A 
ATOM      2  C   LIG    1        7.183   1.685   0.329  0.00  0.00    +0.141 A 
ATOM      3  N   LIG    1        8.440   2.082   0.352  0.00  0.00    -0.236 NA
ATOM      4  C   LIG    1        8.854   2.930   1.288  0.00  0.00    +0.147 A 
ATOM      5  C   LIG    1        7.949   3.404   2.252  0.00  0.00    +0.166 A 
ATOM      6  N   LIG    1        6.681   3.005   2.221  0.00  0.00    -0.237 NA
ENDROOT
BRANCH   1  10
ATOM      7  C   LIG    1        2.228   0.864   1.198  0.00  0.00    +0.088 A 
ATOM      8  C   LIG    1        3.146   0.318   0.318  0.00  0.00    +0.027 A 
ATOM      9  C   LIG    1        4.461   0.733   0.343  0.00  0.00    +0.012 A 
ATOM     10  C   LIG    1        4.866   1.705   1.256  0.00  0.00    +0.002 A 
ATOM     11  C   LIG    1        3.937   2.252   2.139  0.00  0.00    +0.012 A 
ATOM     12  C   LIG    1        2.623   1.833   2.102  0.00  0.00    +0.027 A 
BRANCH   7  13
ATOM     13  S   LIG    1        0.550   0.329   1.161  0.00  0.00    -0.002 S 
ATOM     14  O   LIG    1        0.602  -0.992   0.640  0.00  0.00    -0.169 OA
ATOM     15  O   LIG    1        0.063   0.572   2.473  0.00  0.00    -0.169 OA
BRANCH  13  17
ATOM     16  C   LIG    1       -0.037   2.889   0.395  0.00  0.00    +0.030 C 
ATOM     17  C   LIG    1       -0.266   1.435  -0.023  0.00  0.00    +0.116 C 
BRANCH  17  18
ATOM     18  C   LIG    1       -1.767   1.141  -0.045  0.00  0.00    -0.053 C 
BRANCH  18  19
ATOM     19  N   LIG    1       -1.987  -0.255  -0.447  0.00  0.00    +0.377 N 
ATOM     20  H   LIG    1       -1.466  -0.867   0.164  0.00  0.00    -0.083 HD
ATOM     21  C   LIG    1       -1.535  -0.443  -1.831  0.00  0.00    -0.097 C 
ATOM     22  C   LIG    1       -3.418  -0.572  -0.352  0.00  0.00    -0.097 C 
ENDBRANCH  18  19
ENDBRANCH  17  18
ENDBRANCH  13  17
ENDBRANCH   7  13
ENDBRANCH   1  10
BRANCH   5  23
ATOM     23  C   LIG    1        8.404   4.347   3.294  0.00  0.00    +0.270 C 
ATOM     24  N   LIG    1        7.563   4.718   4.280  0.00  0.00    -0.280 N 
ATOM     25  H   LIG    1        6.686   4.309   4.349  0.00  0.00    +0.155 HD
ATOM     26  O   LIG    1        9.536   4.787   3.263  0.00  0.00    -0.268 OA
BRANCH  24  27
ATOM     27  C   LIG    1        7.955   5.693   5.203  0.00  0.00    +0.034 A 
ATOM     28  C   LIG    1        7.513   5.625   6.518  0.00  0.00    +0.023 A 
ATOM     29  C   LIG    1        7.902   6.589   7.426  0.00  0.00    +0.002 A 
ATOM     30  C   LIG    1        8.730   7.622   7.028  0.00  0.00    +0.000 A 
ATOM     31  C   LIG    1        9.172   7.694   5.720  0.00  0.00    +0.002 A 
ATOM     32  C   LIG    1        8.791   6.729   4.808  0.00  0.00    +0.023 A 
ENDBRANCH  24  27
ENDBRANCH   5  23
BRANCH   4  33
ATOM     33  N   LIG    1       10.172   3.345   1.312  0.00  0.00    -0.341 N 
ATOM     34  H   LIG    1       10.405   4.195   1.717  0.00  0.00    +0.144 HD
ATOM     35  H   LIG    1       10.864   2.786   0.924  0.00  0.00    +0.144 HD
ENDBRANCH   4  33
TORSDOF 8
