REMARK  Name = ZINC22309215
REMARK                            x       y       z     vdW  Elec       q    Type
REMARK                         _______ _______ _______ _____ _____    ______ ____
ROOT
ATOM      1  C   LIG    1        3.459  -3.187  -1.004  0.00  0.00    +0.235 C 
ATOM      2  N   LIG    1        3.328  -2.436   0.108  0.00  0.00    -0.285 N 
ATOM      3  H   LIG    1        2.961  -2.893   1.040  0.00  0.00    +0.151 HD
ATOM      4  O   LIG    1        3.863  -2.683  -2.031  0.00  0.00    -0.274 OA
ENDROOT
BRANCH   2   5
ATOM      5  C   LIG    1        3.672  -1.013   0.076  0.00  0.00    +0.279 C 
ATOM      6  C   LIG    1        4.484  -0.664   1.294  0.00  0.00    +0.262 C 
ATOM      7  N   LIG    1        4.981   0.557   1.477  0.00  0.00    -0.271 N 
ATOM      8  C   LIG    1        5.705   0.811   2.725  0.00  0.00    +0.138 C 
ATOM      9  C   LIG    1        4.868   1.607   0.579  0.00  0.00    +0.045 A 
ATOM     10  C   LIG    1        5.988   2.423   0.401  0.00  0.00    +0.024 A 
ATOM     11  C   LIG    1        5.948   3.489  -0.469  0.00  0.00    +0.002 A 
ATOM     12  C   LIG    1        4.792   3.763  -1.181  0.00  0.00    +0.001 A 
ATOM     13  C   LIG    1        3.680   2.969  -1.021  0.00  0.00    +0.012 A 
ATOM     14  C   LIG    1        3.704   1.879  -0.137  0.00  0.00    +0.022 A 
ATOM     15  C   LIG    1        2.480   1.072  -0.016  0.00  0.00    +0.077 C 
ATOM     16  O   LIG    1        4.690  -1.517   2.131  0.00  0.00    -0.271 OA
ATOM     17  N   LIG    1        2.450  -0.210   0.081  0.00  0.00    -0.251 NA
BRANCH  15  18
ATOM     18  C   LIG    1        1.185   1.791   0.000  0.00  0.00    +0.001 A 
ATOM     19  C   LIG    1        1.131   3.129   0.391  0.00  0.00    +0.010 A 
ATOM     20  C   LIG    1       -0.079   3.791   0.411  0.00  0.00    +0.001 A 
ATOM     21  C   LIG    1       -1.236   3.134   0.033  0.00  0.00    +0.000 A 
ATOM     22  C   LIG    1       -1.190   1.807  -0.356  0.00  0.00    +0.001 A 
ATOM     23  C   LIG    1        0.014   1.132  -0.374  0.00  0.00    +0.010 A 
ENDBRANCH  15  18
ENDBRANCH   2   5
BRANCH   1  25
ATOM     24  C   LIG    1        3.979  -5.364   0.062  0.00  0.00    +0.038 C 
ATOM     25  C   LIG    1        3.104  -4.651  -0.971  0.00  0.00    +0.156 C 
BRANCH  25  26
ATOM     26  N   LIG    1        3.332  -5.238  -2.294  0.00  0.00    -0.304 N 
ATOM     27  H   LIG    1        4.059  -4.781  -2.981  0.00  0.00    +0.149 HD
ATOM     28  C   LIG    1        2.651  -6.339  -2.669  0.00  0.00    +0.218 C 
ATOM     29  O   LIG    1        1.850  -6.844  -1.911  0.00  0.00    -0.275 OA
BRANCH  28  30
ATOM     30  C   LIG    1        2.886  -6.943  -4.029  0.00  0.00    +0.131 C 
BRANCH  30  31
ATOM     31  C   LIG    1        2.008  -8.156  -4.199  0.00  0.00    -0.033 A 
ATOM     32  C   LIG    1        2.473  -9.403  -3.826  0.00  0.00    +0.042 A 
ATOM     33  C   LIG    1        1.664 -10.517  -3.976  0.00  0.00    +0.126 A 
ATOM     34  F   LIG    1        2.117 -11.735  -3.605  0.00  0.00    -0.205 F 
ATOM     35  C   LIG    1        0.394 -10.383  -4.510  0.00  0.00    +0.076 A 
ATOM     36  C   LIG    1       -0.068  -9.135  -4.888  0.00  0.00    +0.126 A 
ATOM     37  F   LIG    1       -1.307  -9.003  -5.410  0.00  0.00    -0.205 F 
ATOM     38  C   LIG    1        0.740  -8.021  -4.732  0.00  0.00    +0.042 A 
ENDBRANCH  30  31
ENDBRANCH  28  30
ENDBRANCH  25  26
ENDBRANCH   1  25
TORSDOF 6
