REMARK  Name = ZINC18098320
REMARK                            x       y       z     vdW  Elec       q    Type
REMARK                         _______ _______ _______ _____ _____    ______ ____
ROOT
ATOM      1  C   LIG    1        9.551   6.653  -0.209  0.00  0.00    +0.003 C 
ENDROOT
BRANCH   1   2
ATOM      2  C   LIG    1       10.435   5.513  -0.719  0.00  0.00    +0.003 C 
BRANCH   2   3
ATOM      3  C   LIG    1       11.560   6.087  -1.582  0.00  0.00    +0.037 C 
BRANCH   3   4
ATOM      4  C   LIG    1       12.444   4.947  -2.092  0.00  0.00    +0.196 C 
BRANCH   4   5
ATOM      5  N   LIG    1       13.521   5.497  -2.919  0.00  0.00    -0.276 N 
ATOM      6  H   LIG    1       13.581   6.454  -3.064  0.00  0.00    +0.258 HD
BRANCH   5   7
ATOM      7  C   LIG    1       14.447   4.656  -3.490  0.00  0.00    +0.388 C 
ATOM      8  N   LIG    1       14.296   3.365  -3.402  0.00  0.00    -0.129 NA
ATOM      9  H   LIG    1       14.985   2.772  -3.741  0.00  0.00    +0.306 HD
BRANCH   7  10
ATOM     10  N   LIG    1       15.536   5.179  -4.156  0.00  0.00    -0.186 N 
ATOM     11  H   LIG    1       16.134   4.592  -4.644  0.00  0.00    +0.271 HD
BRANCH  10  12
ATOM     12  C   LIG    1       15.774   6.535  -4.128  0.00  0.00    +0.394 C 
ATOM     13  N   LIG    1       15.038   7.315  -3.372  0.00  0.00    -0.073 NA
BRANCH  13  14
ATOM     14  C   LIG    1       15.329   8.650  -3.277  0.00  0.00    +0.142 A 
ATOM     15  C   LIG    1       16.599   9.064  -2.874  0.00  0.00    +0.047 A 
ATOM     16  C   LIG    1       16.886  10.410  -2.781  0.00  0.00    +0.023 A 
ATOM     17  C   LIG    1       15.917  11.350  -3.086  0.00  0.00    +0.041 A 
ATOM     18 CL   LIG    1       16.286  13.042  -2.966  0.00  0.00    -0.084 Cl
ATOM     19  C   LIG    1       14.654  10.946  -3.486  0.00  0.00    +0.023 A 
ATOM     20  C   LIG    1       14.357   9.603  -3.588  0.00  0.00    +0.047 A 
ENDBRANCH  13  14
BRANCH  12  21
ATOM     21  N   LIG    1       16.781   7.071  -4.891  0.00  0.00    -0.288 N 
ATOM     22  H   LIG    1       17.520   6.513  -5.179  0.00  0.00    +0.255 HD
ATOM     23  H   LIG    1       16.753   8.008  -5.141  0.00  0.00    +0.255 HD
ENDBRANCH  12  21
ENDBRANCH  10  12
ENDBRANCH   7  10
ENDBRANCH   5   7
ENDBRANCH   4   5
ENDBRANCH   3   4
ENDBRANCH   2   3
ENDBRANCH   1   2
BRANCH   1  24
ATOM     24  C   LIG    1        8.426   6.079   0.655  0.00  0.00    +0.037 C 
BRANCH  24  25
ATOM     25  C   LIG    1        7.542   7.219   1.165  0.00  0.00    +0.196 C 
BRANCH  25  26
ATOM     26  N   LIG    1        6.465   6.669   1.992  0.00  0.00    -0.276 N 
ATOM     27  H   LIG    1        6.405   5.712   2.136  0.00  0.00    +0.258 HD
BRANCH  26  29
ATOM     28  N   LIG    1        4.608   7.016   3.349  0.00  0.00    -0.006 NA
ATOM     29  C   LIG    1        5.545   7.505   2.559  0.00  0.00    +0.389 C 
BRANCH  28  30
ATOM     30  C   LIG    1        4.612   5.706   3.670  0.00  0.00    +0.394 C 
ATOM     31  N   LIG    1        5.740   5.108   3.962  0.00  0.00    -0.288 N 
ATOM     32  H   LIG    1        5.742   4.168   4.205  0.00  0.00    +0.255 HD
ATOM     33  H   LIG    1        6.574   5.604   3.937  0.00  0.00    +0.255 HD
BRANCH  30  34
ATOM     34  N   LIG    1        3.428   4.996   3.690  0.00  0.00    -0.243 N 
ATOM     35  H   LIG    1        3.435   4.047   3.890  0.00  0.00    +0.265 HD
BRANCH  34  37
ATOM     36  C   LIG    1        2.026   6.957   3.833  0.00  0.00    +0.043 A 
ATOM     37  C   LIG    1        2.218   5.645   3.421  0.00  0.00    +0.100 A 
ATOM     38  C   LIG    1        1.206   4.978   2.742  0.00  0.00    +0.043 A 
ATOM     39  C   LIG    1        0.013   5.622   2.478  0.00  0.00    +0.023 A 
ATOM     40  C   LIG    1       -0.175   6.930   2.889  0.00  0.00    +0.041 A 
ATOM     41 CL   LIG    1       -1.675   7.736   2.554  0.00  0.00    -0.084 Cl
ATOM     42  C   LIG    1        0.831   7.596   3.566  0.00  0.00    +0.023 A 
ENDBRANCH  34  37
ENDBRANCH  30  34
ENDBRANCH  28  30
BRANCH  29  43
ATOM     43  N   LIG    1        5.596   8.848   2.309  0.00  0.00    -0.289 N 
ATOM     44  H   LIG    1        6.285   9.208   1.729  0.00  0.00    +0.255 HD
ATOM     45  H   LIG    1        4.942   9.441   2.712  0.00  0.00    +0.255 HD
ENDBRANCH  29  43
ENDBRANCH  26  29
ENDBRANCH  25  26
ENDBRANCH  24  25
ENDBRANCH   1  24
TORSDOF 17
