REMARK  Name = ZINC16991207
REMARK                            x       y       z     vdW  Elec       q    Type
REMARK                         _______ _______ _______ _____ _____    ______ ____
ROOT
ATOM      1  C   LIG    1       -0.970   2.128   1.041  0.00  0.00    +0.162 A 
ATOM      2  C   LIG    1        0.137   1.340   0.793  0.00  0.00    +0.057 A 
ATOM      3  C   LIG    1        1.295   1.915   0.256  0.00  0.00    -0.020 A 
ATOM      4  C   LIG    1        1.326   3.287  -0.022  0.00  0.00    +0.012 A 
ATOM      5  C   LIG    1        0.220   4.066   0.234  0.00  0.00    +0.050 A 
ATOM      6  C   LIG    1       -0.928   3.495   0.767  0.00  0.00    +0.158 A 
ENDROOT
BRANCH   3   7
ATOM      7  C   LIG    1        2.473   1.082  -0.016  0.00  0.00    +0.028 C 
ATOM      8  C   LIG    1        3.527   1.598  -0.698  0.00  0.00    +0.074 C 
ATOM      9  C   LIG    1        4.866   1.023  -0.938  0.00  0.00    +0.217 C 
ATOM     10  N   LIG    1        5.708   1.758  -1.646  0.00  0.00    -0.165 NA
ATOM     11  C   LIG    1        5.357   2.969  -2.123  0.00  0.00    +0.139 C 
ATOM     12  S   LIG    1        6.296   4.059  -3.051  0.00  0.00    -0.026 S 
ATOM     13  S   LIG    1        3.674   3.159  -1.558  0.00  0.00    -0.060 S 
BRANCH   9  14
ATOM     14  O   LIG    1        5.179  -0.071  -0.506  0.00  0.00    -0.493 OA
ATOM     15  H   LIG    1        4.563  -0.571  -0.007  0.00  0.00    +0.294 HD
ENDBRANCH   9  14
ENDBRANCH   3   7
BRANCH   1  17
ATOM     16  C   LIG    1       -2.068   0.168   1.819  0.00  0.00    +0.277 C 
ATOM     17  O   LIG    1       -2.098   1.573   1.557  0.00  0.00    -0.491 OA
ENDBRANCH   1  17
BRANCH   6  18
ATOM     18  O   LIG    1       -2.017   4.269   1.016  0.00  0.00    -0.503 OA
ATOM     19  H   LIG    1       -1.986   5.347   0.800  0.00  0.00    +0.292 HD
ENDBRANCH   6  18
TORSDOF 4
