REMARK  Name = ZINC26420394
REMARK                            x       y       z     vdW  Elec       q    Type
REMARK                         _______ _______ _______ _____ _____    ______ ____
ROOT
ATOM      1  C   LIG    1       -0.017   1.390   0.010  0.00  0.00    +0.012 A 
ATOM      2  C   LIG    1        1.168   2.094   0.002  0.00  0.00    +0.027 A 
ATOM      3  C   LIG    1        2.381   1.416  -0.013  0.00  0.00    +0.047 A 
ATOM      4  C   LIG    1        2.402   0.027  -0.022  0.00  0.00    +0.027 A 
ATOM      5  C   LIG    1        1.220  -0.682  -0.014  0.00  0.00    +0.012 A 
ATOM      6  C   LIG    1        0.002  -0.004   0.002  0.00  0.00    +0.002 A 
ENDROOT
BRANCH   3   7
ATOM      7  N   LIG    1        3.584   2.134  -0.022  0.00  0.00    -0.307 N 
ATOM      8  C   LIG    1        3.719   3.499  -0.010  0.00  0.00    +0.110 A 
ATOM      9  C   LIG    1        5.040   3.760  -0.023  0.00  0.00    +0.102 A 
ATOM     10  N   LIG    1        5.698   2.592  -0.043  0.00  0.00    -0.352 N 
ATOM     11  H   LIG    1        6.662   2.492  -0.056  0.00  0.00    +0.166 HD
ATOM     12  C   LIG    1        4.837   1.611  -0.037  0.00  0.00    +0.178 A 
ENDBRANCH   3   7
BRANCH   6  13
ATOM     13  C   LIG    1       -1.271  -0.764   0.011  0.00  0.00    +0.094 A 
ATOM     14  N   LIG    1       -2.431  -0.120   0.031  0.00  0.00    -0.146 NA
ATOM     15  N   LIG    1       -3.555  -0.740   0.034  0.00  0.00    -0.111 NA
ATOM     16  C   LIG    1       -3.633  -2.061   0.028  0.00  0.00    +0.232 A 
ATOM     17  C   LIG    1       -2.468  -2.826   0.012  0.00  0.00    +0.071 A 
ATOM     18  C   LIG    1       -1.254  -2.163   0.003  0.00  0.00    +0.035 A 
BRANCH  16  19
ATOM     19  O   LIG    1       -4.845  -2.670   0.037  0.00  0.00    -0.491 OA
ATOM     20  H   LIG    1       -4.900  -3.605   0.032  0.00  0.00    +0.294 HD
ENDBRANCH  16  19
ENDBRANCH   6  13
TORSDOF 3
