REMARK  Name = ZINC19361903
REMARK                            x       y       z     vdW  Elec       q    Type
REMARK                         _______ _______ _______ _____ _____    ______ ____
ROOT
ATOM      1  N   LIG    1        1.946  -4.753  -7.920  0.00  0.00    -0.300 NA
ATOM      2  C   LIG    1        3.220  -4.032  -7.795  0.00  0.00    +0.083 C 
ATOM      3  C   LIG    1        3.888  -4.402  -6.469  0.00  0.00    -0.004 C 
ATOM      4  C   LIG    1        5.357  -4.750  -6.718  0.00  0.00    -0.081 C 
ATOM      5  N   LIG    1        5.677  -6.023  -6.059  0.00  0.00    +0.380 N 
ATOM      6  H   LIG    1        4.822  -6.497  -5.809  0.00  0.00    -0.086 HD
ATOM      7  H   LIG    1        6.218  -5.844  -5.227  0.00  0.00    -0.086 HD
ATOM      8  C   LIG    1        6.454  -6.868  -6.976  0.00  0.00    -0.067 C 
ATOM      9  C   LIG    1        5.949  -8.310  -6.893  0.00  0.00    +0.062 C 
ATOM     10  N   LIG    1        5.766  -8.843  -8.249  0.00  0.00    -0.318 NA
ATOM     11  H   LIG    1        5.849  -8.112  -8.940  0.00  0.00    +0.122 HD
ATOM     12  C   LIG    1        4.477  -9.538  -8.372  0.00  0.00    +0.079 C 
ATOM     13  C   LIG    1        3.785  -9.104  -9.666  0.00  0.00    -0.004 C 
ATOM     14  C   LIG    1        2.325  -8.756  -9.371  0.00  0.00    -0.081 C 
ATOM     15  N   LIG    1        1.951  -7.545 -10.114  0.00  0.00    +0.380 N 
ATOM     16  H   LIG    1        1.399  -7.801 -10.919  0.00  0.00    -0.086 HD
ATOM     17  H   LIG    1        2.785  -7.065 -10.417  0.00  0.00    -0.086 HD
ATOM     18  C   LIG    1        1.166  -6.659  -9.243  0.00  0.00    -0.067 C 
ATOM     19  C   LIG    1        1.753  -5.247  -9.289  0.00  0.00    +0.066 C 
ENDROOT
BRANCH   1  20
ATOM     20  C   LIG    1        1.866  -5.851  -6.947  0.00  0.00    +0.119 C 
BRANCH  20  24
ATOM     21  C   LIG    1       -2.152  -7.290  -6.752  0.00  0.00    -0.034 A 
ATOM     22  C   LIG    1       -1.098  -8.146  -6.495  0.00  0.00    +0.005 A 
ATOM     23  C   LIG    1        0.202  -7.681  -6.559  0.00  0.00    +0.005 A 
ATOM     24  C   LIG    1        0.448  -6.359  -6.879  0.00  0.00    -0.033 A 
ATOM     25  C   LIG    1       -0.606  -5.502  -7.136  0.00  0.00    +0.005 A 
ATOM     26  C   LIG    1       -1.906  -5.969  -7.077  0.00  0.00    +0.005 A 
BRANCH  21  27
ATOM     27  C   LIG    1       -3.569  -7.797  -6.683  0.00  0.00    +0.116 C 
BRANCH  27  28
ATOM     28  N   LIG    1       -3.973  -8.303  -8.001  0.00  0.00    -0.307 NA
ATOM     29  H   LIG    1       -3.335  -9.014  -8.326  0.00  0.00    +0.123 HD
BRANCH  28  30
ATOM     30  C   LIG    1       -5.352  -8.807  -7.972  0.00  0.00    +0.136 C 
BRANCH  30  35
ATOM     31  C   LIG    1       -5.942 -11.119 -10.890  0.00  0.00    +0.003 A 
ATOM     32  C   LIG    1       -6.420 -10.204 -11.816  0.00  0.00    +0.020 A 
ATOM     33  C   LIG    1       -6.531  -8.875 -11.453  0.00  0.00    +0.111 A 
ATOM     34  N   LIG    1       -6.188  -8.475 -10.244  0.00  0.00    -0.259 NA
ATOM     35  C   LIG    1       -5.730  -9.317  -9.339  0.00  0.00    +0.055 A 
ATOM     36  C   LIG    1       -5.592 -10.661  -9.629  0.00  0.00    +0.024 A 
ENDBRANCH  30  35
ENDBRANCH  28  30
ENDBRANCH  27  28
ENDBRANCH  21  27
ENDBRANCH  20  24
ENDBRANCH   1  20
TORSDOF 6
