REMARK  Name = ZINC13800623
REMARK                            x       y       z     vdW  Elec       q    Type
REMARK                         _______ _______ _______ _____ _____    ______ ____
ROOT
ATOM      1  N   LIG    1       -1.199  -0.722   0.010  0.00  0.00    -0.284 N 
ATOM      2  H   LIG    1       -2.044  -0.253   0.098  0.00  0.00    +0.155 HD
ATOM      3  C   LIG    1       -1.183  -2.065  -0.099  0.00  0.00    +0.234 C 
ATOM      4  O   LIG    1       -0.125  -2.659  -0.113  0.00  0.00    -0.274 OA
ENDROOT
BRANCH   1  10
ATOM      5  C   LIG    1        1.072  -0.453  -0.766  0.00  0.00    +0.025 A 
ATOM      6  C   LIG    1        2.256   0.259  -0.778  0.00  0.00    +0.030 A 
ATOM      7  C   LIG    1        2.376   1.416  -0.032  0.00  0.00    +0.105 A 
ATOM      8  C   LIG    1        1.312   1.866   0.729  0.00  0.00    +0.030 A 
ATOM      9  C   LIG    1        0.126   1.160   0.744  0.00  0.00    +0.025 A 
ATOM     10  C   LIG    1        0.002  -0.004  -0.004  0.00  0.00    +0.034 A 
BRANCH   7  11
ATOM     11  S   LIG    1        3.889   2.320  -0.048  0.00  0.00    +0.056 S 
ATOM     12  O   LIG    1        4.909   1.398  -0.406  0.00  0.00    -0.153 OA
ATOM     13  O   LIG    1        3.928   3.069   1.159  0.00  0.00    -0.153 OA
BRANCH  11  14
ATOM     14  N   LIG    1        3.789   3.419  -1.284  0.00  0.00    -0.204 NA
ATOM     15  H   LIG    1        4.530   4.019  -1.460  0.00  0.00    +0.144 HD
ATOM     16  H   LIG    1        2.989   3.462  -1.831  0.00  0.00    +0.144 HD
ENDBRANCH  11  14
ENDBRANCH   7  11
ENDBRANCH   1  10
BRANCH   3  17
ATOM     17  C   LIG    1       -2.478  -2.828  -0.204  0.00  0.00    +0.200 C 
BRANCH  17  18
ATOM     18  N   LIG    1       -2.192  -4.261  -0.311  0.00  0.00    -0.308 N 
ATOM     19  H   LIG    1       -1.274  -4.575  -0.307  0.00  0.00    +0.149 HD
ATOM     20  C   LIG    1       -3.205  -5.144  -0.417  0.00  0.00    +0.196 C 
ATOM     21  O   LIG    1       -4.353  -4.752  -0.422  0.00  0.00    -0.278 OA
BRANCH  20  22
ATOM     22  C   LIG    1       -2.912  -6.618  -0.527  0.00  0.00    +0.011 C 
BRANCH  22  23
ATOM     23  N   LIG    1       -4.174  -7.362  -0.629  0.00  0.00    +0.384 N 
ATOM     24  H   LIG    1       -3.978  -8.349  -0.704  0.00  0.00    -0.089 HD
ATOM     25  H   LIG    1       -4.679  -7.058  -1.448  0.00  0.00    -0.089 HD
ATOM     26  H   LIG    1       -4.733  -7.192   0.193  0.00  0.00    -0.089 HD
ENDBRANCH  22  23
ENDBRANCH  20  22
ENDBRANCH  17  18
ENDBRANCH   3  17
TORSDOF 7
