REMARK  Name = ZINC13777007
REMARK                            x       y       z     vdW  Elec       q    Type
REMARK                         _______ _______ _______ _____ _____    ______ ____
ROOT
ATOM      1  N   LIG    1       -0.069   5.244   0.029  0.00  0.00    -0.202 N 
ATOM      2  C   LIG    1       -0.090   6.010  -1.076  0.00  0.00    +0.258 C 
ATOM      3  C   LIG    1       -0.106   7.428  -0.668  0.00  0.00    +0.050 A 
ATOM      4  C   LIG    1       -0.129   8.633  -1.355  0.00  0.00    +0.017 A 
ATOM      5  C   LIG    1       -0.139   9.825  -0.654  0.00  0.00    +0.046 A 
ATOM      6  C   LIG    1       -0.125   9.823   0.735  0.00  0.00    +0.118 A 
ATOM      7  C   LIG    1       -0.101   8.620   1.437  0.00  0.00    +0.059 A 
ATOM      8  C   LIG    1       -0.092   7.423   0.743  0.00  0.00    +0.053 A 
ATOM      9  O   LIG    1       -0.097   5.602  -2.221  0.00  0.00    -0.269 OA
ATOM     10  C   LIG    1       -0.074   5.999   1.142  0.00  0.00    +0.258 C 
ATOM     11  O   LIG    1       -0.063   5.582   2.283  0.00  0.00    -0.269 OA
ENDROOT
BRANCH   1  17
ATOM     12  C   LIG    1        1.161   3.163   0.007  0.00  0.00    -0.023 A 
ATOM     13  C   LIG    1        1.176   1.782   0.000  0.00  0.00    +0.006 A 
ATOM     14  C   LIG    1       -0.013   1.076   0.008  0.00  0.00    +0.001 A 
ATOM     15  C   LIG    1       -1.220   1.749   0.017  0.00  0.00    +0.006 A 
ATOM     16  C   LIG    1       -1.242   3.130   0.030  0.00  0.00    -0.023 A 
ATOM     17  C   LIG    1       -0.050   3.842   0.022  0.00  0.00    +0.051 A 
BRANCH  12  19
ATOM     18  C   LIG    1        3.275   3.566   1.240  0.00  0.00    +0.012 C 
ATOM     19  C   LIG    1        2.457   3.932  -0.000  0.00  0.00    +0.015 C 
ATOM     20  C   LIG    1        3.252   3.578  -1.258  0.00  0.00    +0.012 C 
ENDBRANCH  12  19
BRANCH  16  21
ATOM     21  C   LIG    1       -2.558   3.864   0.045  0.00  0.00    +0.015 C 
ATOM     22  C   LIG    1       -3.344   3.476   1.300  0.00  0.00    +0.012 C 
ATOM     23  C   LIG    1       -3.366   3.488  -1.198  0.00  0.00    +0.012 C 
ENDBRANCH  16  21
ENDBRANCH   1  17
BRANCH   6  24
ATOM     24  O   LIG    1       -0.134  10.999   1.411  0.00  0.00    -0.507 OA
ATOM     25  H   LIG    1       -1.019  11.329   1.616  0.00  0.00    +0.292 HD
ENDBRANCH   6  24
TORSDOF 4
