REMARK  Name = ZINC71294766
REMARK                            x       y       z     vdW  Elec       q    Type
REMARK                         _______ _______ _______ _____ _____    ______ ____
ROOT
ATOM      1  C   LIG    1       -0.070   1.260  -0.094  0.00  0.00    -0.020 C 
ATOM      2  C   LIG    1        1.385   1.773  -0.207  0.00  0.00    -0.006 C 
ATOM      3  C   LIG    1        2.193   0.694   0.557  0.00  0.00    +0.041 C 
ATOM      4  N   LIG    1        1.501  -0.569   0.195  0.00  0.00    +0.388 N 
ATOM      5  H   LIG    1        1.694  -1.282   0.882  0.00  0.00    -0.085 HD
ATOM      6  H   LIG    1        1.796  -0.877  -0.720  0.00  0.00    -0.085 HD
ATOM      7  C   LIG    1        0.057  -0.249   0.184  0.00  0.00    -0.081 C 
ENDROOT
BRANCH   3   8
ATOM      8  C   LIG    1        3.625   0.673   0.090  0.00  0.00    +0.220 C 
ATOM      9  N   LIG    1        3.958  -0.013  -0.990  0.00  0.00    -0.294 N 
ATOM     10  H   LIG    1        4.891  -0.094  -1.244  0.00  0.00    +0.300 HD
ATOM     11  H   LIG    1        3.270  -0.435  -1.527  0.00  0.00    +0.300 HD
BRANCH   8  12
ATOM     12  N   LIG    1        4.549   1.340   0.760  0.00  0.00    -0.255 N 
ATOM     13  H   LIG    1        5.471   1.326   0.460  0.00  0.00    +0.288 HD
ATOM     14  H   LIG    1        4.304   1.843   1.553  0.00  0.00    +0.288 HD
ENDBRANCH   8  12
ENDBRANCH   3   8
TORSDOF 2
