REMARK  Name = ZINC18322617
REMARK                            x       y       z     vdW  Elec       q    Type
REMARK                         _______ _______ _______ _____ _____    ______ ____
ROOT
ATOM      1  N   LIG    1        3.644  -0.611  -0.005  0.00  0.00    -0.209 N 
ATOM      2  C   LIG    1        4.829   0.004  -0.109  0.00  0.00    +0.228 C 
ATOM      3  C   LIG    1        5.930  -1.034  -0.110  0.00  0.00    +0.125 C 
ATOM      4  C   LIG    1        5.168  -2.369   0.014  0.00  0.00    +0.153 C 
ATOM      5  O   LIG    1        4.993   1.202  -0.190  0.00  0.00    -0.275 OA
ATOM      6  C   LIG    1        3.717  -1.946   0.077  0.00  0.00    +0.244 C 
ATOM      7  O   LIG    1        2.770  -2.696   0.182  0.00  0.00    -0.273 OA
ENDROOT
BRANCH   1  11
ATOM      8  C   LIG    1        0.027   1.460   0.076  0.00  0.00    +0.000 A 
ATOM      9  C   LIG    1        0.936   1.619   1.106  0.00  0.00    +0.002 A 
ATOM     10  C   LIG    1        2.136   0.933   1.082  0.00  0.00    +0.024 A 
ATOM     11  C   LIG    1        2.427   0.085   0.023  0.00  0.00    +0.044 A 
ATOM     12  C   LIG    1        1.512  -0.072  -1.010  0.00  0.00    +0.024 A 
ATOM     13  C   LIG    1        0.315   0.616  -0.980  0.00  0.00    +0.002 A 
ENDBRANCH   1  11
BRANCH   4  14
ATOM     14  N   LIG    1        5.554  -3.073   1.244  0.00  0.00    -0.288 NA
ATOM     15  C   LIG    1        5.128  -2.324   2.434  0.00  0.00    +0.104 C 
ATOM     16  C   LIG    1        5.703  -2.992   3.687  0.00  0.00    +0.120 C 
ATOM     17  N   LIG    1        5.321  -4.412   3.677  0.00  0.00    -0.327 N 
ATOM     18  C   LIG    1        5.592  -5.197   2.462  0.00  0.00    +0.120 C 
ATOM     19  C   LIG    1        5.021  -4.442   1.258  0.00  0.00    +0.104 C 
BRANCH  17  20
ATOM     20  C   LIG    1        4.716  -5.001   4.792  0.00  0.00    +0.030 A 
ATOM     21  C   LIG    1        4.477  -6.369   4.811  0.00  0.00    +0.026 A 
ATOM     22  C   LIG    1        3.880  -6.949   5.914  0.00  0.00    +0.040 A 
ATOM     23  C   LIG    1        3.520  -6.167   6.999  0.00  0.00    +0.124 A 
ATOM     24  F   LIG    1        2.936  -6.736   8.076  0.00  0.00    -0.205 F 
ATOM     25  C   LIG    1        3.758  -4.803   6.981  0.00  0.00    +0.040 A 
ATOM     26  C   LIG    1        4.359  -4.220   5.883  0.00  0.00    +0.026 A 
ENDBRANCH  17  20
ENDBRANCH   4  14
TORSDOF 3
