REMARK  Name = ZINC53297239
REMARK                            x       y       z     vdW  Elec       q    Type
REMARK                         _______ _______ _______ _____ _____    ______ ____
ROOT
ATOM      1  N   LIG    1        0.735  -3.183  -0.022  0.00  0.00    -0.311 N 
ATOM      2  C   LIG    1       -0.717  -2.987   0.098  0.00  0.00    +0.122 C 
ATOM      3  C   LIG    1       -1.239  -3.887   1.223  0.00  0.00    +0.103 C 
ATOM      4  N   LIG    1       -0.818  -5.272   0.972  0.00  0.00    -0.298 NA
ATOM      5  C   LIG    1        0.646  -5.396   0.996  0.00  0.00    +0.103 C 
ATOM      6  C   LIG    1        1.244  -4.558  -0.145  0.00  0.00    +0.122 C 
ENDROOT
BRANCH   1  12
ATOM      7  C   LIG    1        5.264  -2.868  -0.798  0.00  0.00    +0.001 A 
ATOM      8  C   LIG    1        5.720  -1.560  -0.695  0.00  0.00    +0.002 A 
ATOM      9  C   LIG    1        4.861  -0.541  -0.395  0.00  0.00    +0.028 A 
ATOM     10  C   LIG    1        3.510  -0.812  -0.189  0.00  0.00    +0.068 A 
ATOM     11  C   LIG    1        3.047  -2.137  -0.292  0.00  0.00    +0.041 A 
ATOM     12  C   LIG    1        1.609  -2.092  -0.025  0.00  0.00    +0.151 A 
ATOM     13  N   LIG    1        1.289  -0.847   0.210  0.00  0.00    -0.158 NA
ATOM     14  N   LIG    1        2.424  -0.035   0.119  0.00  0.00    -0.275 N 
ATOM     15  H   LIG    1        2.439   0.925   0.253  0.00  0.00    +0.189 HD
ATOM     16  C   LIG    1        3.946  -3.163  -0.601  0.00  0.00    +0.013 A 
ENDBRANCH   1  12
BRANCH   4  17
ATOM     17  C   LIG    1       -1.440  -6.194   1.932  0.00  0.00    +0.103 C 
BRANCH  17  18
ATOM     18  C   LIG    1       -1.183  -7.637   1.494  0.00  0.00    +0.119 C 
BRANCH  18  19
ATOM     19  N   LIG    1       -1.803  -8.556   2.452  0.00  0.00    -0.314 N 
ATOM     20  H   LIG    1       -2.284  -8.206   3.218  0.00  0.00    +0.149 HD
BRANCH  19  21
ATOM     21  C   LIG    1       -1.704  -9.911   2.265  0.00  0.00    +0.196 A 
ATOM     22  N   LIG    1       -2.299 -10.738   3.173  0.00  0.00    -0.295 N 
ATOM     23  H   LIG    1       -2.776 -10.360   3.928  0.00  0.00    +0.172 HD
ATOM     24  C   LIG    1       -2.227 -12.082   3.030  0.00  0.00    +0.260 A 
ATOM     25  C   LIG    1       -1.492 -12.603   1.870  0.00  0.00    +0.065 A 
ATOM     26  C   LIG    1       -1.361 -13.971   1.634  0.00  0.00    +0.015 A 
ATOM     27  C   LIG    1       -0.666 -14.402   0.538  0.00  0.00    +0.001 A 
ATOM     28  C   LIG    1       -0.090 -13.493  -0.341  0.00  0.00    +0.002 A 
ATOM     29  C   LIG    1       -0.203 -12.147  -0.133  0.00  0.00    +0.028 A 
ATOM     30  C   LIG    1       -0.907 -11.675   0.978  0.00  0.00    +0.080 A 
ATOM     31  O   LIG    1       -2.753 -12.831   3.833  0.00  0.00    -0.267 OA
ATOM     32  N   LIG    1       -1.048 -10.351   1.220  0.00  0.00    -0.216 NA
ENDBRANCH  19  21
ENDBRANCH  18  19
ENDBRANCH  17  18
ENDBRANCH   4  17
TORSDOF 5
