REMARK  Name = ZINC28821265
REMARK                            x       y       z     vdW  Elec       q    Type
REMARK                         _______ _______ _______ _____ _____    ______ ____
ROOT
ATOM      1  C   LIG    1       -6.570   7.593   3.374  0.00  0.00    +0.028 C 
ATOM      2  C   LIG    1       -5.792   6.732   2.672  0.00  0.00    +0.079 C 
ATOM      3  C   LIG    1       -5.684   6.527   1.208  0.00  0.00    +0.276 C 
ATOM      4  N   LIG    1       -4.829   5.611   0.809  0.00  0.00    -0.154 NA
ATOM      5  C   LIG    1       -4.107   4.896   1.658  0.00  0.00    +0.152 C 
ATOM      6  O   LIG    1       -6.348   7.176   0.416  0.00  0.00    -0.267 OA
ATOM      7  S   LIG    1       -4.609   5.523   3.253  0.00  0.00    -0.052 S 
ENDROOT
BRANCH   1  12
ATOM      8  C   LIG    1       -7.695   9.369   9.119  0.00  0.00    +0.020 A 
ATOM      9  C   LIG    1       -7.672   9.531   7.763  0.00  0.00    +0.011 A 
ATOM     10  C   LIG    1       -7.178   8.472   6.975  0.00  0.00    +0.001 A 
ATOM     11  C   LIG    1       -7.125   8.569   5.579  0.00  0.00    +0.018 A 
ATOM     12  C   LIG    1       -6.630   7.502   4.839  0.00  0.00    -0.023 A 
ATOM     13  C   LIG    1       -6.191   6.331   5.488  0.00  0.00    +0.010 A 
ATOM     14  C   LIG    1       -6.232   6.226   6.839  0.00  0.00    +0.029 A 
ATOM     15  C   LIG    1       -6.728   7.290   7.617  0.00  0.00    +0.071 A 
ATOM     16  N   LIG    1       -6.778   7.198   8.949  0.00  0.00    -0.255 NA
ATOM     17  C   LIG    1       -7.237   8.182   9.685  0.00  0.00    +0.111 A 
ENDBRANCH   1  12
BRANCH   5  18
ATOM     18  N   LIG    1       -3.192   3.917   1.380  0.00  0.00    -0.321 N 
ATOM     19  H   LIG    1       -2.662   3.410   2.200  0.00  0.00    +0.148 HD
BRANCH  18  20
ATOM     20  C   LIG    1       -2.919   3.543  -0.010  0.00  0.00    +0.145 C 
BRANCH  20  21
ATOM     21  C   LIG    1       -1.881   2.450  -0.042  0.00  0.00    +0.007 A 
ATOM     22  C   LIG    1       -2.056   1.106  -0.021  0.00  0.00    +0.013 A 
ATOM     23  C   LIG    1       -0.945   0.285  -0.055  0.00  0.00    +0.008 A 
ATOM     24  C   LIG    1        0.287   0.848  -0.119  0.00  0.00    +0.045 A 
ATOM     25  S   LIG    1       -0.103   2.590  -0.126  0.00  0.00    -0.100 S 
ENDBRANCH  20  21
ENDBRANCH  18  20
ENDBRANCH   5  18
TORSDOF 4
