REMARK  Name = ZINC13760709
REMARK                            x       y       z     vdW  Elec       q    Type
REMARK                         _______ _______ _______ _____ _____    ______ ____
ROOT
ATOM      1  C   LIG    1        5.011  -3.167  -2.565  0.00  0.00    -0.028 A 
ATOM      2  C   LIG    1        6.052  -2.935  -1.685  0.00  0.00    +0.006 A 
ATOM      3  C   LIG    1        7.218  -3.667  -1.782  0.00  0.00    +0.009 A 
ATOM      4  C   LIG    1        7.345  -4.642  -2.769  0.00  0.00    -0.017 A 
ATOM      5  C   LIG    1        6.292  -4.872  -3.654  0.00  0.00    +0.009 A 
ATOM      6  C   LIG    1        5.129  -4.137  -3.544  0.00  0.00    +0.006 A 
ENDROOT
BRANCH   4   7
ATOM      7  C   LIG    1        8.595  -5.432  -2.879  0.00  0.00    -0.007 A 
ATOM      8  C   LIG    1        9.829  -4.788  -2.901  0.00  0.00    +0.009 A 
ATOM      9  C   LIG    1       10.991  -5.527  -3.003  0.00  0.00    +0.001 A 
ATOM     10  C   LIG    1       10.937  -6.909  -3.084  0.00  0.00    +0.001 A 
ATOM     11  C   LIG    1        9.721  -7.562  -3.064  0.00  0.00    +0.012 A 
ATOM     12  C   LIG    1        8.541  -6.832  -2.955  0.00  0.00    +0.030 A 
BRANCH  12  13
ATOM     13  C   LIG    1        7.233  -7.530  -2.927  0.00  0.00    +0.206 A 
ATOM     14  N   LIG    1        6.060  -6.952  -2.840  0.00  0.00    -0.052 NA
ATOM     15  O   LIG    1        5.093  -7.991  -2.846  0.00  0.00    -0.296 OA
ATOM     16  C   LIG    1        5.775  -9.143  -2.939  0.00  0.00    +0.417 A 
ATOM     17  N   LIG    1        7.054  -8.861  -2.993  0.00  0.00    -0.154 NA
BRANCH  16  18
ATOM     18  O   LIG    1        5.236 -10.381  -2.976  0.00  0.00    -0.464 OA
ATOM     19  H   LIG    1        4.306 -10.488  -2.932  0.00  0.00    +0.297 HD
ENDBRANCH  16  18
ENDBRANCH  12  13
ENDBRANCH   4   7
BRANCH   1  20
ATOM     20  C   LIG    1        3.740  -2.365  -2.454  0.00  0.00    +0.162 C 
BRANCH  20  29
ATOM     21  C   LIG    1        2.952  -1.860  -0.108  0.00  0.00    +0.299 A 
ATOM     22  N   LIG    1        2.290  -2.467   0.842  0.00  0.00    -0.195 NA
ATOM     23  C   LIG    1        1.948  -3.717   0.430  0.00  0.00    +0.094 A 
ATOM     24  C   LIG    1        1.253  -4.768   1.031  0.00  0.00    +0.030 A 
ATOM     25  C   LIG    1        1.058  -5.950   0.347  0.00  0.00    +0.003 A 
ATOM     26  C   LIG    1        1.545  -6.112  -0.937  0.00  0.00    +0.017 A 
ATOM     27  C   LIG    1        2.244  -5.076  -1.559  0.00  0.00    +0.084 A 
ATOM     28  C   LIG    1        2.447  -3.871  -0.873  0.00  0.00    +0.086 A 
ATOM     29  N   LIG    1        3.071  -2.683  -1.190  0.00  0.00    -0.289 N 
BRANCH  27  30
ATOM     30  C   LIG    1        2.764  -5.249  -2.927  0.00  0.00    +0.339 C 
ATOM     31  O   LIG    1        2.583  -4.382  -3.760  0.00  0.00    -0.245 OA
BRANCH  30  32
ATOM     32  O   LIG    1        3.441  -6.367  -3.255  0.00  0.00    -0.477 OA
ATOM     33  H   LIG    1        3.742  -6.390  -4.174  0.00  0.00    +0.295 HD
ENDBRANCH  30  32
ENDBRANCH  27  30
BRANCH  21  34
ATOM     34  O   LIG    1        3.442  -0.601  -0.032  0.00  0.00    -0.464 OA
BRANCH  34  36
ATOM     35  C   LIG    1        3.840   1.504   1.086  0.00  0.00    +0.048 C 
ATOM     36  C   LIG    1        3.218   0.109   1.187  0.00  0.00    +0.229 C 
ENDBRANCH  34  36
ENDBRANCH  21  34
ENDBRANCH  20  29
ENDBRANCH   1  20
TORSDOF 9
