REMARK  Name = ZINC38190874
REMARK                            x       y       z     vdW  Elec       q    Type
REMARK                         _______ _______ _______ _____ _____    ______ ____
ROOT
ATOM      1  N   LIG    1        1.524  -5.543   7.157  0.00  0.00    -0.287 N 
ATOM      2  H   LIG    1        0.764  -4.989   7.399  0.00  0.00    +0.155 HD
ATOM      3  C   LIG    1        1.896  -6.562   7.956  0.00  0.00    +0.203 C 
ATOM      4  O   LIG    1        2.894  -7.201   7.699  0.00  0.00    -0.277 OA
ENDROOT
BRANCH   1   9
ATOM      5  C   LIG    1        2.266  -4.569   3.690  0.00  0.00    -0.046 A 
ATOM      6  C   LIG    1        3.634  -4.768   3.650  0.00  0.00    +0.004 A 
ATOM      7  C   LIG    1        4.303  -5.223   4.771  0.00  0.00    +0.002 A 
ATOM      8  C   LIG    1        3.606  -5.481   5.935  0.00  0.00    +0.023 A 
ATOM      9  C   LIG    1        2.232  -5.282   5.979  0.00  0.00    +0.034 A 
ATOM     10  C   LIG    1        1.564  -4.820   4.853  0.00  0.00    +0.027 A 
BRANCH   5  11
ATOM     11  C   LIG    1        1.541  -4.072   2.466  0.00  0.00    +0.035 C 
BRANCH  11  12
ATOM     12  C   LIG    1        1.512  -2.543   2.476  0.00  0.00    +0.005 C 
BRANCH  12  13
ATOM     13  C   LIG    1        0.776  -2.038   1.233  0.00  0.00    +0.000 C 
BRANCH  13  14
ATOM     14  C   LIG    1        0.747  -0.509   1.243  0.00  0.00    -0.000 C 
BRANCH  14  16
ATOM     15  C   LIG    1       -0.018   1.525   0.010  0.00  0.00    +0.004 C 
ATOM     16  C   LIG    1        0.011  -0.004  -0.000  0.00  0.00    -0.003 C 
ENDBRANCH  14  16
ENDBRANCH  13  14
ENDBRANCH  12  13
ENDBRANCH  11  12
ENDBRANCH   5  11
ENDBRANCH   1   9
BRANCH   3  17
ATOM     17  C   LIG    1        1.072  -6.908   9.170  0.00  0.00    +0.014 C 
BRANCH  17  18
ATOM     18  N   LIG    1        1.372  -8.284   9.589  0.00  0.00    +0.386 N 
ATOM     19  H   LIG    1        2.352  -8.361   9.815  0.00  0.00    -0.089 HD
ATOM     20  H   LIG    1        1.149  -8.920   8.838  0.00  0.00    -0.089 HD
ATOM     21  H   LIG    1        0.820  -8.516  10.401  0.00  0.00    -0.089 HD
ENDBRANCH  17  18
BRANCH  17  22
ATOM     22  C   LIG    1        1.410  -5.943  10.308  0.00  0.00    +0.005 C 
BRANCH  22  23
ATOM     23  C   LIG    1        0.486  -6.214  11.497  0.00  0.00    +0.126 C 
BRANCH  23  24
ATOM     24  P   LIG    1        0.889  -5.064  12.853  0.00  0.00    +0.328 P 
ATOM     25  O   LIG    1        2.390  -5.182  13.200  0.00  0.00    -0.259 OA
BRANCH  24  26
ATOM     26  O   LIG    1        0.008  -5.434  14.150  0.00  0.00    -0.324 OA
ATOM     27  H   LIG    1        0.171  -4.862  14.912  0.00  0.00    +0.220 HD
ENDBRANCH  24  26
BRANCH  24  28
ATOM     28  O   LIG    1        0.574  -3.617  12.412  0.00  0.00    -0.324 OA
ATOM     29  H   LIG    1        1.104  -3.395  11.631  0.00  0.00    +0.220 HD
ENDBRANCH  24  28
ENDBRANCH  23  24
ENDBRANCH  22  23
ENDBRANCH  17  22
ENDBRANCH   3  17
TORSDOF 13
