REMARK  Name = ZINC53190616
REMARK                            x       y       z     vdW  Elec       q    Type
REMARK                         _______ _______ _______ _____ _____    ______ ____
ROOT
ATOM      1  N   LIG    1        1.397  -2.925   1.319  0.00  0.00    -0.286 NA
ATOM      2  C   LIG    1        2.519  -2.253   1.977  0.00  0.00    +0.087 C 
ATOM      3  C   LIG    1        2.682  -2.739   3.413  0.00  0.00    +0.037 C 
ATOM      4  C   LIG    1        1.310  -3.061   4.010  0.00  0.00    +0.123 C 
ATOM      5  N   LIG    1        0.961  -4.453   3.699  0.00  0.00    -0.349 N 
ATOM      6  C   LIG    1        0.465  -5.371   4.575  0.00  0.00    +0.086 A 
ATOM      7  C   LIG    1        0.247  -6.521   3.905  0.00  0.00    +0.019 A 
ATOM      8  C   LIG    1        0.632  -6.307   2.566  0.00  0.00    +0.024 A 
ATOM      9  C   LIG    1        1.074  -5.038   2.471  0.00  0.00    +0.041 A 
ATOM     10  C   LIG    1        1.621  -4.375   1.231  0.00  0.00    +0.136 C 
ENDROOT
BRANCH  10  11
ATOM     11  C   LIG    1        0.915  -4.920   0.016  0.00  0.00    -0.006 A 
ATOM     12  C   LIG    1       -0.447  -4.734  -0.134  0.00  0.00    +0.007 A 
ATOM     13  C   LIG    1       -1.094  -5.234  -1.248  0.00  0.00    +0.000 A 
ATOM     14  C   LIG    1       -0.381  -5.920  -2.213  0.00  0.00    +0.001 A 
ATOM     15  C   LIG    1        0.981  -6.107  -2.065  0.00  0.00    +0.020 A 
ATOM     16  C   LIG    1        1.630  -5.602  -0.952  0.00  0.00    +0.046 A 
ATOM     17 CL   LIG    1        3.341  -5.830  -0.768  0.00  0.00    -0.083 Cl
ENDBRANCH  10  11
BRANCH   1  18
ATOM     18  C   LIG    1        1.144  -2.350  -0.009  0.00  0.00    +0.124 C 
BRANCH  18  23
ATOM     19  C   LIG    1       -0.730   0.907   0.354  0.00  0.00    +0.001 A 
ATOM     20  C   LIG    1        0.305   1.824   0.382  0.00  0.00    +0.004 A 
ATOM     21  C   LIG    1        1.613   1.393   0.284  0.00  0.00    +0.046 A 
ATOM     22  C   LIG    1        1.889   0.039   0.157  0.00  0.00    +0.121 A 
ATOM     23  C   LIG    1        0.849  -0.879   0.129  0.00  0.00    +0.008 A 
ATOM     24  C   LIG    1       -0.459  -0.442   0.228  0.00  0.00    +0.008 A 
BRANCH  22  25
ATOM     25  O   LIG    1        3.175  -0.388   0.059  0.00  0.00    -0.506 OA
ATOM     26  H   LIG    1        3.626  -0.477   0.910  0.00  0.00    +0.292 HD
ENDBRANCH  22  25
ENDBRANCH  18  23
ENDBRANCH   1  18
TORSDOF 4
