REMARK  Name = ZINC28463701
REMARK                            x       y       z     vdW  Elec       q    Type
REMARK                         _______ _______ _______ _____ _____    ______ ____
ROOT
ATOM      1  C   LIG    1       -0.018   1.503   0.010  0.00  0.00    +0.047 C 
ATOM      2  C   LIG    1        0.002  -0.004   0.002  0.00  0.00    -0.011 A 
ATOM      3  C   LIG    1       -0.099  -0.685  -1.194  0.00  0.00    +0.046 A 
ATOM      4 CL   LIG    1       -0.252   0.197  -2.681  0.00  0.00    -0.083 Cl
ATOM      5  C   LIG    1       -0.078  -2.068  -1.211  0.00  0.00    +0.020 A 
ATOM      6  C   LIG    1        0.053  -2.768  -0.026  0.00  0.00    +0.007 A 
ATOM      7  C   LIG    1        0.160  -2.091   1.173  0.00  0.00    -0.024 A 
ATOM      8  C   LIG    1        0.335  -2.601   2.587  0.00  0.00    +0.057 C 
ATOM      9  C   LIG    1        0.496  -1.332   3.434  0.00  0.00    +0.061 C 
ATOM     10  C   LIG    1       -0.551  -1.298   4.551  0.00  0.00    -0.060 C 
ATOM     11  N   LIG    1       -0.583   0.055   5.127  0.00  0.00    +0.381 N 
ATOM     12  H   LIG    1       -1.193   0.059   5.931  0.00  0.00    -0.086 HD
ATOM     13  H   LIG    1        0.348   0.314   5.417  0.00  0.00    -0.086 HD
ATOM     14  C   LIG    1       -1.071   1.031   4.147  0.00  0.00    -0.063 C 
ATOM     15  C   LIG    1       -0.077   1.141   2.980  0.00  0.00    +0.086 C 
ATOM     16  N   LIG    1        0.183  -0.228   2.508  0.00  0.00    -0.330 N 
ATOM     17  C   LIG    1        0.129  -0.703   1.204  0.00  0.00    +0.037 A 
ENDROOT
TORSDOF 0
