REMARK  Name = ZINC29052265
REMARK                            x       y       z     vdW  Elec       q    Type
REMARK                         _______ _______ _______ _____ _____    ______ ____
ROOT
ATOM      1  C   LIG    1       -2.834  -2.565   0.015  0.00  0.00    -0.047 A 
ATOM      2  C   LIG    1       -3.467  -2.813   1.220  0.00  0.00    +0.004 A 
ATOM      3  C   LIG    1       -4.758  -3.298   1.237  0.00  0.00    +0.013 A 
ATOM      4  C   LIG    1       -5.426  -3.538   0.035  0.00  0.00    +0.037 A 
ATOM      5  C   LIG    1       -4.782  -3.285  -1.177  0.00  0.00    +0.013 A 
ATOM      6  C   LIG    1       -3.492  -2.795  -1.180  0.00  0.00    +0.004 A 
ENDROOT
BRANCH   4   7
ATOM      7  C   LIG    1       -6.810  -4.058   0.045  0.00  0.00    +0.248 C 
ATOM      8  N   LIG    1       -7.452  -4.288  -1.117  0.00  0.00    -0.282 N 
ATOM      9  H   LIG    1       -7.033  -4.050  -1.958  0.00  0.00    +0.155 HD
ATOM     10  O   LIG    1       -7.369  -4.277   1.102  0.00  0.00    -0.270 OA
BRANCH   8  11
ATOM     11  C   LIG    1       -8.724  -4.870  -1.110  0.00  0.00    +0.034 A 
ATOM     12  C   LIG    1       -9.092  -5.750  -2.120  0.00  0.00    +0.023 A 
ATOM     13  C   LIG    1      -10.349  -6.323  -2.109  0.00  0.00    +0.002 A 
ATOM     14  C   LIG    1      -11.239  -6.022  -1.095  0.00  0.00    +0.000 A 
ATOM     15  C   LIG    1      -10.876  -5.146  -0.089  0.00  0.00    +0.002 A 
ATOM     16  C   LIG    1       -9.619  -4.574  -0.090  0.00  0.00    +0.023 A 
ENDBRANCH   8  11
ENDBRANCH   4   7
BRANCH   1  17
ATOM     17  C   LIG    1       -1.423  -2.035   0.004  0.00  0.00    +0.035 C 
BRANCH  17  18
ATOM     18  C   LIG    1       -1.452  -0.506   0.019  0.00  0.00    +0.004 C 
BRANCH  18  20
ATOM     19  C   LIG    1       -0.049   1.561   0.024  0.00  0.00    +0.004 C 
ATOM     20  C   LIG    1       -0.019   0.032   0.008  0.00  0.00    -0.003 C 
ENDBRANCH  18  20
ENDBRANCH  17  18
ENDBRANCH   1  17
TORSDOF 5
