REMARK  Name = ZINC28256107
REMARK                            x       y       z     vdW  Elec       q    Type
REMARK                         _______ _______ _______ _____ _____    ______ ____
ROOT
ATOM      1  C   LIG    1        0.060  -4.280  -0.026  0.00  0.00    +0.173 C 
ENDROOT
BRANCH   1   2
ATOM      2  C   LIG    1        0.040  -2.773  -0.014  0.00  0.00    -0.019 A 
ATOM      3  C   LIG    1        0.018  -2.074  -1.207  0.00  0.00    +0.009 A 
ATOM      4  C   LIG    1       -0.006  -0.692  -1.201  0.00  0.00    +0.049 A 
ATOM      5  C   LIG    1        0.002  -0.004   0.002  0.00  0.00    +0.158 A 
ATOM      6  C   LIG    1        0.023  -0.708   1.202  0.00  0.00    +0.159 A 
ATOM      7  C   LIG    1        0.042  -2.093   1.189  0.00  0.00    +0.054 A 
BRANCH   5   8
ATOM      8  O   LIG    1       -0.016   1.356   0.009  0.00  0.00    -0.503 OA
ATOM      9  H   LIG    1       -0.010   1.901   0.965  0.00  0.00    +0.292 HD
ENDBRANCH   5   8
BRANCH   6  10
ATOM     10  O   LIG    1        0.025  -0.037   2.385  0.00  0.00    -0.503 OA
ATOM     11  H   LIG    1        0.042  -0.595   3.334  0.00  0.00    +0.292 HD
ENDBRANCH   6  10
ENDBRANCH   1   2
BRANCH   1  12
ATOM     12  S   LIG    1        1.541  -4.858  -0.900  0.00  0.00    +0.085 S 
ATOM     13  O   LIG    1        1.487  -6.267  -1.077  0.00  0.00    -0.147 OA
ATOM     14  O   LIG    1        2.701  -4.240  -0.360  0.00  0.00    -0.147 OA
BRANCH  12  15
ATOM     15  O   LIG    1        1.415  -4.285  -2.305  0.00  0.00    -0.254 OA
ATOM     16  H   LIG    1        1.444  -3.316  -2.263  0.00  0.00    +0.244 HD
ENDBRANCH  12  15
ENDBRANCH   1  12
BRANCH   1  17
ATOM     17  C   LIG    1       -1.189  -4.801  -0.740  0.00  0.00    -0.049 C 
BRANCH  17  19
ATOM     18  C   LIG    1       -2.356  -6.807  -1.430  0.00  0.00    -0.100 C 
ATOM     19  N   LIG    1       -1.169  -6.270  -0.752  0.00  0.00    +0.379 N 
ATOM     20  H   LIG    1       -0.263  -6.606  -1.277  0.00  0.00    -0.086 HD
ATOM     21  H   LIG    1       -1.146  -6.631   0.287  0.00  0.00    -0.086 HD
ENDBRANCH  17  19
ENDBRANCH   1  17
TORSDOF 7
