REMARK  Name = ZINC36966109
REMARK                            x       y       z     vdW  Elec       q    Type
REMARK                         _______ _______ _______ _____ _____    ______ ____
ROOT
ATOM      1  C   LIG    1        1.422  -5.189  -8.333  0.00  0.00    +0.076 A 
ATOM      2  C   LIG    1        1.681  -5.620  -7.068  0.00  0.00    +0.033 A 
ATOM      3  C   LIG    1        2.395  -4.801  -6.184  0.00  0.00    +0.035 A 
ATOM      4  C   LIG    1        2.773  -5.050  -4.829  0.00  0.00    +0.086 A 
ATOM      5  N   LIG    1        3.454  -4.127  -4.168  0.00  0.00    -0.214 NA
ATOM      6  C   LIG    1        3.801  -2.973  -4.723  0.00  0.00    +0.214 A 
ATOM      7  N   LIG    1        3.479  -2.685  -5.977  0.00  0.00    -0.207 NA
ATOM      8  C   LIG    1        2.802  -3.546  -6.705  0.00  0.00    +0.115 A 
ATOM      9  S   LIG    1        2.186  -3.576  -8.369  0.00  0.00    -0.064 S 
ENDROOT
BRANCH   4  10
ATOM     10  C   LIG    1        2.407  -6.324  -4.171  0.00  0.00    +0.023 A 
ATOM     11  C   LIG    1        2.660  -7.538  -4.809  0.00  0.00    +0.058 A 
ATOM     12  C   LIG    1        2.315  -8.726  -4.188  0.00  0.00    +0.139 A 
ATOM     13  C   LIG    1        1.718  -8.708  -2.933  0.00  0.00    +0.084 A 
ATOM     14 CL   LIG    1        1.287 -10.201  -2.159  0.00  0.00    -0.080 Cl
ATOM     15  C   LIG    1        1.465  -7.505  -2.300  0.00  0.00    +0.044 A 
ATOM     16  C   LIG    1        1.812  -6.314  -2.908  0.00  0.00    +0.052 A 
ATOM     17 CL   LIG    1        1.500  -4.806  -2.106  0.00  0.00    -0.083 Cl
BRANCH  12  18
ATOM     18  O   LIG    1        2.560  -9.912  -4.807  0.00  0.00    -0.492 OA
BRANCH  18  19
ATOM     19  C   LIG    1        3.176  -9.856  -6.095  0.00  0.00    +0.211 C 
BRANCH  19  20
ATOM     20  C   LIG    1        3.371 -11.277  -6.629  0.00  0.00    -0.037 C 
BRANCH  20  21
ATOM     21  N   LIG    1        2.060 -11.900  -6.852  0.00  0.00    +0.382 N 
ATOM     22  H   LIG    1        1.500 -11.841  -6.015  0.00  0.00    -0.082 HD
ATOM     23  C   LIG    1        1.364 -11.238  -7.984  0.00  0.00    -0.079 C 
ATOM     24  C   LIG    1        0.339 -12.306  -8.444  0.00  0.00    -0.020 C 
ATOM     25  C   LIG    1        1.119 -13.629  -8.273  0.00  0.00    -0.020 C 
ATOM     26  C   LIG    1        2.229 -13.314  -7.254  0.00  0.00    -0.079 C 
ENDBRANCH  20  21
ENDBRANCH  19  20
ENDBRANCH  18  19
ENDBRANCH  12  18
ENDBRANCH   4  10
BRANCH   1  29
ATOM     27  N   LIG    1        0.546  -5.291 -10.607  0.00  0.00    -0.311 N 
ATOM     28  H   LIG    1        0.915  -4.407 -10.763  0.00  0.00    +0.149 HD
ATOM     29  C   LIG    1        0.698  -5.882  -9.405  0.00  0.00    +0.251 C 
ATOM     30  O   LIG    1        0.236  -6.990  -9.210  0.00  0.00    -0.270 OA
BRANCH  27  32
ATOM     31  C   LIG    1       -0.205  -5.100 -12.927  0.00  0.00    +0.024 C 
ATOM     32  C   LIG    1       -0.176  -5.983 -11.678  0.00  0.00    +0.101 C 
ENDBRANCH  27  32
ENDBRANCH   1  29
BRANCH   6  33
ATOM     33  N   LIG    1        4.513  -2.050  -3.977  0.00  0.00    -0.327 N 
ATOM     34  H   LIG    1        4.771  -1.203  -4.373  0.00  0.00    +0.145 HD
ATOM     35  H   LIG    1        4.753  -2.251  -3.059  0.00  0.00    +0.145 HD
ENDBRANCH   6  33
TORSDOF 8
