REMARK  Name = ZINC25046105
REMARK                            x       y       z     vdW  Elec       q    Type
REMARK                         _______ _______ _______ _____ _____    ______ ____
ROOT
ATOM      1  N   LIG    1        0.170   2.440   4.598  0.00  0.00    -0.266 N 
ATOM      2  H   LIG    1        1.239   2.179   4.597  0.00  0.00    +0.157 HD
ATOM      3  C   LIG    1       -0.393   2.970   5.702  0.00  0.00    +0.249 C 
ATOM      4  O   LIG    1       -1.591   3.172   5.736  0.00  0.00    -0.270 OA
ENDROOT
BRANCH   3   5
ATOM      5  C   LIG    1        0.447   3.306   6.871  0.00  0.00    +0.042 A 
ATOM      6  C   LIG    1        1.822   3.070   6.837  0.00  0.00    +0.051 A 
ATOM      7  C   LIG    1        2.603   3.391   7.931  0.00  0.00    +0.127 A 
ATOM      8  F   LIG    1        3.935   3.168   7.897  0.00  0.00    -0.205 F 
ATOM      9  C   LIG    1        2.022   3.936   9.064  0.00  0.00    +0.076 A 
ATOM     10  C   LIG    1        0.657   4.167   9.106  0.00  0.00    +0.127 A 
ATOM     11  F   LIG    1        0.097   4.699  10.214  0.00  0.00    -0.205 F 
ATOM     12  C   LIG    1       -0.133   3.855   8.015  0.00  0.00    +0.051 A 
ENDBRANCH   3   5
BRANCH   1  18
ATOM     13  C   LIG    1       -4.153   2.513   2.540  0.00  0.00    +0.065 C 
ATOM     14  C   LIG    1       -2.673   2.248   2.443  0.00  0.00    +0.040 A 
ATOM     15  C   LIG    1       -2.138   1.799   1.252  0.00  0.00    +0.023 A 
ATOM     16  C   LIG    1       -0.773   1.561   1.167  0.00  0.00    +0.005 A 
ATOM     17  C   LIG    1        0.006   1.774   2.291  0.00  0.00    +0.044 A 
ATOM     18  C   LIG    1       -0.601   2.222   3.459  0.00  0.00    +0.125 A 
ATOM     19  N   LIG    1       -1.906   2.442   3.498  0.00  0.00    -0.237 NA
ENDBRANCH   1  18
TORSDOF 2
