REMARK  Name = ZINC28474933
REMARK                            x       y       z     vdW  Elec       q    Type
REMARK                         _______ _______ _______ _____ _____    ______ ____
ROOT
ATOM      1  C   LIG    1       -5.160   1.699  -2.855  0.00  0.00    +0.001 C 
ATOM      2  C   LIG    1       -3.667   2.039  -3.000  0.00  0.00    +0.008 C 
ATOM      3  C   LIG    1       -3.458   1.316  -1.665  0.00  0.00    -0.014 C 
ATOM      4  C   LIG    1       -2.996   1.894  -0.332  0.00  0.00    +0.024 C 
ATOM      5  C   LIG    1       -2.155   0.829  -1.041  0.00  0.00    +0.058 C 
ATOM      6  C   LIG    1       -4.728   0.515  -1.971  0.00  0.00    +0.008 C 
ENDROOT
BRANCH   5   7
ATOM      7  C   LIG    1       -2.141  -0.556  -0.448  0.00  0.00    +0.310 C 
ATOM      8  O   LIG    1       -2.837  -1.423  -0.920  0.00  0.00    -0.250 OA
BRANCH   7   9
ATOM      9  O   LIG    1       -1.355  -0.827   0.606  0.00  0.00    -0.480 OA
ATOM     10  H   LIG    1       -0.814  -0.155   0.972  0.00  0.00    +0.295 HD
ENDBRANCH   7   9
ENDBRANCH   5   7
BRANCH   5  11
ATOM     11  C   LIG    1       -0.847   1.281  -1.693  0.00  0.00    -0.068 C 
BRANCH  11  12
ATOM     12  N   LIG    1        0.068   1.783  -0.659  0.00  0.00    +0.379 N 
ATOM     13  H   LIG    1       -0.396   2.634  -0.141  0.00  0.00    -0.090 HD
ATOM     14  H   LIG    1        0.277   0.982   0.065  0.00  0.00    -0.090 HD
ATOM     15  H   LIG    1        1.009   2.108  -1.128  0.00  0.00    -0.090 HD
ENDBRANCH  11  12
ENDBRANCH   5  11
TORSDOF 4
