REMARK  Name = ZINC28220264
REMARK                            x       y       z     vdW  Elec       q    Type
REMARK                         _______ _______ _______ _____ _____    ______ ____
ROOT
ATOM      1  N   LIG    1       -0.665   1.611   1.147  0.00  0.00    -0.324 N 
ATOM      2  C   LIG    1       -0.891   2.927   1.417  0.00  0.00    +0.200 A 
ATOM      3  N   LIG    1       -1.556   3.047   2.529  0.00  0.00    -0.232 NA
ATOM      4  C   LIG    1       -1.793   1.818   3.051  0.00  0.00    +0.128 A 
ATOM      5  C   LIG    1       -2.441   1.347   4.202  0.00  0.00    +0.144 A 
ATOM      6  N   LIG    1       -2.506   0.047   4.438  0.00  0.00    -0.238 NA
ATOM      7  C   LIG    1       -1.976  -0.847   3.619  0.00  0.00    +0.115 A 
ATOM      8  C   LIG    1       -1.327  -0.473   2.477  0.00  0.00    +0.048 A 
ATOM      9  C   LIG    1       -1.223   0.882   2.170  0.00  0.00    +0.074 A 
ENDROOT
BRANCH   5  10
ATOM     10  N   LIG    1       -3.015   2.244   5.093  0.00  0.00    -0.341 N 
ATOM     11  H   LIG    1       -2.961   3.325   4.897  0.00  0.00    +0.144 HD
ATOM     12  H   LIG    1       -3.523   1.874   5.996  0.00  0.00    +0.144 HD
ENDBRANCH   5  10
BRANCH   1  13
ATOM     13  C   LIG    1        0.047   1.072  -0.014  0.00  0.00    +0.117 C 
BRANCH  13  14
ATOM     14  C   LIG    1       -0.675   1.493  -1.295  0.00  0.00    +0.134 C 
ATOM     15  C   LIG    1       -0.013   0.819  -2.499  0.00  0.00    +0.040 C 
BRANCH  14  16
ATOM     16  O   LIG    1       -2.046   1.097  -1.222  0.00  0.00    -0.390 OA
ATOM     17  H   LIG    1       -2.727   1.316  -2.057  0.00  0.00    +0.210 HD
ENDBRANCH  14  16
ENDBRANCH  13  14
BRANCH  13  18
ATOM     18  C   LIG    1        1.478   1.616  -0.033  0.00  0.00    +0.028 C 
BRANCH  18  19
ATOM     19  C   LIG    1        2.240   1.087   1.184  0.00  0.00    +0.002 C 
BRANCH  19  20
ATOM     20  C   LIG    1        3.630   1.724   1.231  0.00  0.00    +0.000 C 
BRANCH  20  21
ATOM     21  C   LIG    1        4.393   1.195   2.448  0.00  0.00    -0.000 C 
BRANCH  21  23
ATOM     22  C   LIG    1        6.545   1.303   3.711  0.00  0.00    +0.004 C 
ATOM     23  C   LIG    1        5.783   1.832   2.495  0.00  0.00    -0.003 C 
ENDBRANCH  21  23
ENDBRANCH  20  21
ENDBRANCH  19  20
ENDBRANCH  18  19
ENDBRANCH  13  18
ENDBRANCH   1  13
TORSDOF 9
