REMARK  Name = ZINC28332661
REMARK                            x       y       z     vdW  Elec       q    Type
REMARK                         _______ _______ _______ _____ _____    ______ ____
ROOT
ATOM      1  C   LIG    1       -0.041   1.518  -0.001  0.00  0.00    +0.064 C 
ATOM      2  C   LIG    1       -0.009   0.011   0.000  0.00  0.00    +0.028 A 
ATOM      3  C   LIG    1        0.007  -0.775  -1.117  0.00  0.00    +0.050 A 
ATOM      4  C   LIG    1        0.038  -2.172  -0.643  0.00  0.00    +0.011 A 
ATOM      5  C   LIG    1        0.065  -3.409  -1.282  0.00  0.00    +0.012 A 
ATOM      6  C   LIG    1        0.091  -4.564  -0.530  0.00  0.00    +0.015 A 
ATOM      7  C   LIG    1        0.091  -4.497   0.856  0.00  0.00    +0.015 A 
ATOM      8  I   LIG    1        0.132  -6.265   1.979  0.00  0.00    -0.044 I 
ATOM      9  C   LIG    1        0.065  -3.279   1.500  0.00  0.00    +0.040 A 
ATOM     10  C   LIG    1        0.039  -2.102   0.759  0.00  0.00    +0.051 A 
ATOM     11  N   LIG    1        0.015  -0.767   1.108  0.00  0.00    -0.342 N 
ENDROOT
BRANCH   3  12
ATOM     12  C   LIG    1       -0.005  -0.320  -2.512  0.00  0.00    +0.195 C 
ATOM     13  O   LIG    1       -1.059  -0.238  -3.116  0.00  0.00    -0.287 OA
BRANCH  12  14
ATOM     14  C   LIG    1        1.260   0.037  -3.184  0.00  0.00    +0.023 A 
ATOM     15  C   LIG    1        2.480  -0.169  -2.534  0.00  0.00    +0.015 A 
ATOM     16  C   LIG    1        3.658   0.166  -3.164  0.00  0.00    +0.046 A 
ATOM     17  C   LIG    1        3.635   0.708  -4.444  0.00  0.00    +0.120 A 
ATOM     18  C   LIG    1        2.423   0.914  -5.093  0.00  0.00    +0.046 A 
ATOM     19  C   LIG    1        1.241   0.577  -4.473  0.00  0.00    +0.015 A 
BRANCH  17  20
ATOM     20  O   LIG    1        4.798   1.037  -5.061  0.00  0.00    -0.495 OA
ATOM     21  C   LIG    1        4.701   1.589  -6.375  0.00  0.00    +0.277 C 
ENDBRANCH  17  20
ENDBRANCH  12  14
ENDBRANCH   3  12
BRANCH  11  22
ATOM     22  C   LIG    1        0.012  -0.263   2.483  0.00  0.00    +0.137 C 
BRANCH  22  23
ATOM     23  C   LIG    1       -1.431  -0.119   2.971  0.00  0.00    +0.106 C 
BRANCH  23  24
ATOM     24  N   LIG    1       -1.434   0.387   4.350  0.00  0.00    -0.296 NA
ATOM     25  C   LIG    1       -0.856  -0.600   5.274  0.00  0.00    +0.112 C 
ATOM     26  C   LIG    1       -0.824  -0.011   6.687  0.00  0.00    +0.175 C 
ATOM     27  O   LIG    1       -2.147   0.377   7.066  0.00  0.00    -0.377 OA
ATOM     28  C   LIG    1       -2.740   1.338   6.189  0.00  0.00    +0.175 C 
ATOM     29  C   LIG    1       -2.791   0.762   4.771  0.00  0.00    +0.112 C 
ENDBRANCH  23  24
ENDBRANCH  22  23
ENDBRANCH  11  22
TORSDOF 6
