REMARK  Name = ZINC18098320
REMARK                            x       y       z     vdW  Elec       q    Type
REMARK                         _______ _______ _______ _____ _____    ______ ____
ROOT
ATOM      1  C   LIG    1        3.630   2.776  -0.458  0.00  0.00    +0.003 C 
ENDROOT
BRANCH   1   2
ATOM      2  C   LIG    1        2.285   2.088  -0.700  0.00  0.00    +0.037 C 
BRANCH   2   3
ATOM      3  C   LIG    1        2.403   1.143  -1.897  0.00  0.00    +0.196 C 
BRANCH   3   4
ATOM      4  N   LIG    1        1.088   0.573  -2.201  0.00  0.00    -0.276 N 
ATOM      5  H   LIG    1        0.308   0.860  -1.701  0.00  0.00    +0.258 HD
BRANCH   4   7
ATOM      6  N   LIG    1       -0.234  -0.823  -3.512  0.00  0.00    -0.003 NA
ATOM      7  C   LIG    1        0.961  -0.363  -3.188  0.00  0.00    +0.390 C 
BRANCH   7   8
ATOM      8  N   LIG    1        2.070  -0.823  -3.841  0.00  0.00    -0.289 N 
ATOM      9  H   LIG    1        2.948  -0.485  -3.603  0.00  0.00    +0.255 HD
ATOM     10  H   LIG    1        1.980  -1.487  -4.542  0.00  0.00    +0.255 HD
ENDBRANCH   7   8
BRANCH   6  12
ATOM     11  N   LIG    1       -1.621  -0.464  -1.703  0.00  0.00    -0.070 NA
ATOM     12  C   LIG    1       -1.336  -0.269  -2.976  0.00  0.00    +0.430 C 
BRANCH  11  19
ATOM     13  C   LIG    1       -0.272  -0.946   0.218  0.00  0.00    +0.047 A 
ATOM     14  C   LIG    1        0.464  -1.849   0.956  0.00  0.00    +0.023 A 
ATOM     15  C   LIG    1        0.594  -3.159   0.524  0.00  0.00    +0.041 A 
ATOM     16 CL   LIG    1        1.523  -4.289   1.458  0.00  0.00    -0.084 Cl
ATOM     17  C   LIG    1       -0.015  -3.570  -0.650  0.00  0.00    +0.023 A 
ATOM     18  C   LIG    1       -0.754  -2.676  -1.397  0.00  0.00    +0.047 A 
ATOM     19  C   LIG    1       -0.889  -1.354  -0.967  0.00  0.00    +0.142 A 
ENDBRANCH  11  19
BRANCH  12  20
ATOM     20  N   LIG    1       -2.168   0.504  -3.758  0.00  0.00    -0.286 N 
ATOM     21  H   LIG    1       -1.959   0.648  -4.694  0.00  0.00    +0.255 HD
ATOM     22  H   LIG    1       -2.963   0.904  -3.372  0.00  0.00    +0.255 HD
ENDBRANCH  12  20
ENDBRANCH   6  12
ENDBRANCH   4   7
ENDBRANCH   3   4
ENDBRANCH   2   3
ENDBRANCH   1   2
BRANCH   1  23
ATOM     23  C   LIG    1        3.547   3.628   0.810  0.00  0.00    +0.003 C 
BRANCH  23  24
ATOM     24  C   LIG    1        4.851   4.409   0.986  0.00  0.00    +0.037 C 
BRANCH  24  25
ATOM     25  C   LIG    1        4.767   5.261   2.254  0.00  0.00    +0.196 C 
BRANCH  25  26
ATOM     26  N   LIG    1        6.016   6.009   2.423  0.00  0.00    -0.276 N 
ATOM     27  H   LIG    1        6.731   5.911   1.775  0.00  0.00    +0.258 HD
BRANCH  26  28
ATOM     28  C   LIG    1        6.174   6.848   3.500  0.00  0.00    +0.388 C 
ATOM     29  N   LIG    1        5.184   7.045   4.323  0.00  0.00    -0.129 NA
ATOM     30  H   LIG    1        5.271   7.693   5.040  0.00  0.00    +0.306 HD
BRANCH  28  31
ATOM     31  N   LIG    1        7.381   7.482   3.709  0.00  0.00    -0.186 N 
ATOM     32  H   LIG    1        7.468   8.138   4.418  0.00  0.00    +0.271 HD
BRANCH  31  33
ATOM     33  C   LIG    1        8.463   7.183   2.912  0.00  0.00    +0.394 C 
ATOM     34  N   LIG    1        8.401   6.177   2.071  0.00  0.00    -0.073 NA
BRANCH  34  35
ATOM     35  C   LIG    1        9.425   5.957   1.189  0.00  0.00    +0.142 A 
ATOM     36  C   LIG    1        9.850   6.979   0.338  0.00  0.00    +0.047 A 
ATOM     37  C   LIG    1       10.882   6.751  -0.548  0.00  0.00    +0.023 A 
ATOM     38  C   LIG    1       11.497   5.511  -0.595  0.00  0.00    +0.041 A 
ATOM     39 CL   LIG    1       12.794   5.231  -1.714  0.00  0.00    -0.084 Cl
ATOM     40  C   LIG    1       11.080   4.493   0.246  0.00  0.00    +0.023 A 
ATOM     41  C   LIG    1       10.053   4.711   1.141  0.00  0.00    +0.047 A 
ENDBRANCH  34  35
BRANCH  33  42
ATOM     42  N   LIG    1        9.607   7.937   2.995  0.00  0.00    -0.288 N 
ATOM     43  H   LIG    1        9.584   8.807   3.422  0.00  0.00    +0.255 HD
ATOM     44  H   LIG    1       10.439   7.598   2.628  0.00  0.00    +0.255 HD
ENDBRANCH  33  42
ENDBRANCH  31  33
ENDBRANCH  28  31
ENDBRANCH  26  28
ENDBRANCH  25  26
ENDBRANCH  24  25
ENDBRANCH  23  24
ENDBRANCH   1  23
TORSDOF 17
