REMARK  Name = ZINC00044027
REMARK                            x       y       z     vdW  Elec       q    Type
REMARK                         _______ _______ _______ _____ _____    ______ ____
ROOT
ATOM      1  N   LIG    1       -4.186  -0.254  -2.519  0.00  0.00    -0.298 N 
ATOM      2  C   LIG    1       -4.947   0.911  -2.504  0.00  0.00    +0.048 A 
ATOM      3  C   LIG    1       -5.447   1.371  -1.290  0.00  0.00    +0.024 A 
ATOM      4  C   LIG    1       -6.201   2.527  -1.238  0.00  0.00    +0.002 A 
ATOM      5  C   LIG    1       -6.465   3.238  -2.393  0.00  0.00    +0.001 A 
ATOM      6  C   LIG    1       -5.975   2.790  -3.606  0.00  0.00    +0.017 A 
ATOM      7  C   LIG    1       -5.218   1.629  -3.666  0.00  0.00    +0.034 A 
ATOM      8  S   LIG    1       -4.610   1.068  -5.221  0.00  0.00    -0.086 S 
ATOM      9  C   LIG    1       -4.173  -0.613  -4.927  0.00  0.00    +0.034 A 
ATOM     10  C   LIG    1       -3.986  -1.468  -6.003  0.00  0.00    +0.018 A 
ATOM     11  C   LIG    1       -3.634  -2.784  -5.792  0.00  0.00    +0.021 A 
ATOM     12  C   LIG    1       -3.478  -3.256  -4.502  0.00  0.00    +0.043 A 
ATOM     13 CL   LIG    1       -3.047  -4.917  -4.235  0.00  0.00    -0.083 Cl
ATOM     14  C   LIG    1       -3.664  -2.410  -3.424  0.00  0.00    +0.044 A 
ATOM     15  C   LIG    1       -4.010  -1.079  -3.627  0.00  0.00    +0.049 A 
ENDROOT
BRANCH   1  16
ATOM     16  C   LIG    1       -3.513  -0.640  -1.275  0.00  0.00    +0.109 C 
BRANCH  16  17
ATOM     17  C   LIG    1       -4.438  -1.540  -0.453  0.00  0.00    +0.001 C 
BRANCH  17  18
ATOM     18  C   LIG    1       -3.736  -1.942   0.845  0.00  0.00    -0.078 C 
BRANCH  18  20
ATOM     19  C   LIG    1       -4.854  -4.064   0.911  0.00  0.00    -0.097 C 
ATOM     20  N   LIG    1       -4.624  -2.806   1.634  0.00  0.00    +0.376 N 
ATOM     21  H   LIG    1       -5.506  -2.337   1.782  0.00  0.00    -0.083 HD
ATOM     22  C   LIG    1       -4.000  -3.095   2.932  0.00  0.00    -0.097 C 
ENDBRANCH  18  20
ENDBRANCH  17  18
ENDBRANCH  16  17
ENDBRANCH   1  16
TORSDOF 4
