REMARK  Name = ZINC26577909
REMARK                            x       y       z     vdW  Elec       q    Type
REMARK                         _______ _______ _______ _____ _____    ______ ____
ROOT
ATOM      1  C   LIG    1       -1.492  -1.872   0.252  0.00  0.00    +0.285 C 
ATOM      2  C   LIG    1       -2.759  -2.399   0.144  0.00  0.00    +0.072 C 
ATOM      3  C   LIG    1       -2.981  -3.835  -0.293  0.00  0.00    +0.142 C 
ATOM      4  C   LIG    1       -4.428  -4.289  -0.370  0.00  0.00    +0.082 C 
ATOM      5  C   LIG    1       -5.407  -3.361  -0.038  0.00  0.00    +0.083 C 
ATOM      6  N   LIG    1       -5.103  -2.118   0.336  0.00  0.00    -0.251 NA
ATOM      7  C   LIG    1       -3.889  -1.634   0.439  0.00  0.00    +0.050 C 
ATOM      8  C   LIG    1       -3.709  -0.205   0.884  0.00  0.00    +0.066 C 
ENDROOT
BRANCH   5   9
ATOM      9  C   LIG    1       -6.830  -3.765  -0.101  0.00  0.00    +0.001 A 
ATOM     10  C   LIG    1       -7.293  -4.821   0.685  0.00  0.00    +0.010 A 
ATOM     11  C   LIG    1       -8.621  -5.193   0.622  0.00  0.00    +0.001 A 
ATOM     12  C   LIG    1       -9.491  -4.521  -0.218  0.00  0.00    +0.000 A 
ATOM     13  C   LIG    1       -9.037  -3.473  -1.000  0.00  0.00    +0.001 A 
ATOM     14  C   LIG    1       -7.713  -3.088  -0.941  0.00  0.00    +0.010 A 
ENDBRANCH   5   9
BRANCH   1  15
ATOM     15  O   LIG    1       -0.415  -2.668   0.091  0.00  0.00    -0.480 OA
ATOM     16  H   LIG    1        0.447  -2.309   0.164  0.00  0.00    +0.295 HD
ENDBRANCH   1  15
BRANCH   3  17
ATOM     17  C   LIG    1       -2.378  -4.009  -1.625  0.00  0.00    -0.084 C 
ATOM     18  C   LIG    1       -1.897  -4.147  -2.687  0.00  0.00    -0.065 C 
BRANCH  18  19
ATOM     19  C   LIG    1       -1.310  -4.316  -3.982  0.00  0.00    +0.025 A 
ATOM     20  C   LIG    1       -0.669  -3.245  -4.605  0.00  0.00    +0.017 A 
ATOM     21  C   LIG    1       -0.105  -3.414  -5.853  0.00  0.00    +0.001 A 
ATOM     22  C   LIG    1       -0.174  -4.643  -6.486  0.00  0.00    +0.000 A 
ATOM     23  C   LIG    1       -0.808  -5.708  -5.873  0.00  0.00    +0.001 A 
ATOM     24  C   LIG    1       -1.371  -5.554  -4.623  0.00  0.00    +0.017 A 
ENDBRANCH  18  19
ENDBRANCH   3  17
BRANCH   4  25
ATOM     25  C   LIG    1       -4.763  -5.592  -0.762  0.00  0.00    +0.339 C 
ATOM     26  O   LIG    1       -5.931  -5.899  -0.921  0.00  0.00    -0.245 OA
BRANCH  25  27
ATOM     27  O   LIG    1       -3.790  -6.508  -0.963  0.00  0.00    -0.457 OA
BRANCH  27  28
ATOM     28  C   LIG    1       -4.203  -7.817  -1.361  0.00  0.00    +0.268 C 
BRANCH  28  29
ATOM     29  C   LIG    1       -2.991  -8.694  -1.536  0.00  0.00    -0.008 A 
ATOM     30  C   LIG    1       -2.361  -8.766  -2.765  0.00  0.00    +0.007 A 
ATOM     31  C   LIG    1       -1.249  -9.571  -2.925  0.00  0.00    +0.003 A 
ATOM     32  C   LIG    1       -0.767 -10.305  -1.858  0.00  0.00    +0.032 A 
ATOM     33  C   LIG    1       -1.396 -10.233  -0.629  0.00  0.00    +0.122 A 
ATOM     34  C   LIG    1       -2.506  -9.424  -0.467  0.00  0.00    +0.039 A 
BRANCH  33  35
ATOM     35  N   LIG    1       -0.880 -11.019   0.514  0.00  0.00    +0.006 N 
ATOM     36  O   LIG    1        0.092 -11.724   0.373  0.00  0.00    -0.130 OA
BRANCH  35  37
ATOM     37  O   LIG    1       -1.431 -10.957   1.588  0.00  0.00    -0.396 OA
ATOM     38  H   LIG    1       -2.184 -10.410   1.698  0.00  0.00    +0.329 HD
ENDBRANCH  35  37
ENDBRANCH  33  35
ENDBRANCH  28  29
ENDBRANCH  27  28
ENDBRANCH  25  27
ENDBRANCH   4  25
BRANCH   1  39
ATOM     39  O   LIG    1       -1.327  -0.561   0.518  0.00  0.00    -0.464 OA
BRANCH  39  41
ATOM     40  C   LIG    1        0.003   1.416   0.920  0.00  0.00    +0.048 C 
ATOM     41  C   LIG    1        0.016  -0.083   0.616  0.00  0.00    +0.229 C 
ENDBRANCH  39  41
ENDBRANCH   1  39
TORSDOF 12
