REMARK  Name = ZINC14974435
REMARK                            x       y       z     vdW  Elec       q    Type
REMARK                         _______ _______ _______ _____ _____    ______ ____
ROOT
ATOM      1  C   LIG    1       -1.622   0.144  -2.646  0.00  0.00    +0.008 C 
ATOM      2  C   LIG    1       -0.649  -0.807  -1.937  0.00  0.00    -0.007 C 
ATOM      3  C   LIG    1       -1.062  -0.933  -0.470  0.00  0.00    +0.037 C 
ATOM      4  C   LIG    1       -0.784  -2.335   0.066  0.00  0.00    +0.147 C 
ATOM      5  C   LIG    1       -2.073  -3.155   0.119  0.00  0.00    +0.150 C 
ATOM      6  C   LIG    1       -1.773  -4.566   0.640  0.00  0.00    +0.040 C 
ATOM      7  C   LIG    1       -2.743  -4.882   1.783  0.00  0.00    +0.014 C 
ATOM      8  C   LIG    1       -1.955  -5.560  -0.472  0.00  0.00    -0.019 C 
ATOM      9  C   LIG    1       -1.337  -6.709  -0.515  0.00  0.00    -0.033 C 
ATOM     10  C   LIG    1       -0.414  -7.167   0.583  0.00  0.00    +0.042 C 
ATOM     11  C   LIG    1       -1.555  -7.623  -1.706  0.00  0.00    +0.236 C 
ATOM     12  C   LIG    1       -1.155  -6.865  -2.970  0.00  0.00    +0.186 C 
ATOM     13  C   LIG    1       -0.507  -7.781  -3.980  0.00  0.00    +0.008 C 
ATOM     14  C   LIG    1        0.070  -7.226  -5.064  0.00  0.00    -0.001 C 
ATOM     15  C   LIG    1       -0.001  -5.829  -5.205  0.00  0.00    +0.008 C 
ATOM     16  C   LIG    1        0.880  -5.041  -5.866  0.00  0.00    +0.013 C 
ATOM     17  C   LIG    1        2.060  -5.608  -6.591  0.00  0.00    +0.049 C 
ATOM     18  C   LIG    1        0.617  -3.616  -5.826  0.00  0.00    +0.264 C 
ATOM     19  N   LIG    1        1.338  -2.627  -6.333  0.00  0.00    -0.173 NA
ATOM     20  C   LIG    1        1.556  -1.542  -5.619  0.00  0.00    +0.107 C 
ATOM     21  C   LIG    1        2.116  -0.378  -6.201  0.00  0.00    +0.078 C 
ATOM     22  C   LIG    1        2.175   0.777  -5.490  0.00  0.00    +0.161 C 
ATOM     23  C   LIG    1        1.690   0.841  -4.101  0.00  0.00    +0.168 C 
ATOM     24  C   LIG    1        1.235  -0.270  -3.473  0.00  0.00    +0.047 C 
ATOM     25  C   LIG    1        1.196  -1.503  -4.173  0.00  0.00    +0.209 C 
ATOM     26  O   LIG    1        0.911  -2.522  -3.571  0.00  0.00    -0.285 OA
ATOM     27  O   LIG    1       -0.442  -3.300  -5.279  0.00  0.00    -0.268 OA
ATOM     28  C   LIG    1        0.765  -0.238  -2.042  0.00  0.00    +0.046 C 
ENDROOT
BRANCH   4  29
ATOM     29  O   LIG    1        0.177  -3.001  -0.753  0.00  0.00    -0.377 OA
ATOM     30  C   LIG    1        1.145  -3.753  -0.019  0.00  0.00    +0.194 C 
ENDBRANCH   4  29
BRANCH   5  31
ATOM     31  O   LIG    1       -3.004  -2.523   1.001  0.00  0.00    -0.389 OA
ATOM     32  H   LIG    1       -3.846  -2.990   1.083  0.00  0.00    +0.210 HD
ENDBRANCH   5  31
BRANCH  12  33
ATOM     33  O   LIG    1       -0.222  -5.840  -2.601  0.00  0.00    -0.372 OA
ATOM     34  C   LIG    1        1.046  -6.336  -2.167  0.00  0.00    +0.195 C 
ENDBRANCH  12  33
BRANCH  23  35
ATOM     35  O   LIG    1        1.694   2.028  -3.452  0.00  0.00    -0.491 OA
ATOM     36  C   LIG    1        0.821   3.043  -3.952  0.00  0.00    +0.277 C 
ENDBRANCH  23  35
BRANCH  22  37
ATOM     37  O   LIG    1        2.693   1.890  -6.063  0.00  0.00    -0.503 OA
ATOM     38  H   LIG    1        3.005   1.860  -6.946  0.00  0.00    +0.292 HD
ENDBRANCH  22  37
BRANCH  11  39
ATOM     39  O   LIG    1       -0.740  -8.784  -1.558  0.00  0.00    -0.440 OA
BRANCH  39  40
ATOM     40  C   LIG    1       -1.280  -9.833  -0.908  0.00  0.00    +0.398 C 
ATOM     41  N   LIG    1       -0.563 -10.960  -0.734  0.00  0.00    -0.295 N 
ATOM     42  H   LIG    1       -0.953 -11.716  -0.266  0.00  0.00    +0.148 HD
ATOM     43  H   LIG    1        0.343 -11.017  -1.076  0.00  0.00    +0.148 HD
ATOM     44  O   LIG    1       -2.415  -9.762  -0.479  0.00  0.00    -0.227 OA
ENDBRANCH  39  40
ENDBRANCH  11  39
TORSDOF 7
