REMARK  Name = ZINC13819654
REMARK                            x       y       z     vdW  Elec       q    Type
REMARK                         _______ _______ _______ _____ _____    ______ ____
ROOT
ATOM      1  O   LIG    1       -0.682   1.547   1.184  0.00  0.00    -0.492 OA
ENDROOT
BRANCH   1   2
ATOM      2  C   LIG    1       -0.149   1.182   2.380  0.00  0.00    +0.140 A 
ATOM      3  C   LIG    1       -0.742   1.591   3.570  0.00  0.00    +0.068 A 
ATOM      4  C   LIG    1       -0.162   1.193   4.765  0.00  0.00    +0.062 A 
ATOM      5 CL   LIG    1       -0.858   1.673   6.281  0.00  0.00    -0.082 Cl
ATOM      6  C   LIG    1        0.978   0.410   4.734  0.00  0.00    +0.131 A 
ATOM      7  N   LIG    1        1.514   0.040   3.588  0.00  0.00    -0.258 NA
ATOM      8  C   LIG    1        0.991   0.393   2.431  0.00  0.00    +0.156 A 
ENDBRANCH   1   2
BRANCH   1   9
ATOM      9  C   LIG    1       -0.013   1.086   0.008  0.00  0.00    +0.210 C 
BRANCH   9  10
ATOM     10  C   LIG    1       -0.753   1.593  -1.232  0.00  0.00    -0.041 C 
BRANCH  10  12
ATOM     11  C   LIG    1       -1.371   3.582  -2.466  0.00  0.00    -0.100 C 
ATOM     12  N   LIG    1       -0.664   3.064  -1.279  0.00  0.00    +0.379 N 
ATOM     13  H   LIG    1        0.323   3.343  -1.324  0.00  0.00    -0.086 HD
ATOM     14  H   LIG    1       -1.093   3.457  -0.432  0.00  0.00    -0.086 HD
ENDBRANCH  10  12
ENDBRANCH   9  10
ENDBRANCH   1   9
TORSDOF 4
