REMARK  Name = ZINC19015148
REMARK                            x       y       z     vdW  Elec       q    Type
REMARK                         _______ _______ _______ _____ _____    ______ ____
ROOT
ATOM      1  N   LIG    1        0.075   5.189   0.027  0.00  0.00    -0.318 N 
ATOM      2  C   LIG    1       -0.758   5.735   1.107  0.00  0.00    +0.087 C 
ATOM      3  C   LIG    1       -0.750   7.264   1.030  0.00  0.00    -0.063 C 
ATOM      4  N   LIG    1        0.636   7.755   1.146  0.00  0.00    +0.381 N 
ATOM      5  H   LIG    1        0.639   8.780   1.086  0.00  0.00    -0.086 HD
ATOM      6  H   LIG    1        1.025   7.464   2.050  0.00  0.00    -0.086 HD
ATOM      7  C   LIG    1        1.467   7.202   0.059  0.00  0.00    -0.063 C 
ATOM      8  C   LIG    1        1.458   5.674   0.136  0.00  0.00    +0.087 C 
ENDROOT
BRANCH   1  13
ATOM      9  C   LIG    1       -0.021   1.076   0.031  0.00  0.00    +0.021 A 
ATOM     10  C   LIG    1       -0.923   1.756  -0.777  0.00  0.00    +0.025 A 
ATOM     11  C   LIG    1       -0.897   3.139  -0.777  0.00  0.00    +0.081 A 
ATOM     12 CL   LIG    1       -2.006   4.040  -1.763  0.00  0.00    -0.080 Cl
ATOM     13  C   LIG    1        0.034   3.799   0.021  0.00  0.00    +0.140 A 
ATOM     14  N   LIG    1        0.881   3.114   0.773  0.00  0.00    -0.239 NA
ATOM     15  C   LIG    1        0.875   1.794   0.796  0.00  0.00    +0.113 A 
ENDBRANCH   1  13
TORSDOF 1
