REMARK  Name = ZINC22055590
REMARK                            x       y       z     vdW  Elec       q    Type
REMARK                         _______ _______ _______ _____ _____    ______ ____
ROOT
ATOM      1  C   LIG    1        2.900   6.491   5.173  0.00  0.00    +0.051 C 
ATOM      2  C   LIG    1        2.582   5.987   3.789  0.00  0.00    -0.011 A 
ATOM      3  C   LIG    1        1.618   6.406   2.949  0.00  0.00    +0.028 A 
ATOM      4  C   LIG    1        1.518   5.756   1.656  0.00  0.00    +0.094 A 
ATOM      5  C   LIG    1        2.439   4.733   1.439  0.00  0.00    +0.085 A 
ATOM      6  N   LIG    1        2.508   3.929   0.316  0.00  0.00    -0.305 N 
ATOM      7  H   LIG    1        3.442   3.872  -0.264  0.00  0.00    +0.153 HD
ATOM      8  C   LIG    1        1.332   3.214  -0.016  0.00  0.00    +0.083 A 
ATOM      9  C   LIG    1        1.382   1.837  -0.093  0.00  0.00    +0.027 A 
ATOM     10  C   LIG    1        0.230   1.111  -0.354  0.00  0.00    +0.002 A 
ATOM     11  C   LIG    1       -0.969   1.770  -0.543  0.00  0.00    +0.004 A 
ATOM     12  C   LIG    1       -1.029   3.148  -0.474  0.00  0.00    +0.057 A 
ATOM     13  C   LIG    1        0.128   3.897  -0.223  0.00  0.00    +0.197 A 
ATOM     14  N   LIG    1        0.019   5.253  -0.210  0.00  0.00    -0.040 NA
ATOM     15  C   LIG    1        0.540   6.112   0.601  0.00  0.00    +0.324 C 
ATOM     16  S   LIG    1        3.389   4.690   2.871  0.00  0.00    -0.078 S 
ENDROOT
BRANCH  15  17
ATOM     17  N   LIG    1        0.166   7.431   0.479  0.00  0.00    -0.218 N 
ATOM     18  C   LIG    1       -0.900   7.831  -0.452  0.00  0.00    +0.241 C 
ATOM     19  C   LIG    1       -0.386   8.972  -1.328  0.00  0.00    +0.124 C 
ATOM     20  N   LIG    1        0.130  10.050  -0.473  0.00  0.00    -0.309 NA
ATOM     21  H   LIG    1        0.451  10.894  -1.101  0.00  0.00    +0.122 HD
ATOM     22  C   LIG    1        1.277   9.596   0.324  0.00  0.00    +0.124 C 
ATOM     23  C   LIG    1        0.827   8.480   1.272  0.00  0.00    +0.241 C 
ENDBRANCH  15  17
TORSDOF 1
