REMARK  Name = ZINC19367353
REMARK                            x       y       z     vdW  Elec       q    Type
REMARK                         _______ _______ _______ _____ _____    ______ ____
ROOT
ATOM      1  N   LIG    1       -2.247  -6.479  -2.920  0.00  0.00    +0.383 N 
ATOM      2  H   LIG    1       -1.536  -6.383  -3.630  0.00  0.00    -0.082 HD
ATOM      3  C   LIG    1       -3.309  -5.491  -3.155  0.00  0.00    -0.063 C 
ATOM      4  C   LIG    1       -3.916  -5.715  -4.542  0.00  0.00    +0.066 C 
ATOM      5  N   LIG    1       -4.464  -7.077  -4.620  0.00  0.00    -0.304 NA
ATOM      6  C   LIG    1       -3.418  -8.076  -4.362  0.00  0.00    +0.066 C 
ATOM      7  C   LIG    1       -2.815  -7.833  -2.977  0.00  0.00    -0.063 C 
ENDROOT
BRANCH   1   8
ATOM      8  C   LIG    1       -1.652  -6.253  -1.597  0.00  0.00    -0.044 C 
BRANCH   8   9
ATOM      9  C   LIG    1       -0.953  -4.892  -1.578  0.00  0.00    +0.135 C 
BRANCH   9  10
ATOM     10  O   LIG    1        0.074  -4.871  -2.571  0.00  0.00    -0.390 OA
ATOM     11  H   LIG    1        0.756  -5.544  -2.446  0.00  0.00    +0.210 HD
ENDBRANCH   9  10
BRANCH   9  12
ATOM     12  C   LIG    1       -0.333  -4.656  -0.199  0.00  0.00    +0.258 C 
BRANCH  12  13
ATOM     13  O   LIG    1        0.219  -3.339  -0.144  0.00  0.00    -0.489 OA
BRANCH  13  19
ATOM     14  C   LIG    1        1.369  -1.702   1.144  0.00  0.00    -0.002 A 
ATOM     15  C   LIG    1        1.966  -1.324   2.331  0.00  0.00    +0.007 A 
ATOM     16  C   LIG    1        2.014  -2.207   3.394  0.00  0.00    +0.001 A 
ATOM     17  C   LIG    1        1.465  -3.470   3.272  0.00  0.00    +0.004 A 
ATOM     18  C   LIG    1        0.866  -3.853   2.087  0.00  0.00    +0.046 A 
ATOM     19  C   LIG    1        0.812  -2.967   1.021  0.00  0.00    +0.124 A 
BRANCH  14  20
ATOM     20  C   LIG    1        1.317  -0.740  -0.015  0.00  0.00    +0.065 C 
BRANCH  20  22
ATOM     21  C   LIG    1       -0.016   1.306   0.009  0.00  0.00    +0.004 C 
ATOM     22  C   LIG    1        0.002  -0.004   0.002  0.00  0.00    -0.030 C 
ENDBRANCH  20  22
ENDBRANCH  14  20
ENDBRANCH  13  19
ENDBRANCH  12  13
ENDBRANCH   9  12
ENDBRANCH   8   9
ENDBRANCH   1   8
BRANCH   5  23
ATOM     23  C   LIG    1       -5.108  -7.312  -5.919  0.00  0.00    +0.106 C 
BRANCH  23  24
ATOM     24  C   LIG    1       -5.878  -8.633  -5.875  0.00  0.00    +0.144 C 
BRANCH  24  25
ATOM     25  N   LIG    1       -6.519  -8.867  -7.171  0.00  0.00    -0.274 N 
ATOM     26  C   LIG    1       -7.764  -8.394  -7.374  0.00  0.00    +0.262 A 
ATOM     27  C   LIG    1       -8.440  -8.608  -8.661  0.00  0.00    +0.048 A 
ATOM     28  C   LIG    1       -9.721  -8.138  -8.912  0.00  0.00    +0.014 A 
ATOM     29  C   LIG    1      -10.319  -8.366 -10.146  0.00  0.00    +0.001 A 
ATOM     30  C   LIG    1       -9.676  -9.051 -11.137  0.00  0.00    +0.008 A 
ATOM     31  C   LIG    1       -8.377  -9.544 -10.923  0.00  0.00    -0.016 A 
ATOM     32  C   LIG    1       -7.673 -10.254 -11.912  0.00  0.00    +0.008 A 
ATOM     33  C   LIG    1       -6.413 -10.714 -11.656  0.00  0.00    +0.001 A 
ATOM     34  C   LIG    1       -5.794 -10.499 -10.431  0.00  0.00    +0.014 A 
ATOM     35  C   LIG    1       -6.454  -9.803  -9.429  0.00  0.00    +0.048 A 
ATOM     36  C   LIG    1       -7.759  -9.319  -9.675  0.00  0.00    +0.007 A 
ATOM     37  O   LIG    1       -8.331  -7.785  -6.487  0.00  0.00    -0.267 OA
ATOM     38  C   LIG    1       -5.841  -9.544  -8.118  0.00  0.00    +0.262 A 
ATOM     39  O   LIG    1       -4.718  -9.947  -7.885  0.00  0.00    -0.267 OA
ENDBRANCH  24  25
ENDBRANCH  23  24
ENDBRANCH   5  23
TORSDOF 11
