REMARK  Name = ZINC16156255
REMARK                            x       y       z     vdW  Elec       q    Type
REMARK                         _______ _______ _______ _____ _____    ______ ____
ROOT
ATOM      1  C   LIG    1       -0.018   1.503   0.010  0.00  0.00    +0.068 C 
ATOM      2  C   LIG    1        0.002  -0.004   0.002  0.00  0.00    +0.069 C 
ATOM      3  N   LIG    1        0.008  -0.765  -1.050  0.00  0.00    -0.177 NA
ATOM      4  N   LIG    1        0.028  -2.115  -0.700  0.00  0.00    -0.156 N 
ATOM      5  C   LIG    1        0.035  -2.244   0.642  0.00  0.00    +0.272 C 
ATOM      6  O   LIG    1        0.052  -3.284   1.279  0.00  0.00    -0.268 OA
ATOM      7  C   LIG    1        0.025  -0.877   1.182  0.00  0.00    +0.065 C 
ATOM      8  C   LIG    1        0.033  -0.494   2.521  0.00  0.00    +0.061 C 
ENDROOT
BRANCH   4   9
ATOM      9  C   LIG    1        0.039  -3.181  -1.609  0.00  0.00    +0.060 A 
ATOM     10  C   LIG    1        0.052  -4.490  -1.146  0.00  0.00    +0.027 A 
ATOM     11  C   LIG    1        0.062  -5.538  -2.045  0.00  0.00    +0.030 A 
ATOM     12  C   LIG    1        0.059  -5.286  -3.405  0.00  0.00    +0.105 A 
ATOM     13  C   LIG    1        0.046  -3.983  -3.869  0.00  0.00    +0.030 A 
ATOM     14  C   LIG    1        0.030  -2.930  -2.975  0.00  0.00    +0.027 A 
BRANCH  12  15
ATOM     15  S   LIG    1        0.072  -6.626  -4.548  0.00  0.00    +0.056 S 
ATOM     16  O   LIG    1        0.634  -7.738  -3.864  0.00  0.00    -0.153 OA
ATOM     17  O   LIG    1        0.617  -6.121  -5.759  0.00  0.00    -0.153 OA
BRANCH  15  18
ATOM     18  N   LIG    1       -1.506  -7.014  -4.865  0.00  0.00    -0.204 NA
ATOM     19  H   LIG    1       -2.186  -6.874  -4.187  0.00  0.00    +0.144 HD
ATOM     20  H   LIG    1       -1.751  -7.382  -5.729  0.00  0.00    +0.144 HD
ENDBRANCH  15  18
ENDBRANCH  12  15
ENDBRANCH   4   9
BRANCH   8  21
ATOM     21  C   LIG    1        0.056  -1.469   3.529  0.00  0.00    +0.129 A 
ATOM     22  C   LIG    1        0.060  -1.226   4.897  0.00  0.00    +0.050 A 
ATOM     23  C   LIG    1        0.085  -2.469   5.526  0.00  0.00    +0.050 A 
ATOM     24  C   LIG    1        0.095  -3.426   4.531  0.00  0.00    +0.136 A 
ATOM     25  O   LIG    1        0.071  -2.805   3.339  0.00  0.00    -0.455 OA
BRANCH  24  26
ATOM     26  C   LIG    1        0.122  -4.885   4.741  0.00  0.00    +0.018 A 
ATOM     27  C   LIG    1        0.134  -5.402   6.039  0.00  0.00    +0.012 A 
ATOM     28  C   LIG    1        0.158  -6.769   6.245  0.00  0.00    +0.014 A 
ATOM     29  C   LIG    1        0.171  -7.632   5.158  0.00  0.00    +0.049 A 
ATOM     30  C   LIG    1        0.159  -7.116   3.844  0.00  0.00    +0.050 A 
ATOM     31  C   LIG    1        0.178  -8.292   2.948  0.00  0.00    +0.251 C 
ATOM     32  N   LIG    1        0.200  -9.405   3.703  0.00  0.00    -0.248 N 
ATOM     33  H   LIG    1        0.216 -10.308   3.349  0.00  0.00    +0.158 HD
ATOM     34  O   LIG    1        0.176  -8.259   1.734  0.00  0.00    -0.270 OA
ATOM     35  C   LIG    1        0.197  -9.102   5.014  0.00  0.00    +0.251 C 
ATOM     36  O   LIG    1        0.214  -9.903   5.926  0.00  0.00    -0.270 OA
ATOM     37  C   LIG    1        0.129  -5.750   3.639  0.00  0.00    +0.025 A 
ENDBRANCH  24  26
ENDBRANCH   8  21
TORSDOF 5
