REMARK  Name = ZINC34857615
REMARK                            x       y       z     vdW  Elec       q    Type
REMARK                         _______ _______ _______ _____ _____    ______ ____
ROOT
ATOM      1  C   LIG    1        3.654   2.164  -0.022  0.00  0.00    +0.138 A 
ATOM      2  C   LIG    1        4.722   1.949   0.820  0.00  0.00    +0.050 A 
ATOM      3  C   LIG    1        5.708   2.876   0.473  0.00  0.00    +0.050 A 
ATOM      4  C   LIG    1        5.202   3.626  -0.573  0.00  0.00    +0.130 A 
ATOM      5  O   LIG    1        3.962   3.173  -0.857  0.00  0.00    -0.455 OA
ENDROOT
BRANCH   4   6
ATOM      6  C   LIG    1        5.868   4.679  -1.234  0.00  0.00    +0.066 C 
ATOM      7  C   LIG    1        5.252   5.342  -2.257  0.00  0.00    +0.082 C 
ATOM      8  C   LIG    1        5.733   6.420  -3.060  0.00  0.00    +0.258 C 
ATOM      9  N   LIG    1        4.936   6.896  -4.001  0.00  0.00    -0.243 N 
ATOM     10  H   LIG    1        5.241   7.628  -4.559  0.00  0.00    +0.159 HD
ATOM     11  C   LIG    1        3.703   6.378  -4.197  0.00  0.00    +0.283 C 
ATOM     12  O   LIG    1        2.861   6.701  -5.012  0.00  0.00    -0.262 OA
ATOM     13  O   LIG    1        6.844   6.886  -2.884  0.00  0.00    -0.269 OA
ATOM     14  S   LIG    1        3.628   5.091  -2.959  0.00  0.00    -0.026 S 
ENDBRANCH   4   6
BRANCH   1  17
ATOM     15  C   LIG    1       -0.017   1.382   0.010  0.00  0.00    +0.039 A 
ATOM     16  C   LIG    1        1.165   2.092   0.002  0.00  0.00    +0.017 A 
ATOM     17  C   LIG    1        2.386   1.411  -0.013  0.00  0.00    +0.053 A 
ATOM     18  C   LIG    1        2.399   0.011  -0.021  0.00  0.00    +0.137 A 
ATOM     19  F   LIG    1        3.575  -0.654  -0.036  0.00  0.00    -0.205 F 
ATOM     20  C   LIG    1        1.208  -0.687  -0.013  0.00  0.00    +0.077 A 
ATOM     21  C   LIG    1        0.002  -0.004   0.002  0.00  0.00    +0.126 A 
ATOM     22  F   LIG    1       -1.160  -0.692   0.010  0.00  0.00    -0.205 F 
ENDBRANCH   1  17
TORSDOF 2
