REMARK  Name = ZINC26259212
REMARK                            x       y       z     vdW  Elec       q    Type
REMARK                         _______ _______ _______ _____ _____    ______ ____
ROOT
ATOM      1  N   LIG    1        3.815   2.573  -1.371  0.00  0.00    +0.384 N 
ATOM      2  H   LIG    1        2.947   3.243  -1.463  0.00  0.00    -0.081 HD
ATOM      3  C   LIG    1        3.809   1.619  -2.501  0.00  0.00    -0.077 C 
ATOM      4  C   LIG    1        2.489   0.850  -2.521  0.00  0.00    -0.003 C 
ATOM      5  C   LIG    1        2.176   0.235  -1.178  0.00  0.00    +0.042 C 
ATOM      6  C   LIG    1        3.131  -0.862  -0.749  0.00  0.00    +0.011 A 
ATOM      7  C   LIG    1        4.415  -0.624  -0.303  0.00  0.00    -0.041 A 
ATOM      8  C   LIG    1        5.156  -1.764  -0.052  0.00  0.00    +0.007 A 
ATOM      9  C   LIG    1        4.578  -3.014  -0.213  0.00  0.00    +0.049 A 
ATOM     10  C   LIG    1        3.250  -3.218  -0.580  0.00  0.00    +0.159 A 
ATOM     11  C   LIG    1        4.865   0.788  -0.136  0.00  0.00    +0.021 C 
ATOM     12  C   LIG    1        2.475  -2.072  -0.812  0.00  0.00    +0.166 A 
ATOM     13  O   LIG    1        1.167  -1.890  -1.073  0.00  0.00    -0.481 OA
ATOM     14  C   LIG    1        2.351   1.208   0.003  0.00  0.00    +0.012 C 
ATOM     15  C   LIG    1        1.160   2.142   0.003  0.00  0.00    -0.026 C 
ATOM     16  C   LIG    1       -0.018   1.514   0.010  0.00  0.00    +0.004 C 
ATOM     17  C   LIG    1        0.002  -0.004   0.002  0.00  0.00    +0.178 C 
ATOM     18  C   LIG    1        0.833  -0.494  -1.183  0.00  0.00    +0.217 C 
ATOM     19  C   LIG    1        3.730   1.822  -0.095  0.00  0.00    -0.056 C 
ENDROOT
BRANCH  10  20
ATOM     20  O   LIG    1        2.729  -4.468  -0.708  0.00  0.00    -0.503 OA
ATOM     21  H   LIG    1        1.676  -4.598  -1.000  0.00  0.00    +0.292 HD
ENDBRANCH  10  20
BRANCH  17  22
ATOM     22  O   LIG    1        0.581  -0.480   1.219  0.00  0.00    -0.384 OA
ATOM     23  H   LIG    1        0.117  -0.227   2.184  0.00  0.00    +0.210 HD
ENDBRANCH  17  22
BRANCH   1  24
ATOM     24  C   LIG    1        5.011   3.426  -1.402  0.00  0.00    -0.051 C 
BRANCH  24  26
ATOM     25  C   LIG    1        5.292   5.274  -2.973  0.00  0.00    +0.002 C 
ATOM     26  C   LIG    1        5.197   3.980  -2.791  0.00  0.00    -0.053 C 
ENDBRANCH  24  26
ENDBRANCH   1  24
TORSDOF 4
