REMARK  Name = ZINC13814845
REMARK                            x       y       z     vdW  Elec       q    Type
REMARK                         _______ _______ _______ _____ _____    ______ ____
ROOT
ATOM      1  C   LIG    1       -1.498  -1.847   0.006  0.00  0.00    +0.131 A 
ATOM      2  C   LIG    1       -0.390  -2.679  -0.003  0.00  0.00    +0.046 A 
ATOM      3  C   LIG    1       -0.553  -4.051  -0.009  0.00  0.00    +0.004 A 
ATOM      4  C   LIG    1       -1.823  -4.605  -0.006  0.00  0.00    +0.001 A 
ATOM      5  C   LIG    1       -2.936  -3.792   0.003  0.00  0.00    +0.015 A 
ATOM      6  C   LIG    1       -2.784  -2.403   0.016  0.00  0.00    +0.059 A 
ENDROOT
BRANCH   6   7
ATOM      7  C   LIG    1       -3.971  -1.528   0.032  0.00  0.00    +0.139 A 
ATOM      8  C   LIG    1       -5.056  -1.627  -0.811  0.00  0.00    +0.051 A 
ATOM      9  C   LIG    1       -5.945  -0.612  -0.454  0.00  0.00    +0.057 A 
ATOM     10  C   LIG    1       -5.368   0.073   0.598  0.00  0.00    +0.212 A 
ATOM     11  O   LIG    1       -4.179  -0.503   0.876  0.00  0.00    -0.448 OA
BRANCH  10  12
ATOM     12  C   LIG    1       -5.929   1.184   1.272  0.00  0.00    +0.372 C 
ATOM     13  O   LIG    1       -7.024   1.618   0.932  0.00  0.00    -0.242 OA
BRANCH  12  14
ATOM     14  O   LIG    1       -5.321   1.712   2.196  0.00  0.00    -0.475 OA
ATOM     15  H   LIG    1       -4.484   1.379   2.456  0.00  0.00    +0.296 HD
ENDBRANCH  12  14
ENDBRANCH  10  12
ENDBRANCH   6   7
BRANCH   1  16
ATOM     16  O   LIG    1       -1.339  -0.499   0.012  0.00  0.00    -0.492 OA
BRANCH  16  18
ATOM     17  C   LIG    1       -0.019   1.526   0.010  0.00  0.00    +0.048 C 
ATOM     18  C   LIG    1        0.002  -0.004   0.002  0.00  0.00    +0.226 C 
ENDBRANCH  16  18
ENDBRANCH   1  16
TORSDOF 5
