REMARK  Name = ZINC15709135
REMARK                            x       y       z     vdW  Elec       q    Type
REMARK                         _______ _______ _______ _____ _____    ______ ____
ROOT
ATOM      1  C   LIG    1        0.148   6.496  -0.401  0.00  0.00    +0.044 C 
ATOM      2  C   LIG    1       -0.328   5.549   0.670  0.00  0.00    -0.044 A 
ATOM      3  C   LIG    1       -0.227   4.188   0.472  0.00  0.00    +0.049 A 
ATOM      4  C   LIG    1       -0.670   3.316   1.455  0.00  0.00    +0.124 A 
ATOM      5  C   LIG    1       -1.202   3.821   2.630  0.00  0.00    -0.005 A 
ATOM      6  C   LIG    1       -1.680   2.875   3.701  0.00  0.00    +0.048 C 
ATOM      7  C   LIG    1       -1.296   5.191   2.829  0.00  0.00    -0.037 A 
ATOM      8  C   LIG    1       -1.890   5.671   4.128  0.00  0.00    +0.040 C 
ATOM      9  C   LIG    1       -1.534   7.136   4.372  0.00  0.00    +0.005 C 
ATOM     10  C   LIG    1       -1.895   7.937   3.116  0.00  0.00    +0.009 C 
ATOM     11  C   LIG    1       -0.923   7.553   2.003  0.00  0.00    +0.036 C 
ATOM     12  C   LIG    1       -0.858   6.055   1.850  0.00  0.00    -0.041 A 
ENDROOT
BRANCH   9  13
ATOM     13  C   LIG    1       -2.327   7.666   5.568  0.00  0.00    +0.076 C 
ATOM     14  C   LIG    1       -1.967   9.133   5.809  0.00  0.00    +0.017 C 
BRANCH  13  15
ATOM     15  C   LIG    1       -1.987   6.858   6.794  0.00  0.00    +0.222 C 
ATOM     16  N   LIG    1       -2.570   7.147   7.974  0.00  0.00    -0.264 N 
ATOM     17  H   LIG    1       -3.208   7.875   8.035  0.00  0.00    +0.157 HD
ATOM     18  O   LIG    1       -1.190   5.947   6.718  0.00  0.00    -0.275 OA
BRANCH  16  19
ATOM     19  C   LIG    1       -2.257   6.402   9.105  0.00  0.00    +0.164 A 
ATOM     20  N   LIG    1       -2.716   6.529  10.335  0.00  0.00    -0.233 NA
ATOM     21  C   LIG    1       -2.310   5.729  11.302  0.00  0.00    +0.120 A 
ATOM     22  C   LIG    1       -1.404   4.766  11.006  0.00  0.00    +0.068 A 
ATOM     23  S   LIG    1       -1.166   5.059   9.259  0.00  0.00    -0.061 S 
ENDBRANCH  16  19
ENDBRANCH  13  15
ENDBRANCH   9  13
BRANCH   4  24
ATOM     24  O   LIG    1       -0.579   1.973   1.269  0.00  0.00    -0.494 OA
BRANCH  24  25
ATOM     25  C   LIG    1       -0.020   1.526   0.032  0.00  0.00    +0.210 C 
BRANCH  25  26
ATOM     26  C   LIG    1        0.002  -0.003   0.004  0.00  0.00    -0.038 C 
BRANCH  26  27
ATOM     27  N   LIG    1       -1.391  -0.497   0.031  0.00  0.00    +0.378 N 
ATOM     28  H   LIG    1       -1.929   0.060   0.705  0.00  0.00    -0.082 HD
ATOM     29  C   LIG    1       -1.417  -1.914   0.451  0.00  0.00    -0.096 C 
ATOM     30  C   LIG    1       -2.003  -0.355  -1.307  0.00  0.00    -0.096 C 
ENDBRANCH  26  27
ENDBRANCH  25  26
ENDBRANCH  24  25
ENDBRANCH   4  24
TORSDOF 7
