REMARK  Name = ZINC27996868
REMARK                            x       y       z     vdW  Elec       q    Type
REMARK                         _______ _______ _______ _____ _____    ______ ____
ROOT
ATOM      1  C   LIG    1       -2.440   1.248   0.020  0.00  0.00    +0.011 C 
ATOM      2  C   LIG    1       -1.297   1.929   0.019  0.00  0.00    +0.089 C 
ENDROOT
BRANCH   1   4
ATOM      3  C   LIG    1       -4.559   1.609  -1.217  0.00  0.00    +0.042 C 
ATOM      4  C   LIG    1       -3.755   1.983   0.031  0.00  0.00    +0.135 C 
BRANCH   4   5
ATOM      5  O   LIG    1       -4.495   1.621   1.199  0.00  0.00    -0.388 OA
ATOM      6  H   LIG    1       -4.074   1.814   2.197  0.00  0.00    +0.210 HD
ENDBRANCH   4   5
ENDBRANCH   1   4
BRANCH   2   7
ATOM      7  C   LIG    1       -0.014   1.211   0.009  0.00  0.00    +0.329 C 
ATOM      8  O   LIG    1        0.002  -0.004   0.002  0.00  0.00    -0.246 OA
BRANCH   7   9
ATOM      9  O   LIG    1        1.144   1.901   0.001  0.00  0.00    -0.478 OA
ATOM     10  H   LIG    1        1.131   2.838   0.006  0.00  0.00    +0.295 HD
ENDBRANCH   7   9
ENDBRANCH   2   7
TORSDOF 4
