REMARK  Name = ZINC45284946
REMARK                            x       y       z     vdW  Elec       q    Type
REMARK                         _______ _______ _______ _____ _____    ______ ____
ROOT
ATOM      1  S   LIG    1        0.055  -2.969   2.713  0.00  0.00    +0.076 S 
ATOM      2  O   LIG    1        0.020  -1.998   3.750  0.00  0.00    -0.150 OA
ATOM      3  O   LIG    1        1.093  -3.934   2.608  0.00  0.00    -0.150 OA
ENDROOT
BRANCH   1   9
ATOM      4  C   LIG    1       -0.018   1.503   0.010  0.00  0.00    +0.044 C 
ATOM      5  C   LIG    1        0.002  -0.004   0.002  0.00  0.00    -0.048 A 
ATOM      6  C   LIG    1        0.006  -0.688  -1.200  0.00  0.00    +0.007 A 
ATOM      7  C   LIG    1        0.024  -2.069  -1.210  0.00  0.00    +0.048 A 
ATOM      8  C   LIG    1        0.039  -2.770  -0.013  0.00  0.00    +0.147 A 
ATOM      9  C   LIG    1        0.036  -2.082   1.191  0.00  0.00    +0.150 A 
ATOM     10  C   LIG    1        0.023  -0.701   1.196  0.00  0.00    +0.036 A 
BRANCH   8  11
ATOM     11  O   LIG    1        0.057  -4.129  -0.021  0.00  0.00    -0.493 OA
ATOM     12  C   LIG    1        0.058  -4.771  -1.298  0.00  0.00    +0.277 C 
ENDBRANCH   8  11
ENDBRANCH   1   9
BRANCH   1  13
ATOM     13  N   LIG    1       -1.367  -3.812   2.807  0.00  0.00    -0.215 N 
ATOM     14  H   LIG    1       -2.026  -3.748   2.078  0.00  0.00    +0.174 HD
BRANCH  13  15
ATOM     15  C   LIG    1       -1.632  -4.614   3.919  0.00  0.00    +0.067 A 
ATOM     16  C   LIG    1       -2.815  -5.324   3.999  0.00  0.00    +0.036 A 
ATOM     17  C   LIG    1       -3.034  -6.118   5.139  0.00  0.00    +0.002 A 
ATOM     18  C   LIG    1       -4.213  -6.868   5.290  0.00  0.00    +0.010 A 
ATOM     19  C   LIG    1       -4.389  -7.624   6.408  0.00  0.00    +0.001 A 
ATOM     20  C   LIG    1       -3.417  -7.665   7.405  0.00  0.00    +0.002 A 
ATOM     21  C   LIG    1       -2.264  -6.951   7.291  0.00  0.00    +0.028 A 
ATOM     22  C   LIG    1       -2.043  -6.158   6.151  0.00  0.00    +0.071 A 
ATOM     23  N   LIG    1       -0.918  -5.448   6.016  0.00  0.00    -0.253 NA
ATOM     24  C   LIG    1       -0.697  -4.709   4.957  0.00  0.00    +0.135 A 
ENDBRANCH  13  15
ENDBRANCH   1  13
TORSDOF 4
