REMARK  Name = ZINC26508883
REMARK                            x       y       z     vdW  Elec       q    Type
REMARK                         _______ _______ _______ _____ _____    ______ ____
ROOT
ATOM      1  C   LIG    1        3.264   2.341   1.744  0.00  0.00    +0.161 C 
ENDROOT
BRANCH   1   2
ATOM      2  N   LIG    1        1.831   2.245   1.456  0.00  0.00    -0.302 N 
ATOM      3  H   LIG    1        1.132   1.931   2.245  0.00  0.00    +0.150 HD
ATOM      4  C   LIG    1        1.370   2.542   0.225  0.00  0.00    +0.234 C 
ATOM      5  O   LIG    1        2.148   2.819  -0.663  0.00  0.00    -0.274 OA
BRANCH   4   6
ATOM      6  C   LIG    1       -0.112   2.528  -0.048  0.00  0.00    +0.161 C 
BRANCH   6   7
ATOM      7  N   LIG    1       -0.346   2.205  -1.457  0.00  0.00    -0.304 N 
ATOM      8  H   LIG    1        0.431   2.417  -2.206  0.00  0.00    +0.149 HD
ATOM      9  C   LIG    1       -1.514   1.649  -1.836  0.00  0.00    +0.214 C 
ATOM     10  O   LIG    1       -2.371   1.416  -1.010  0.00  0.00    -0.276 OA
BRANCH   9  11
ATOM     11  C   LIG    1       -1.755   1.317  -3.286  0.00  0.00    +0.098 C 
BRANCH  11  12
ATOM     12  C   LIG    1       -3.146   0.701  -3.444  0.00  0.00    -0.008 C 
ATOM     13  C   LIG    1       -3.343   0.250  -4.893  0.00  0.00    +0.008 C 
ATOM     14  C   LIG    1       -4.209   1.742  -3.086  0.00  0.00    +0.008 C 
ENDBRANCH  11  12
ENDBRANCH   9  11
ENDBRANCH   6   7
BRANCH   6  15
ATOM     15  C   LIG    1       -0.701   3.905   0.265  0.00  0.00    +0.012 C 
ATOM     16  C   LIG    1       -0.402   4.270   1.720  0.00  0.00    +0.009 C 
ATOM     17  C   LIG    1       -2.215   3.874   0.048  0.00  0.00    +0.009 C 
ENDBRANCH   6  15
ENDBRANCH   4   6
ENDBRANCH   1   2
BRANCH   1  20
ATOM     18  N   LIG    1        4.565   3.217   3.657  0.00  0.00    -0.308 N 
ATOM     19  H   LIG    1        5.276   3.644   2.935  0.00  0.00    +0.149 HD
ATOM     20  C   LIG    1        3.466   2.571   3.220  0.00  0.00    +0.234 C 
ATOM     21  O   LIG    1        2.639   2.175   4.014  0.00  0.00    -0.274 OA
BRANCH  18  22
ATOM     22  C   LIG    1        4.813   3.350   5.095  0.00  0.00    +0.102 C 
BRANCH  22  23
ATOM     23  C   LIG    1        6.294   3.651   5.332  0.00  0.00    +0.145 C 
BRANCH  23  24
ATOM     24  O   LIG    1        6.641   4.875   4.680  0.00  0.00    -0.389 OA
ATOM     25  H   LIG    1        6.132   5.809   4.958  0.00  0.00    +0.210 HD
ENDBRANCH  23  24
BRANCH  23  26
ATOM     26  C   LIG    1        7.143   2.512   4.764  0.00  0.00    +0.153 C 
BRANCH  26  27
ATOM     27  C   LIG    1        8.592   2.747   5.106  0.00  0.00    +0.310 C 
ATOM     28  O   LIG    1        8.912   3.724   5.740  0.00  0.00    -0.251 OA
BRANCH  27  29
ATOM     29  O   LIG    1        9.527   1.869   4.708  0.00  0.00    -0.465 OA
BRANCH  29  31
ATOM     30  C   LIG    1       11.815   1.056   4.536  0.00  0.00    +0.048 C 
ATOM     31  C   LIG    1       10.902   2.159   5.074  0.00  0.00    +0.229 C 
ENDBRANCH  29  31
ENDBRANCH  27  29
ENDBRANCH  26  27
ENDBRANCH  23  26
ENDBRANCH  22  23
BRANCH  22  32
ATOM     32  C   LIG    1        3.964   4.493   5.655  0.00  0.00    +0.028 C 
BRANCH  32  33
ATOM     33  C   LIG    1        4.109   4.537   7.178  0.00  0.00    -0.015 C 
ATOM     34  C   LIG    1        3.525   3.260   7.783  0.00  0.00    +0.007 C 
ATOM     35  C   LIG    1        3.358   5.752   7.727  0.00  0.00    +0.007 C 
ENDBRANCH  32  33
ENDBRANCH  22  32
ENDBRANCH  18  22
ENDBRANCH   1  20
BRANCH   1  36
ATOM     36  C   LIG    1        3.956   1.040   1.332  0.00  0.00    +0.012 C 
ATOM     37  C   LIG    1        5.465   1.175   1.541  0.00  0.00    +0.009 C 
ATOM     38  C   LIG    1        3.669   0.755  -0.144  0.00  0.00    +0.009 C 
ENDBRANCH   1  36
TORSDOF 17
