REMARK  Name = ZINC49793264
REMARK                            x       y       z     vdW  Elec       q    Type
REMARK                         _______ _______ _______ _____ _____    ______ ____
ROOT
ATOM      1  C   LIG    1       -0.836   1.441  -0.981  0.00  0.00    +0.134 C 
ATOM      2  N   LIG    1       -0.617   0.013  -0.736  0.00  0.00    -0.277 N 
ATOM      3  C   LIG    1       -0.450  -0.853  -1.778  0.00  0.00    +0.252 C 
ATOM      4  C   LIG    1       -0.221  -2.302  -1.402  0.00  0.00    +0.172 C 
ATOM      5  C   LIG    1        0.275  -3.167  -2.533  0.00  0.00    +0.063 C 
ATOM      6  C   LIG    1        1.602  -3.785  -2.055  0.00  0.00    +0.049 C 
ATOM      7  C   LIG    1        1.427  -5.259  -1.836  0.00  0.00    -0.016 A 
ATOM      8  C   LIG    1        1.182  -6.259  -2.760  0.00  0.00    +0.006 A 
ATOM      9  C   LIG    1        1.060  -7.555  -2.274  0.00  0.00    +0.000 A 
ATOM     10  C   LIG    1        1.179  -7.832  -0.927  0.00  0.00    +0.002 A 
ATOM     11  C   LIG    1        1.425  -6.837   0.005  0.00  0.00    +0.023 A 
ATOM     12  C   LIG    1        1.552  -5.528  -0.472  0.00  0.00    +0.032 A 
ATOM     13  N   LIG    1        1.799  -4.378   0.256  0.00  0.00    -0.325 N 
ATOM     14  H   LIG    1        1.919  -4.344   1.218  0.00  0.00    +0.148 HD
ATOM     15  C   LIG    1        1.855  -3.216  -0.641  0.00  0.00    +0.174 C 
ATOM     16  S   LIG    1       -1.765  -2.942  -0.672  0.00  0.00    -0.055 S 
ATOM     17  S   LIG    1       -2.027  -1.591   0.875  0.00  0.00    -0.053 S 
ATOM     18  N   LIG    1        0.799  -2.274  -0.331  0.00  0.00    -0.256 N 
ATOM     19  C   LIG    1        0.663  -1.419   0.718  0.00  0.00    +0.256 C 
ATOM     20  O   LIG    1        1.454  -1.376   1.636  0.00  0.00    -0.272 OA
ATOM     21  O   LIG    1       -0.482  -0.485  -2.933  0.00  0.00    -0.272 OA
ATOM     22  C   LIG    1       -0.565  -0.515   0.645  0.00  0.00    +0.193 C 
ENDROOT
BRANCH   6  23
ATOM     23  C   LIG    1        2.753  -3.467  -3.012  0.00  0.00    +0.049 C 
ATOM     24  C   LIG    1        3.076  -1.962  -3.036  0.00  0.00    +0.063 C 
ATOM     25  C   LIG    1        2.950  -1.523  -4.474  0.00  0.00    +0.172 C 
ATOM     26  C   LIG    1        1.945  -0.412  -4.698  0.00  0.00    +0.252 C 
ATOM     27  N   LIG    1        1.586  -0.188  -5.997  0.00  0.00    -0.277 N 
ATOM     28  C   LIG    1        0.609   0.851  -6.333  0.00  0.00    +0.134 C 
ATOM     29  C   LIG    1        2.203  -1.014  -7.059  0.00  0.00    +0.193 C 
ATOM     30  S   LIG    1        3.981  -0.587  -7.119  0.00  0.00    -0.053 S 
ATOM     31  C   LIG    1        2.109  -2.465  -6.583  0.00  0.00    +0.256 C 
ATOM     32  O   LIG    1        1.748  -3.370  -7.306  0.00  0.00    -0.272 OA
ATOM     33  O   LIG    1        1.488   0.237  -3.782  0.00  0.00    -0.272 OA
ATOM     34  S   LIG    1        4.545  -0.985  -5.174  0.00  0.00    -0.055 S 
ATOM     35  N   LIG    1        2.462  -2.659  -5.285  0.00  0.00    -0.256 N 
ATOM     36  C   LIG    1        3.982  -4.266  -2.691  0.00  0.00    -0.016 A 
ATOM     37  C   LIG    1        4.718  -4.311  -1.520  0.00  0.00    +0.006 A 
ATOM     38  C   LIG    1        5.828  -5.147  -1.500  0.00  0.00    +0.000 A 
ATOM     39  C   LIG    1        6.181  -5.899  -2.601  0.00  0.00    +0.002 A 
ATOM     40  C   LIG    1        5.450  -5.861  -3.777  0.00  0.00    +0.023 A 
ATOM     41  C   LIG    1        4.329  -5.024  -3.810  0.00  0.00    +0.032 A 
ATOM     42  N   LIG    1        3.451  -4.821  -4.860  0.00  0.00    -0.325 N 
ATOM     43  H   LIG    1        3.510  -5.252  -5.726  0.00  0.00    +0.148 HD
ATOM     44  C   LIG    1        2.415  -3.856  -4.469  0.00  0.00    +0.174 C 
BRANCH  29  45
ATOM     45  C   LIG    1        1.513  -0.813  -8.409  0.00  0.00    +0.203 C 
BRANCH  45  46
ATOM     46  O   LIG    1        2.069  -1.715  -9.368  0.00  0.00    -0.391 OA
ATOM     47  H   LIG    1        1.677  -1.643 -10.249  0.00  0.00    +0.210 HD
ENDBRANCH  45  46
ENDBRANCH  29  45
ENDBRANCH   6  23
BRANCH  22  48
ATOM     48  C   LIG    1       -0.504   0.609   1.681  0.00  0.00    +0.203 C 
BRANCH  48  49
ATOM     49  O   LIG    1       -0.339   0.046   2.985  0.00  0.00    -0.391 OA
ATOM     50  H   LIG    1       -0.292   0.703   3.693  0.00  0.00    +0.210 HD
ENDBRANCH  48  49
ENDBRANCH  22  48
TORSDOF 5
