REMARK  Name = ZINC13808101
REMARK                            x       y       z     vdW  Elec       q    Type
REMARK                         _______ _______ _______ _____ _____    ______ ____
ROOT
ATOM      1  S   LIG    1        1.865  -0.617  -3.284  0.00  0.00    +0.103 S 
ATOM      2  O   LIG    1        0.845  -1.302  -3.998  0.00  0.00    -0.146 OA
ATOM      3  O   LIG    1        3.013  -1.280  -2.773  0.00  0.00    -0.146 OA
ENDROOT
BRANCH   1   4
ATOM      4  C   LIG    1        2.451   0.660  -4.347  0.00  0.00    +0.113 A 
ATOM      5  C   LIG    1        1.636   1.153  -5.349  0.00  0.00    +0.031 A 
ATOM      6  C   LIG    1        2.092   2.154  -6.184  0.00  0.00    +0.024 A 
ATOM      7  C   LIG    1        3.373   2.666  -6.016  0.00  0.00    +0.025 A 
ATOM      8  C   LIG    1        4.190   2.168  -5.008  0.00  0.00    +0.024 A 
ATOM      9  C   LIG    1        3.725   1.171  -4.174  0.00  0.00    +0.031 A 
BRANCH   7  10
ATOM     10  N   LIG    1        3.838   3.678  -6.858  0.00  0.00    -0.358 N 
ATOM     11  H   LIG    1        4.733   4.034  -6.740  0.00  0.00    +0.142 HD
ATOM     12  H   LIG    1        3.267   4.024  -7.562  0.00  0.00    +0.142 HD
ENDBRANCH   7  10
ENDBRANCH   1   4
BRANCH   1  14
ATOM     13  C   LIG    1        0.602  -0.604  -1.049  0.00  0.00    +0.298 C 
ATOM     14  N   LIG    1        1.129   0.117  -1.996  0.00  0.00    -0.076 NA
BRANCH  13  15
ATOM     15  N   LIG    1        0.656  -1.974  -1.119  0.00  0.00    -0.312 N 
ATOM     16  H   LIG    1        1.087  -2.405  -1.875  0.00  0.00    +0.147 HD
ATOM     17  H   LIG    1        0.263  -2.512  -0.414  0.00  0.00    +0.147 HD
ENDBRANCH  13  15
BRANCH  13  19
ATOM     18  C   LIG    1       -0.017   1.425   0.010  0.00  0.00    +0.280 C 
ATOM     19  O   LIG    1        0.002  -0.004   0.002  0.00  0.00    -0.468 OA
ENDBRANCH  13  19
ENDBRANCH   1  14
TORSDOF 5
