REMARK  Name = ZINC29551618
REMARK                            x       y       z     vdW  Elec       q    Type
REMARK                         _______ _______ _______ _____ _____    ______ ____
ROOT
ATOM      1  C   LIG    1        0.618   2.974   0.271  0.00  0.00    +0.184 C 
ATOM      2  C   LIG    1        1.976   2.417  -0.151  0.00  0.00    +0.049 C 
ATOM      3  C   LIG    1        2.263   1.159   0.681  0.00  0.00    +0.031 C 
ATOM      4  C   LIG    1        1.186   0.151   0.375  0.00  0.00    -0.023 C 
ATOM      5  C   LIG    1       -0.042   0.536   0.077  0.00  0.00    -0.045 C 
ATOM      6  C   LIG    1       -1.039  -0.482  -0.326  0.00  0.00    -0.000 C 
ATOM      7  C   LIG    1       -2.151  -0.107  -0.934  0.00  0.00    -0.023 C 
ATOM      8  C   LIG    1       -2.500   1.317  -1.243  0.00  0.00    +0.012 C 
ATOM      9  C   LIG    1       -3.147   1.384  -2.628  0.00  0.00    +0.012 C 
ATOM     10  C   LIG    1       -1.264   2.218  -1.226  0.00  0.00    +0.007 C 
ATOM     11  C   LIG    1       -0.490   1.967   0.070  0.00  0.00    +0.063 C 
ENDROOT
BRANCH   1  12
ATOM     12  O   LIG    1        0.673   3.343   1.674  0.00  0.00    -0.461 OA
BRANCH  12  13
ATOM     13  C   LIG    1        1.100   4.582   1.961  0.00  0.00    +0.310 C 
ATOM     14  O   LIG    1        1.418   5.334   1.070  0.00  0.00    -0.251 OA
BRANCH  13  15
ATOM     15  C   LIG    1        1.184   5.037   3.396  0.00  0.00    +0.094 C 
ATOM     16  C   LIG    1        2.145   4.127   4.163  0.00  0.00    +0.019 C 
BRANCH  15  18
ATOM     17  C   LIG    1        1.663   6.981   4.889  0.00  0.00    +0.004 C 
ATOM     18  C   LIG    1        1.696   6.478   3.445  0.00  0.00    +0.011 C 
ENDBRANCH  15  18
ENDBRANCH  13  15
ENDBRANCH  12  13
ENDBRANCH   1  12
BRANCH  10  19
ATOM     19  C   LIG    1       -0.373   1.889  -2.426  0.00  0.00    +0.008 C 
BRANCH  19  20
ATOM     20  C   LIG    1       -0.227   0.371  -2.552  0.00  0.00    +0.045 C 
BRANCH  20  21
ATOM     21  C   LIG    1        0.534   0.037  -3.837  0.00  0.00    +0.179 C 
ATOM     22  C   LIG    1        0.787  -1.472  -3.904  0.00  0.00    +0.076 C 
ATOM     23  C   LIG    1        1.502  -1.809  -5.216  0.00  0.00    +0.129 C 
ATOM     24  C   LIG    1        0.616  -1.378  -6.391  0.00  0.00    +0.152 C 
ATOM     25  C   LIG    1        0.232   0.072  -6.192  0.00  0.00    +0.310 C 
ATOM     26  O   LIG    1        0.359   0.877  -7.084  0.00  0.00    -0.251 OA
ATOM     27  O   LIG    1       -0.257   0.442  -4.990  0.00  0.00    -0.461 OA
BRANCH  23  28
ATOM     28  O   LIG    1        1.736  -3.217  -5.285  0.00  0.00    -0.391 OA
ATOM     29  H   LIG    1        2.243  -3.648  -6.161  0.00  0.00    +0.210 HD
ENDBRANCH  23  28
ENDBRANCH  20  21
ENDBRANCH  19  20
ENDBRANCH  10  19
TORSDOF 8
