REMARK  Name = ZINC29216180
REMARK                            x       y       z     vdW  Elec       q    Type
REMARK                         _______ _______ _______ _____ _____    ______ ____
ROOT
ATOM      1  C   LIG    1       -1.301   1.931   0.019  0.00  0.00    +0.059 A 
ATOM      2  C   LIG    1       -1.323   3.329   0.032  0.00  0.00    +0.018 A 
ATOM      3  C   LIG    1       -2.526   3.997   0.036  0.00  0.00    +0.046 A 
ATOM      4  C   LIG    1       -3.720   3.283   0.038  0.00  0.00    +0.121 A 
ATOM      5  C   LIG    1       -3.703   1.893   0.030  0.00  0.00    +0.046 A 
ATOM      6  C   LIG    1       -2.504   1.217   0.021  0.00  0.00    +0.018 A 
ENDROOT
BRANCH   1   7
ATOM      7  C   LIG    1       -0.014   1.211   0.009  0.00  0.00    +0.339 C 
ATOM      8  O   LIG    1        0.002  -0.004   0.002  0.00  0.00    -0.245 OA
BRANCH   7   9
ATOM      9  O   LIG    1        1.143   1.900   0.001  0.00  0.00    -0.461 OA
BRANCH   9  11
ATOM     10  C   LIG    1        3.572   2.075  -0.021  0.00  0.00    +0.048 C 
ATOM     11  C   LIG    1        2.372   1.126  -0.015  0.00  0.00    +0.229 C 
ENDBRANCH   9  11
ENDBRANCH   7   9
ENDBRANCH   1   7
BRANCH   4  12
ATOM     12  O   LIG    1       -4.904   3.946   0.047  0.00  0.00    -0.492 OA
BRANCH  12  13
ATOM     13  C   LIG    1       -4.848   5.374   0.055  0.00  0.00    +0.231 C 
BRANCH  13  14
ATOM     14  C   LIG    1       -6.270   5.939   0.065  0.00  0.00    +0.062 C 
BRANCH  14  15
ATOM     15  C   LIG    1       -6.211   7.468   0.073  0.00  0.00    +0.126 C 
BRANCH  15  16
ATOM     16  N   LIG    1       -7.572   8.010   0.083  0.00  0.00    -0.338 N 
ATOM     17  C   LIG    1       -8.329   8.321  -1.014  0.00  0.00    +0.104 A 
ATOM     18  C   LIG    1       -9.509   8.782  -0.555  0.00  0.00    +0.101 A 
ATOM     19  N   LIG    1       -9.468   8.762   0.786  0.00  0.00    -0.352 N 
ATOM     20  H   LIG    1      -10.337   9.105   1.367  0.00  0.00    +0.166 HD
ATOM     21  C   LIG    1       -8.311   8.300   1.175  0.00  0.00    +0.173 A 
ENDBRANCH  15  16
ENDBRANCH  14  15
ENDBRANCH  13  14
ENDBRANCH  12  13
ENDBRANCH   4  12
TORSDOF 8
