REMARK  Name = ZINC29228443
REMARK                            x       y       z     vdW  Elec       q    Type
REMARK                         _______ _______ _______ _____ _____    ______ ____
ROOT
ATOM      1  C   LIG    1        4.095   2.456  -1.468  0.00  0.00    +0.186 C 
ENDROOT
BRANCH   1   2
ATOM      2  N   LIG    1        4.397   1.185  -2.133  0.00  0.00    -0.298 N 
ATOM      3  H   LIG    1        4.704   0.313  -1.538  0.00  0.00    +0.150 HD
ATOM      4  C   LIG    1        4.299   1.086  -3.473  0.00  0.00    +0.245 C 
ATOM      5  O   LIG    1        3.960   2.051  -4.131  0.00  0.00    -0.270 OA
BRANCH   4   6
ATOM      6  C   LIG    1        4.604  -0.196  -4.144  0.00  0.00    +0.037 A 
ATOM      7  C   LIG    1        5.000  -1.303  -3.392  0.00  0.00    +0.013 A 
ATOM      8  C   LIG    1        5.278  -2.498  -4.024  0.00  0.00    +0.001 A 
ATOM      9  C   LIG    1        5.176  -2.596  -5.400  0.00  0.00    +0.000 A 
ATOM     10  C   LIG    1        4.790  -1.501  -6.151  0.00  0.00    +0.001 A 
ATOM     11  C   LIG    1        4.504  -0.302  -5.532  0.00  0.00    +0.013 A 
ENDBRANCH   4   6
ENDBRANCH   1   2
BRANCH   1  12
ATOM     12  C   LIG    1        5.321   3.332  -1.478  0.00  0.00    +0.328 C 
ATOM     13  O   LIG    1        6.343   2.936  -1.988  0.00  0.00    -0.249 OA
BRANCH  12  14
ATOM     14  O   LIG    1        5.278   4.552  -0.920  0.00  0.00    -0.464 OA
BRANCH  14  16
ATOM     15  C   LIG    1        6.256   6.691  -0.287  0.00  0.00    +0.048 C 
ATOM     16  C   LIG    1        6.497   5.341  -0.967  0.00  0.00    +0.229 C 
ENDBRANCH  14  16
ENDBRANCH  12  14
ENDBRANCH   1  12
BRANCH   1  17
ATOM     17  C   LIG    1        3.672   2.187  -0.023  0.00  0.00    +0.069 C 
BRANCH  17  18
ATOM     18  C   LIG    1        2.378   1.415  -0.013  0.00  0.00    -0.043 A 
ATOM     19  C   LIG    1        1.171   2.089   0.002  0.00  0.00    +0.021 A 
ATOM     20  C   LIG    1       -0.017   1.383   0.010  0.00  0.00    +0.056 A 
ATOM     21  I   LIG    1       -1.845   2.407   0.024  0.00  0.00    -0.040 I 
ATOM     22  C   LIG    1        0.002  -0.004   0.002  0.00  0.00    +0.143 A 
ATOM     23  C   LIG    1        1.214  -0.679  -0.013  0.00  0.00    +0.056 A 
ATOM     24  I   LIG    1        1.248  -2.774  -0.024  0.00  0.00    -0.040 I 
ATOM     25  C   LIG    1        2.400   0.032  -0.021  0.00  0.00    +0.021 A 
BRANCH  22  26
ATOM     26  O   LIG    1       -1.165  -0.701   0.010  0.00  0.00    -0.505 OA
ATOM     27  H   LIG    1       -1.983  -0.244   0.020  0.00  0.00    +0.292 HD
ENDBRANCH  22  26
ENDBRANCH  17  18
ENDBRANCH   1  17
TORSDOF 8
