REMARK  Name = ZINC16052625
REMARK                            x       y       z     vdW  Elec       q    Type
REMARK                         _______ _______ _______ _____ _____    ______ ____
ROOT
ATOM      1  N   LIG    1       -1.062  -2.888  -0.003  0.00  0.00    -0.313 N 
ATOM      2  C   LIG    1        0.398  -2.784  -0.122  0.00  0.00    +0.107 C 
ATOM      3  C   LIG    1        1.043  -3.559   1.032  0.00  0.00    +0.020 C 
ATOM      4  C   LIG    1        0.513  -4.994   1.037  0.00  0.00    -0.026 C 
ATOM      5  C   LIG    1       -1.002  -4.980   1.252  0.00  0.00    +0.020 C 
ATOM      6  C   LIG    1       -1.669  -4.222   0.107  0.00  0.00    +0.107 C 
ENDROOT
BRANCH   1  13
ATOM      7  C   LIG    1       -0.071   1.267  -0.609  0.00  0.00    +0.198 A 
ATOM      8  N   LIG    1       -1.344   1.723  -0.435  0.00  0.00    -0.329 N 
ATOM      9  C   LIG    1       -2.141   0.634  -0.191  0.00  0.00    +0.163 A 
ATOM     10  N   LIG    1       -3.436   0.454   0.048  0.00  0.00    -0.216 NA
ATOM     11  C   LIG    1       -3.918  -0.753   0.257  0.00  0.00    +0.225 A 
ATOM     12  N   LIG    1       -3.158  -1.833   0.242  0.00  0.00    -0.218 NA
ATOM     13  C   LIG    1       -1.851  -1.751   0.011  0.00  0.00    +0.152 A 
ATOM     14  C   LIG    1       -1.290  -0.484  -0.218  0.00  0.00    +0.147 A 
ATOM     15  H   LIG    1       -1.633   2.647  -0.483  0.00  0.00    +0.168 HD
ATOM     16  N   LIG    1       -0.041  -0.028  -0.477  0.00  0.00    -0.231 NA
ENDBRANCH   1  13
BRANCH   4  17
ATOM     17  C   LIG    1        1.181  -5.780   2.167  0.00  0.00    -0.083 C 
BRANCH  17  18
ATOM     18  N   LIG    1        0.764  -7.187   2.098  0.00  0.00    +0.378 N 
ATOM     19  H   LIG    1        1.205  -7.706   2.843  0.00  0.00    -0.090 HD
ATOM     20  H   LIG    1        1.040  -7.577   1.208  0.00  0.00    -0.090 HD
ATOM     21  H   LIG    1       -0.238  -7.246   2.194  0.00  0.00    -0.090 HD
ENDBRANCH  17  18
ENDBRANCH   4  17
TORSDOF 3
