REMARK  Name = ZINC43152613
REMARK                            x       y       z     vdW  Elec       q    Type
REMARK                         _______ _______ _______ _____ _____    ______ ____
ROOT
ATOM      1  C   LIG    1       -1.013  -0.443   2.047  0.00  0.00    +0.066 A 
ATOM      2  C   LIG    1       -0.126   0.616   2.203  0.00  0.00    +0.028 A 
ATOM      3  C   LIG    1        0.297   0.988   3.464  0.00  0.00    +0.003 A 
ATOM      4  C   LIG    1       -0.159   0.310   4.578  0.00  0.00    +0.008 A 
ATOM      5  C   LIG    1       -1.049  -0.753   4.431  0.00  0.00    -0.015 A 
ATOM      6  C   LIG    1       -1.480  -1.125   3.160  0.00  0.00    +0.036 A 
ENDROOT
BRANCH   1  12
ATOM      7  C   LIG    1       -1.472   1.537  -0.237  0.00  0.00    +0.066 C 
ATOM      8  C   LIG    1       -1.651   0.041  -0.266  0.00  0.00    +0.043 A 
ATOM      9  C   LIG    1       -2.047  -0.701  -1.327  0.00  0.00    +0.057 A 
ATOM     10  C   LIG    1       -2.064  -2.040  -0.868  0.00  0.00    +0.147 A 
ATOM     11  N   LIG    1       -1.690  -2.022   0.396  0.00  0.00    -0.161 NA
ATOM     12  N   LIG    1       -1.439  -0.817   0.766  0.00  0.00    -0.236 N 
BRANCH  10  13
ATOM     13  C   LIG    1       -2.432  -3.233  -1.657  0.00  0.00    +0.262 C 
ATOM     14  N   LIG    1       -2.403  -4.454  -1.086  0.00  0.00    -0.324 N 
ATOM     15  H   LIG    1       -2.644  -5.237  -1.604  0.00  0.00    +0.145 HD
ATOM     16  H   LIG    1       -2.140  -4.549  -0.157  0.00  0.00    +0.145 HD
ATOM     17  O   LIG    1       -2.761  -3.114  -2.821  0.00  0.00    -0.269 OA
ENDBRANCH  10  13
ENDBRANCH   1  12
BRANCH   5  18
ATOM     18  C   LIG    1       -1.539  -1.483   5.626  0.00  0.00    -0.006 A 
ATOM     19  C   LIG    1       -1.325  -2.855   5.744  0.00  0.00    +0.009 A 
ATOM     20  C   LIG    1       -1.783  -3.529   6.858  0.00  0.00    +0.013 A 
ATOM     21  C   LIG    1       -2.454  -2.845   7.856  0.00  0.00    +0.055 A 
ATOM     22  C   LIG    1       -2.670  -1.484   7.744  0.00  0.00    +0.025 A 
ATOM     23  C   LIG    1       -2.210  -0.798   6.637  0.00  0.00    +0.063 A 
BRANCH  21  24
ATOM     24  C   LIG    1       -2.953  -3.587   9.069  0.00  0.00    +0.417 C 
ATOM     25  F   LIG    1       -4.343  -3.454   9.158  0.00  0.00    -0.166 F 
ATOM     26  F   LIG    1       -2.360  -3.054  10.218  0.00  0.00    -0.166 F 
ATOM     27  F   LIG    1       -2.620  -4.941   8.957  0.00  0.00    -0.166 F 
ENDBRANCH  21  24
BRANCH  23  28
ATOM     28  C   LIG    1       -2.440   0.686   6.519  0.00  0.00    +0.418 C 
ATOM     29  F   LIG    1       -3.058   0.967   5.295  0.00  0.00    -0.166 F 
ATOM     30  F   LIG    1       -1.213   1.355   6.587  0.00  0.00    -0.166 F 
ATOM     31  F   LIG    1       -3.263   1.115   7.566  0.00  0.00    -0.166 F 
ENDBRANCH  23  28
ENDBRANCH   5  18
TORSDOF 5
