REMARK  Name = ZINC52962019
REMARK                            x       y       z     vdW  Elec       q    Type
REMARK                         _______ _______ _______ _____ _____    ______ ____
ROOT
ATOM      1  C   LIG    1       -0.568  -3.473   2.244  0.00  0.00    +0.030 A 
ATOM      2  C   LIG    1       -1.901  -3.764   1.982  0.00  0.00    +0.025 A 
ATOM      3  C   LIG    1       -2.479  -4.894   2.525  0.00  0.00    +0.025 A 
ATOM      4  C   LIG    1       -1.729  -5.740   3.332  0.00  0.00    +0.027 A 
ATOM      5  C   LIG    1       -0.397  -5.448   3.594  0.00  0.00    +0.025 A 
ATOM      6  C   LIG    1        0.184  -4.321   3.046  0.00  0.00    +0.025 A 
ENDROOT
BRANCH   1  11
ATOM      7  C   LIG    1        0.887   1.779   1.721  0.00  0.00    +0.105 C 
ATOM      8  N   LIG    1        0.760   0.345   1.426  0.00  0.00    -0.302 NA
ATOM      9  C   LIG    1       -0.646  -0.029   1.227  0.00  0.00    +0.103 C 
ATOM     10  C   LIG    1       -0.722  -1.481   0.745  0.00  0.00    +0.120 C 
ATOM     11  N   LIG    1        0.018  -2.327   1.694  0.00  0.00    -0.327 N 
ATOM     12  C   LIG    1        1.391  -1.937   2.050  0.00  0.00    +0.120 C 
ATOM     13  C   LIG    1        1.383  -0.466   2.480  0.00  0.00    +0.103 C 
ENDBRANCH   1  11
BRANCH   4  14
ATOM     14  N   LIG    1       -2.316  -6.885   3.882  0.00  0.00    -0.341 N 
ATOM     15  H   LIG    1       -3.216  -6.844   4.243  0.00  0.00    +0.146 HD
BRANCH  14  16
ATOM     16  C   LIG    1       -1.611  -8.079   3.912  0.00  0.00    +0.076 C 
ATOM     17  C   LIG    1       -0.391  -8.206   3.267  0.00  0.00    +0.037 C 
ATOM     18  C   LIG    1        0.291  -9.414   3.315  0.00  0.00    +0.083 C 
ATOM     19  N   LIG    1       -0.187 -10.453   3.959  0.00  0.00    -0.313 NA
ATOM     20  H   LIG    1        0.323 -11.279   3.968  0.00  0.00    +0.122 HD
ATOM     21  C   LIG    1       -1.358 -10.403   4.604  0.00  0.00    +0.058 C 
ATOM     22  C   LIG    1       -1.855 -11.525   5.289  0.00  0.00    +0.019 C 
ATOM     23  C   LIG    1       -3.042 -11.441   5.951  0.00  0.00    +0.002 C 
ATOM     24  C   LIG    1       -3.784 -10.263   5.948  0.00  0.00    +0.000 C 
ATOM     25  C   LIG    1       -3.336  -9.157   5.290  0.00  0.00    +0.007 C 
ATOM     26  C   LIG    1       -2.112  -9.206   4.608  0.00  0.00    +0.026 C 
ENDBRANCH  14  16
ENDBRANCH   4  14
TORSDOF 3
