REMARK  Name = ZINC18125824
REMARK                            x       y       z     vdW  Elec       q    Type
REMARK                         _______ _______ _______ _____ _____    ______ ____
ROOT
ATOM      1  C   LIG    1        3.645  -2.032   0.062  0.00  0.00    +0.394 C 
ATOM      2  N   LIG    1        4.619  -2.692  -0.491  0.00  0.00    +0.154 NA
ENDROOT
BRANCH   1   3
ATOM      3  C   LIG    1        2.488  -2.758   0.634  0.00  0.00    +0.242 A 
ATOM      4  C   LIG    1        2.347  -4.217   0.723  0.00  0.00    +0.196 A 
ATOM      5  N   LIG    1        1.200  -4.484   1.284  0.00  0.00    -0.033 NA
ATOM      6  O   LIG    1        0.561  -3.255   1.578  0.00  0.00    -0.240 OA
ATOM      7  N   LIG    1        1.419  -2.211   1.151  0.00  0.00    -0.039 NA
BRANCH   4   8
ATOM      8  N   LIG    1        3.275  -5.152   0.284  0.00  0.00    -0.338 N 
ATOM      9  H   LIG    1        3.094  -6.100   0.386  0.00  0.00    +0.144 HD
ATOM     10  H   LIG    1        4.104  -4.858  -0.124  0.00  0.00    +0.144 HD
ENDBRANCH   4   8
ENDBRANCH   1   3
BRANCH   1  11
ATOM     11  N   LIG    1        3.689  -0.648   0.116  0.00  0.00    -0.195 N 
ATOM     12  H   LIG    1        4.544  -0.190   0.137  0.00  0.00    +0.299 HD
BRANCH  11  16
ATOM     13  C   LIG    1        0.151   1.548   0.186  0.00  0.00    +0.000 A 
ATOM     14  C   LIG    1        1.285   2.047   0.802  0.00  0.00    +0.004 A 
ATOM     15  C   LIG    1        2.460   1.321   0.780  0.00  0.00    +0.049 A 
ATOM     16  C   LIG    1        2.502   0.089   0.140  0.00  0.00    +0.119 A 
ATOM     17  C   LIG    1        1.361  -0.409  -0.477  0.00  0.00    +0.049 A 
ATOM     18  C   LIG    1        0.190   0.322  -0.452  0.00  0.00    +0.004 A 
ENDBRANCH  11  16
ENDBRANCH   1  11
BRANCH   2  19
ATOM     19  O   LIG    1        5.781  -2.010  -0.924  0.00  0.00    -0.311 OA
ATOM     20  H   LIG    1        6.417  -2.571  -1.389  0.00  0.00    +0.361 HD
ENDBRANCH   2  19
TORSDOF 5
