REMARK  Name = ZINC20028798
REMARK                            x       y       z     vdW  Elec       q    Type
REMARK                         _______ _______ _______ _____ _____    ______ ____
ROOT
ATOM      1  C   LIG    1       -1.708  -0.635   0.015  0.00  0.00    +0.095 C 
ENDROOT
BRANCH   1   3
ATOM      2  C   LIG    1       -0.023   1.819   0.012  0.00  0.00    +0.111 C 
ATOM      3  P   LIG    1        0.002  -0.004   0.002  0.00  0.00    +0.199 P 
ATOM      4  O   LIG    1        0.749  -0.516   1.254  0.00  0.00    -0.291 OA
BRANCH   3   5
ATOM      5  O   LIG    1        0.725  -0.502  -1.269  0.00  0.00    -0.344 OA
ATOM      6  H   LIG    1        1.635  -0.167  -1.276  0.00  0.00    +0.218 HD
ENDBRANCH   3   5
ENDBRANCH   1   3
BRANCH   1   7
ATOM      7  C   LIG    1       -1.688  -2.160   0.132  0.00  0.00    -0.010 C 
BRANCH   7   8
ATOM      8  C   LIG    1       -3.123  -2.690   0.143  0.00  0.00    -0.086 C 
BRANCH   8   9
ATOM      9  N   LIG    1       -3.104  -4.155   0.256  0.00  0.00    +0.378 N 
ATOM     10  H   LIG    1       -4.051  -4.504   0.263  0.00  0.00    -0.090 HD
ATOM     11  H   LIG    1       -2.641  -4.420   1.112  0.00  0.00    -0.090 HD
ATOM     12  H   LIG    1       -2.607  -4.546  -0.530  0.00  0.00    -0.090 HD
ENDBRANCH   8   9
ENDBRANCH   7   8
ENDBRANCH   1   7
TORSDOF 5
