REMARK  Name = ZINC49625414
REMARK                            x       y       z     vdW  Elec       q    Type
REMARK                         _______ _______ _______ _____ _____    ______ ____
ROOT
ATOM      1  C   LIG    1        3.241  -7.822  -5.315  0.00  0.00    -0.047 C 
ENDROOT
BRANCH   1   2
ATOM      2  N   LIG    1        3.355  -9.276  -5.492  0.00  0.00    +0.383 N 
ATOM      3  H   LIG    1        2.436  -9.672  -5.614  0.00  0.00    -0.086 HD
ATOM      4  H   LIG    1        3.791  -9.681  -4.678  0.00  0.00    -0.086 HD
BRANCH   2   5
ATOM      5  C   LIG    1        4.173  -9.562  -6.678  0.00  0.00    -0.041 C 
BRANCH   5   6
ATOM      6  C   LIG    1        4.292 -11.076  -6.863  0.00  0.00    +0.210 C 
BRANCH   6   7
ATOM      7  O   LIG    1        3.004 -11.623  -7.152  0.00  0.00    -0.494 OA
BRANCH   7   8
ATOM      8  C   LIG    1        2.933 -12.966  -7.345  0.00  0.00    +0.121 A 
ATOM      9  C   LIG    1        4.080 -13.742  -7.253  0.00  0.00    +0.047 A 
ATOM     10  C   LIG    1        4.008 -15.107  -7.449  0.00  0.00    +0.030 A 
ATOM     11  C   LIG    1        2.789 -15.703  -7.738  0.00  0.00    +0.048 A 
ATOM     12  C   LIG    1        1.641 -14.927  -7.830  0.00  0.00    +0.030 A 
ATOM     13  C   LIG    1        1.713 -13.563  -7.629  0.00  0.00    +0.047 A 
BRANCH  11  14
ATOM     14  N   LIG    1        2.716 -17.090  -7.938  0.00  0.00    -0.306 N 
ATOM     15  C   LIG    1        1.589 -17.813  -8.234  0.00  0.00    +0.112 A 
ATOM     16  C   LIG    1        1.968 -19.101  -8.341  0.00  0.00    +0.130 A 
ATOM     17  N   LIG    1        3.289 -19.168  -8.118  0.00  0.00    -0.244 NA
ATOM     18  C   LIG    1        3.749 -17.970  -7.881  0.00  0.00    +0.204 A 
ENDBRANCH  11  14
ENDBRANCH   7   8
ENDBRANCH   6   7
ENDBRANCH   5   6
ENDBRANCH   2   5
ENDBRANCH   1   2
BRANCH   1  19
ATOM     19  C   LIG    1        2.389  -7.524  -4.080  0.00  0.00    +0.135 C 
BRANCH  19  20
ATOM     20  O   LIG    1        1.087  -8.086  -4.253  0.00  0.00    -0.390 OA
ATOM     21  H   LIG    1        0.608  -7.742  -5.019  0.00  0.00    +0.210 HD
ENDBRANCH  19  20
BRANCH  19  22
ATOM     22  C   LIG    1        2.271  -6.010  -3.895  0.00  0.00    +0.258 C 
BRANCH  22  23
ATOM     23  O   LIG    1        1.574  -5.731  -2.679  0.00  0.00    -0.489 OA
BRANCH  23  27
ATOM     24  C   LIG    1        0.992  -1.758  -1.719  0.00  0.00    +0.048 A 
ATOM     25  C   LIG    1        0.519  -2.753  -0.874  0.00  0.00    +0.028 A 
ATOM     26  C   LIG    1        0.714  -4.082  -1.196  0.00  0.00    +0.047 A 
ATOM     27  C   LIG    1        1.383  -4.423  -2.362  0.00  0.00    +0.121 A 
ATOM     28  C   LIG    1        1.856  -3.429  -3.207  0.00  0.00    +0.047 A 
ATOM     29  C   LIG    1        1.657  -2.100  -2.889  0.00  0.00    +0.028 A 
BRANCH  24  30
ATOM     30  N   LIG    1        0.795  -0.411  -1.394  0.00  0.00    -0.221 N 
ATOM     31  H   LIG    1        1.127   0.294  -1.995  0.00  0.00    +0.173 HD
BRANCH  30  33
ATOM     32  C   LIG    1       -0.022   1.810   0.012  0.00  0.00    +0.218 C 
ATOM     33  S   LIG    1        0.002  -0.004   0.002  0.00  0.00    +0.040 S 
ATOM     34  O   LIG    1       -1.315  -0.510  -0.168  0.00  0.00    -0.155 OA
ATOM     35  O   LIG    1        0.835  -0.488   1.046  0.00  0.00    -0.155 OA
ENDBRANCH  30  33
ENDBRANCH  24  30
ENDBRANCH  23  27
ENDBRANCH  22  23
ENDBRANCH  19  22
ENDBRANCH   1  19
TORSDOF 13
