REMARK  Name = ZINC19362920
REMARK                            x       y       z     vdW  Elec       q    Type
REMARK                         _______ _______ _______ _____ _____    ______ ____
ROOT
ATOM      1  N   LIG    1        0.909  -0.309  -1.254  0.00  0.00    -0.300 NA
ATOM      2  C   LIG    1        0.151   0.054  -2.459  0.00  0.00    +0.100 C 
ATOM      3  C   LIG    1        0.879  -0.477  -3.696  0.00  0.00    +0.100 C 
ATOM      4  N   LIG    1        1.022  -1.936  -3.587  0.00  0.00    -0.296 NA
ATOM      5  C   LIG    1        1.780  -2.300  -2.382  0.00  0.00    +0.100 C 
ATOM      6  C   LIG    1        1.052  -1.768  -1.145  0.00  0.00    +0.100 C 
ENDROOT
BRANCH   1   7
ATOM      7  C   LIG    1        0.281   0.249  -0.049  0.00  0.00    +0.085 C 
BRANCH   7   8
ATOM      8  C   LIG    1        0.373   1.776  -0.086  0.00  0.00    +0.020 C 
BRANCH   8   9
ATOM      9  C   LIG    1       -0.281   2.357   1.169  0.00  0.00    +0.036 C 
BRANCH   9  13
ATOM     10  C   LIG    1       -0.022   6.620   1.065  0.00  0.00    +0.000 A 
ATOM     11  C   LIG    1       -1.115   5.980   0.512  0.00  0.00    +0.000 A 
ATOM     12  C   LIG    1       -1.199   4.600   0.545  0.00  0.00    +0.003 A 
ATOM     13  C   LIG    1       -0.189   3.861   1.133  0.00  0.00    -0.047 A 
ATOM     14  C   LIG    1        0.901   4.501   1.692  0.00  0.00    +0.003 A 
ATOM     15  C   LIG    1        0.987   5.880   1.654  0.00  0.00    +0.000 A 
ENDBRANCH   9  13
ENDBRANCH   8   9
ENDBRANCH   7   8
ENDBRANCH   1   7
BRANCH   4  16
ATOM     16  C   LIG    1        1.650  -2.494  -4.792  0.00  0.00    +0.120 C 
BRANCH  16  17
ATOM     17  C   LIG    1        0.905  -2.020  -6.013  0.00  0.00    -0.019 A 
ATOM     18  C   LIG    1        1.458  -1.050  -6.828  0.00  0.00    +0.006 A 
ATOM     19  C   LIG    1        0.777  -0.617  -7.950  0.00  0.00    +0.000 A 
ATOM     20  C   LIG    1       -0.464  -1.148  -8.253  0.00  0.00    +0.001 A 
ATOM     21  C   LIG    1       -1.020  -2.114  -7.436  0.00  0.00    +0.015 A 
ATOM     22  C   LIG    1       -0.336  -2.550  -6.316  0.00  0.00    +0.022 A 
ATOM     23 BR   LIG    1       -1.097  -3.872  -5.197  0.00  0.00    -0.050 Br
ENDBRANCH  16  17
ENDBRANCH   4  16
TORSDOF 6
