REMARK  Name = ZINC40875741
REMARK                            x       y       z     vdW  Elec       q    Type
REMARK                         _______ _______ _______ _____ _____    ______ ____
ROOT
ATOM      1  N   LIG    1        3.923  -2.713  -4.080  0.00  0.00    -0.260 N 
ATOM      2  C   LIG    1        4.931  -1.791  -4.360  0.00  0.00    +0.048 A 
ATOM      3  C   LIG    1        4.886  -0.533  -4.948  0.00  0.00    +0.028 A 
ATOM      4  C   LIG    1        6.046   0.198  -5.118  0.00  0.00    +0.048 A 
ATOM      5  C   LIG    1        7.271  -0.311  -4.706  0.00  0.00    +0.131 A 
ATOM      6  C   LIG    1        7.337  -1.562  -4.118  0.00  0.00    +0.059 A 
ATOM      7  C   LIG    1        6.169  -2.305  -3.943  0.00  0.00    +0.052 A 
ATOM      8  C   LIG    1        5.900  -3.636  -3.367  0.00  0.00    +0.250 C 
ATOM      9  O   LIG    1        6.703  -4.412  -2.891  0.00  0.00    -0.282 OA
ATOM     10  C   LIG    1        4.417  -3.817  -3.492  0.00  0.00    +0.292 C 
ATOM     11  O   LIG    1        3.779  -4.784  -3.132  0.00  0.00    -0.266 OA
ENDROOT
BRANCH   1  12
ATOM     12  C   LIG    1        2.505  -2.503  -4.381  0.00  0.00    +0.149 C 
BRANCH  12  16
ATOM     13  C   LIG    1        0.606  -0.607  -1.056  0.00  0.00    +0.120 A 
ATOM     14  C   LIG    1        1.173   0.161  -2.062  0.00  0.00    +0.046 A 
ATOM     15  C   LIG    1        1.786  -0.455  -3.136  0.00  0.00    +0.009 A 
ATOM     16  C   LIG    1        1.835  -1.835  -3.209  0.00  0.00    -0.029 A 
ATOM     17  C   LIG    1        1.270  -2.602  -2.207  0.00  0.00    +0.009 A 
ATOM     18  C   LIG    1        0.661  -1.992  -1.128  0.00  0.00    +0.046 A 
BRANCH  13  20
ATOM     19  C   LIG    1       -0.017   1.425   0.010  0.00  0.00    +0.277 C 
ATOM     20  O   LIG    1        0.002  -0.004   0.002  0.00  0.00    -0.495 OA
ENDBRANCH  13  20
ENDBRANCH  12  16
ENDBRANCH   1  12
BRANCH   5  21
ATOM     21  O   LIG    1        8.405   0.420  -4.880  0.00  0.00    -0.406 OA
BRANCH  21  22
ATOM     22  C   LIG    1        8.262   1.702  -5.494  0.00  0.00    +0.575 C 
ATOM     23  F   LIG    1        7.714   1.549  -6.772  0.00  0.00    -0.133 F 
ATOM     24  F   LIG    1        9.517   2.313  -5.596  0.00  0.00    -0.133 F 
ATOM     25  F   LIG    1        7.417   2.500  -4.716  0.00  0.00    -0.133 F 
ENDBRANCH  21  22
ENDBRANCH   5  21
TORSDOF 5
