REMARK  Name = ZINC28570817
REMARK                            x       y       z     vdW  Elec       q    Type
REMARK                         _______ _______ _______ _____ _____    ______ ____
ROOT
ATOM      1  S   UNK    1       -0.862   1.671   1.500  0.00  0.00    -0.156 S 
ENDROOT
BRANCH   1   2
ATOM      2  C   UNK    1       -0.013   1.086   0.008  0.00  0.00    +0.104 C 
BRANCH   2   5
ATOM      3  C   UNK    1       -2.421   1.284  -2.893  0.00  0.00    +0.001 A 
ATOM      4  C   UNK    1       -1.750   0.825  -1.775  0.00  0.00    +0.004 A 
ATOM      5  C   UNK    1       -0.742   1.585  -1.213  0.00  0.00    -0.037 A 
ATOM      6  C   UNK    1       -0.398   2.801  -1.774  0.00  0.00    +0.016 A 
ATOM      7  C   UNK    1       -1.067   3.259  -2.894  0.00  0.00    +0.055 A 
ATOM      8  C   UNK    1       -2.078   2.501  -3.453  0.00  0.00    +0.012 A 
BRANCH   7   9
ATOM      9  C   UNK    1       -0.692   4.584  -3.505  0.00  0.00    +0.417 C 
ATOM     10  F   UNK    1       -0.215   5.440  -2.507  0.00  0.00    -0.166 F 
ATOM     11  F   UNK    1       -1.819   5.154  -4.109  0.00  0.00    -0.166 F 
ATOM     12  F   UNK    1        0.304   4.389  -4.468  0.00  0.00    -0.166 F 
ENDBRANCH   7   9
ENDBRANCH   2   5
ENDBRANCH   1   2
BRANCH   1  13
ATOM     13  C   UNK    1        0.127   0.993   2.862  0.00  0.00    +0.068 C 
BRANCH  13  14
ATOM     14  C   UNK    1       -0.487   1.417   4.198  0.00  0.00    +0.005 C 
BRANCH  14  15
ATOM     15  C   UNK    1        0.347   0.845   5.346  0.00  0.00    +0.036 C 
BRANCH  15  16
ATOM     16  N   UNK    1        1.687   1.448   5.326  0.00  0.00    +0.387 N 
ATOM     17  H   UNK    1        2.177   1.220   4.368  0.00  0.00    -0.089 HD
ATOM     18  H   UNK    1        1.600   2.538   5.443  0.00  0.00    -0.089 HD
ATOM     19  H   UNK    1        2.286   1.037   6.152  0.00  0.00    -0.089 HD
ENDBRANCH  15  16
BRANCH  15  20
ATOM     20  C   UNK    1       -0.324   1.157   6.659  0.00  0.00    +0.290 C 
ATOM     21  O   UNK    1        0.066   2.082   7.332  0.00  0.00    -0.253 OA
BRANCH  20  22
ATOM     22  O   UNK    1       -1.356   0.409   7.080  0.00  0.00    -0.482 OA
ATOM     23  H   UNK    1       -1.658  -0.308   6.558  0.00  0.00    +0.295 HD
ENDBRANCH  20  22
ENDBRANCH  15  20
ENDBRANCH  14  15
ENDBRANCH  13  14
ENDBRANCH   1  13
TORSDOF 9
