REMARK  Name = ZINC43202843
REMARK                            x       y       z     vdW  Elec       q    Type
REMARK                         _______ _______ _______ _____ _____    ______ ____
ROOT
ATOM      1  C   LIG    1        0.066   1.504   0.011  0.00  0.00    +0.047 C 
ATOM      2  C   LIG    1        0.082  -0.003   0.003  0.00  0.00    -0.013 A 
ATOM      3  C   LIG    1        0.121  -0.668  -1.167  0.00  0.00    +0.009 A 
ATOM      4  S   LIG    1        0.126  -2.378  -0.656  0.00  0.00    -0.087 S 
ATOM      5  C   LIG    1        0.076  -2.118   1.097  0.00  0.00    +0.078 A 
ATOM      6  C   LIG    1        0.055  -2.936   2.215  0.00  0.00    +0.140 A 
ATOM      7  N   LIG    1        0.031  -2.365   3.418  0.00  0.00    -0.211 NA
ATOM      8  C   LIG    1        0.013  -1.039   3.523  0.00  0.00    +0.165 A 
ATOM      9  N   LIG    1        0.028  -0.231   2.484  0.00  0.00    -0.226 NA
ATOM     10  C   LIG    1        0.063  -0.711   1.218  0.00  0.00    +0.087 A 
ENDROOT
BRANCH   6  11
ATOM     11  N   LIG    1        0.073  -4.315   2.085  0.00  0.00    -0.310 N 
ATOM     12  C   LIG    1        0.195  -5.186   3.266  0.00  0.00    +0.134 C 
ATOM     13  C   LIG    1       -0.916  -6.240   3.206  0.00  0.00    +0.178 C 
ATOM     14  O   LIG    1       -0.881  -6.889   1.932  0.00  0.00    -0.377 OA
ATOM     15  C   LIG    1       -1.130  -6.019   0.825  0.00  0.00    +0.178 C 
ATOM     16  C   LIG    1       -0.036  -4.953   0.764  0.00  0.00    +0.134 C 
ENDBRANCH   6  11
BRANCH   8  17
ATOM     17  C   LIG    1       -0.024  -0.441   4.879  0.00  0.00    +0.055 A 
ATOM     18  C   LIG    1       -0.036  -1.250   6.019  0.00  0.00    +0.127 A 
ATOM     19  N   LIG    1       -0.069  -0.680   7.210  0.00  0.00    -0.222 NA
ATOM     20  C   LIG    1       -0.092   0.640   7.331  0.00  0.00    +0.213 A 
ATOM     21  N   LIG    1       -0.082   1.440   6.275  0.00  0.00    -0.222 NA
ATOM     22  C   LIG    1       -0.043   0.946   5.050  0.00  0.00    +0.127 A 
BRANCH  20  23
ATOM     23  N   LIG    1       -0.128   1.197   8.596  0.00  0.00    -0.327 N 
ATOM     24  H   LIG    1       -0.145   2.162   8.700  0.00  0.00    +0.145 HD
ATOM     25  H   LIG    1       -0.136   0.624   9.378  0.00  0.00    +0.145 HD
ENDBRANCH  20  23
ENDBRANCH   8  17
BRANCH   3  26
ATOM     26  C   LIG    1        0.152  -0.106  -2.566  0.00  0.00    +0.127 C 
BRANCH  26  27
ATOM     27  N   LIG    1        1.547   0.092  -2.983  0.00  0.00    -0.295 NA
ATOM     28  C   LIG    1        2.198   1.127  -2.168  0.00  0.00    +0.102 C 
ATOM     29  C   LIG    1        3.691   1.177  -2.510  0.00  0.00    +0.124 C 
ATOM     30  N   LIG    1        3.832   1.349  -3.963  0.00  0.00    -0.179 NA
ATOM     31  C   LIG    1        3.097   0.432  -4.848  0.00  0.00    +0.124 C 
ATOM     32  C   LIG    1        1.627   0.412  -4.414  0.00  0.00    +0.102 C 
BRANCH  30  33
ATOM     33  S   LIG    1        4.794   2.543  -4.588  0.00  0.00    +0.029 S 
ATOM     34  C   LIG    1        6.431   1.781  -4.761  0.00  0.00    +0.215 C 
ATOM     35  O   LIG    1        4.826   3.547  -3.582  0.00  0.00    -0.158 OA
ATOM     36  O   LIG    1        4.245   2.819  -5.869  0.00  0.00    -0.158 OA
ENDBRANCH  30  33
ENDBRANCH  26  27
ENDBRANCH   3  26
TORSDOF 6
