REMARK  Name = ZINC38557853
REMARK                            x       y       z     vdW  Elec       q    Type
REMARK                         _______ _______ _______ _____ _____    ______ ____
ROOT
ATOM      1  C   LIG    1        0.631   2.351  -0.750  0.00  0.00    +0.012 C 
ATOM      2  C   LIG    1        0.513   0.823  -0.794  0.00  0.00    -0.025 C 
ATOM      3  C   LIG    1       -0.967   0.471  -0.937  0.00  0.00    +0.008 C 
ATOM      4  C   LIG    1       -1.177  -1.037  -0.883  0.00  0.00    +0.018 C 
ATOM      5  C   LIG    1       -0.633  -1.615   0.423  0.00  0.00    +0.065 C 
ATOM      6  C   LIG    1       -0.773  -3.144   0.379  0.00  0.00    +0.023 C 
ATOM      7  C   LIG    1        0.847  -1.264   0.567  0.00  0.00    +0.026 C 
ATOM      8  C   LIG    1        1.307   0.275  -1.975  0.00  0.00    +0.008 C 
ATOM      9  C   LIG    1        2.756   0.752  -1.923  0.00  0.00    +0.012 C 
ATOM     10  C   LIG    1        3.448   0.389  -0.617  0.00  0.00    -0.004 C 
ATOM     11  C   LIG    1        3.854  -1.089  -0.713  0.00  0.00    +0.016 C 
ATOM     12  C   LIG    1        4.734   1.213  -0.449  0.00  0.00    -0.013 C 
ATOM     13  C   LIG    1        4.296   2.687  -0.434  0.00  0.00    +0.013 C 
ATOM     14  C   LIG    1        5.664   1.001  -1.634  0.00  0.00    +0.008 C 
ATOM     15  C   LIG    1        7.011   1.697  -1.395  0.00  0.00    +0.005 C 
ATOM     16  C   LIG    1        7.640   1.104  -0.135  0.00  0.00    +0.008 C 
ATOM     17  C   LIG    1        9.111   1.447  -0.017  0.00  0.00    +0.027 C 
ATOM     18  C   LIG    1        9.409   2.900  -0.392  0.00  0.00    +0.019 C 
ATOM     19  C   LIG    1        9.897   0.550  -1.004  0.00  0.00    +0.019 C 
ATOM     20  C   LIG    1        9.653   1.155   1.361  0.00  0.00    +0.139 C 
ATOM     21  O   LIG    1       10.807   0.788   1.481  0.00  0.00    -0.297 OA
ATOM     22  C   LIG    1        8.793   1.312   2.588  0.00  0.00    +0.075 C 
ATOM     23  C   LIG    1        7.400   0.752   2.314  0.00  0.00    +0.015 C 
ATOM     24  C   LIG    1        6.788   1.450   1.084  0.00  0.00    -0.018 C 
ATOM     25  C   LIG    1        6.755   2.949   1.351  0.00  0.00    +0.012 C 
ATOM     26  C   LIG    1        5.392   0.868   0.877  0.00  0.00    +0.073 C 
ATOM     27  C   LIG    1        4.437   1.248   1.985  0.00  0.00    +0.160 C 
ATOM     28  O   LIG    1        4.791   1.774   3.022  0.00  0.00    -0.292 OA
ATOM     29  C   LIG    1        3.019   0.928   1.774  0.00  0.00    +0.046 C 
ATOM     30  C   LIG    1        2.560   0.537   0.579  0.00  0.00    -0.056 C 
ATOM     31  C   LIG    1        1.073   0.241   0.501  0.00  0.00    +0.023 C 
ENDROOT
BRANCH   5  32
ATOM     32  C   LIG    1       -1.414  -1.092   1.597  0.00  0.00    +0.311 C 
ATOM     33  O   LIG    1       -2.613  -1.303   1.675  0.00  0.00    -0.250 OA
BRANCH  32  34
ATOM     34  O   LIG    1       -0.849  -0.458   2.472  0.00  0.00    -0.480 OA
ATOM     35  H   LIG    1        0.072  -0.295   2.412  0.00  0.00    +0.295 HD
ENDBRANCH  32  34
ENDBRANCH   5  32
TORSDOF 2
