REMARK  Name = ZINC27215004
REMARK                            x       y       z     vdW  Elec       q    Type
REMARK                         _______ _______ _______ _____ _____    ______ ____
ROOT
ATOM      1  N   PHE A  4        6.938   2.875   5.891  0.00  0.00    -0.302 N 
ATOM      2  H   PHE A  4        6.925   3.640   5.294  0.00  0.00    +0.150 HD
ATOM      3  C   GLY A  3        7.862   2.800   6.869  0.00  0.00    +0.231 C 
ATOM      4  O   GLY A  3        7.878   1.844   7.615  0.00  0.00    -0.274 OA
ENDROOT
BRANCH   3   5
ATOM      5  CA  GLY A  3        8.874   3.904   7.037  0.00  0.00    +0.200 C 
BRANCH   5   6
ATOM      6  N   GLY A  3        9.759   3.589   8.160  0.00  0.00    -0.305 N 
ATOM      7  H   GLY A  3        9.633   2.768   8.661  0.00  0.00    +0.149 HD
ATOM      8  C   SER A  2       10.748   4.440   8.498  0.00  0.00    +0.236 C 
ATOM      9  O   SER A  2       10.905   5.467   7.872  0.00  0.00    -0.274 OA
BRANCH   8  10
ATOM     10  CA  SER A  2       11.659   4.116   9.654  0.00  0.00    +0.184 C 
BRANCH  10  11
ATOM     11  N   SER A  2       12.643   5.189   9.817  0.00  0.00    -0.303 N 
ATOM     12  H   SER A  2       12.882   5.747   9.060  0.00  0.00    +0.149 HD
ATOM     13  C   TYR A  1       13.216   5.402  11.018  0.00  0.00    +0.199 C 
ATOM     14  O   TYR A  1       12.917   4.705  11.964  0.00  0.00    -0.278 OA
BRANCH  13  15
ATOM     15  CA  TYR A  1       14.227   6.506  11.185  0.00  0.00    +0.017 C 
BRANCH  15  16
ATOM     16  N   TYR A  1       14.343   6.853  12.608  0.00  0.00    +0.386 N 
ATOM     17  H1  TYR A  1       14.641   6.042  13.129  0.00  0.00    -0.089 HD
ATOM     18  H2  TYR A  1       13.447   7.163  12.952  0.00  0.00    -0.089 HD
ATOM     19  H3  TYR A  1       15.020   7.592  12.720  0.00  0.00    -0.089 HD
ENDBRANCH  15  16
BRANCH  15  20
ATOM     20  CB  TYR A  1       15.586   6.036  10.663  0.00  0.00    +0.028 C 
BRANCH  20  21
ATOM     21  CG  TYR A  1       16.568   7.178  10.716  0.00  0.00    -0.048 A 
ATOM     22  CD2 TYR A  1       16.698   8.027   9.633  0.00  0.00    +0.007 A 
ATOM     23  CE2 TYR A  1       17.598   9.075   9.679  0.00  0.00    +0.045 A 
ATOM     24  CZ  TYR A  1       18.370   9.275  10.814  0.00  0.00    +0.117 A 
ATOM     25  CE1 TYR A  1       18.237   8.422  11.900  0.00  0.00    +0.045 A 
ATOM     26  CD1 TYR A  1       17.332   7.379  11.851  0.00  0.00    +0.007 A 
BRANCH  24  27
ATOM     27  OH  TYR A  1       19.255  10.305  10.862  0.00  0.00    -0.507 OA
ATOM     28  HH  TYR A  1       18.884  11.127  11.210  0.00  0.00    +0.292 HD
ENDBRANCH  24  27
ENDBRANCH  20  21
ENDBRANCH  15  20
ENDBRANCH  13  15
ENDBRANCH  10  11
BRANCH  10  29
ATOM     29  CB  SER A  2       12.384   2.797   9.378  0.00  0.00    +0.187 C 
BRANCH  29  30
ATOM     30  OG  SER A  2       13.063   2.881   8.123  0.00  0.00    -0.393 OA
ATOM     31  H   SER A  2       13.546   2.078   7.883  0.00  0.00    +0.209 HD
ENDBRANCH  29  30
ENDBRANCH  10  29
ENDBRANCH   8  10
ENDBRANCH   5   6
ENDBRANCH   3   5
BRANCH   1  32
ATOM     32  CA  PHE A  4        5.954   1.802   5.728  0.00  0.00    +0.163 C 
BRANCH  32  35
ATOM     33  N   LEU A  5        4.555   0.864   3.916  0.00  0.00    -0.302 N 
ATOM     34  H   LEU A  5        4.208   0.225   4.558  0.00  0.00    +0.150 HD
ATOM     35  C   PHE A  4        5.471   1.776   4.301  0.00  0.00    +0.234 C 
ATOM     36  O   PHE A  4        5.905   2.575   3.499  0.00  0.00    -0.274 OA
BRANCH  33  37
ATOM     37  CA  LEU A  5        4.085   0.839   2.529  0.00  0.00    +0.159 C 
BRANCH  37  40
ATOM     38  N   THR A  6        2.077   0.091   1.294  0.00  0.00    -0.299 N 
ATOM     39  H   THR A  6        2.503   0.397   0.478  0.00  0.00    +0.150 HD
ATOM     40  C   LEU A  5        2.712   0.220   2.475  0.00  0.00    +0.234 C 
ATOM     41  O   LEU A  5        2.179  -0.163   3.495  0.00  0.00    -0.274 OA
BRANCH  38  42
ATOM     42  CA  THR A  6        0.742  -0.511   1.242  0.00  0.00    +0.210 C 
BRANCH  42  43
ATOM     43  C   THR A  6        0.870  -2.011   1.172  0.00  0.00    +0.328 C 
ATOM     44  O   THR A  6        1.961  -2.522   0.983  0.00  0.00    -0.249 OA
BRANCH  43  45
ATOM     45  OXT THR A  6       -0.117  -2.714   1.304  0.00  0.00    -0.479 OA
ATOM     46  HXT THR A  6       -0.956  -2.321   1.450  0.00  0.00    +0.295 HD
ENDBRANCH  43  45
ENDBRANCH  42  43
BRANCH  42  48
ATOM     47  CG2 THR A  6       -0.019   1.526   0.010  0.00  0.00    +0.040 C 
ATOM     48  CB  THR A  6        0.002  -0.004   0.002  0.00  0.00    +0.143 C 
BRANCH  48  49
ATOM     49  OG1 THR A  6        0.671  -0.465  -1.174  0.00  0.00    -0.390 OA
ATOM     50  HG1 THR A  6        0.256  -0.181  -1.999  0.00  0.00    +0.210 HD
ENDBRANCH  48  49
ENDBRANCH  42  48
ENDBRANCH  38  42
ENDBRANCH  37  40
BRANCH  37  51
ATOM     51  CB  LEU A  5        5.051   0.013   1.678  0.00  0.00    +0.034 C 
BRANCH  51  52
ATOM     52  CG  LEU A  5        6.413   0.708   1.631  0.00  0.00    -0.015 C 
ATOM     53  CD2 LEU A  5        6.276   2.047   0.903  0.00  0.00    +0.007 C 
ATOM     54  CD1 LEU A  5        7.413  -0.178   0.885  0.00  0.00    +0.007 C 
ENDBRANCH  51  52
ENDBRANCH  37  51
ENDBRANCH  33  37
ENDBRANCH  32  35
BRANCH  32  55
ATOM     55  CB  PHE A  4        4.770   2.050   6.664  0.00  0.00    +0.067 C 
BRANCH  55  56
ATOM     56  CG  PHE A  4        5.231   1.954   8.095  0.00  0.00    -0.045 A 
ATOM     57  CD2 PHE A  4        5.204   0.737   8.750  0.00  0.00    +0.004 A 
ATOM     58  CE2 PHE A  4        5.627   0.649  10.063  0.00  0.00    +0.000 A 
ATOM     59  CZ  PHE A  4        6.079   1.778  10.721  0.00  0.00    +0.000 A 
ATOM     60  CE1 PHE A  4        6.108   2.994  10.065  0.00  0.00    +0.000 A 
ATOM     61  CD1 PHE A  4        5.688   3.082   8.751  0.00  0.00    +0.004 A 
ENDBRANCH  55  56
ENDBRANCH  32  55
ENDBRANCH   1  32
TORSDOF 24
