REMARK  Name = ZINC72105510
REMARK                            x       y       z     vdW  Elec       q    Type
REMARK                         _______ _______ _______ _____ _____    ______ ____
ROOT
ATOM      1  N   LIG    1        5.044   0.082   1.613  0.00  0.00    +0.383 N 
ATOM      2  H   LIG    1        4.262  -0.060   2.235  0.00  0.00    -0.081 HD
ATOM      3  C   LIG    1        5.903   1.142   2.153  0.00  0.00    -0.071 C 
ATOM      4  C   LIG    1        6.282   0.806   3.600  0.00  0.00    +0.056 C 
ATOM      5  C   LIG    1        6.902  -0.577   3.617  0.00  0.00    +0.134 C 
ATOM      6  C   LIG    1        6.171  -1.683   2.885  0.00  0.00    +0.050 C 
ATOM      7  O   LIG    1        7.941  -0.789   4.194  0.00  0.00    -0.297 OA
ATOM      8  C   LIG    1        5.800  -1.169   1.489  0.00  0.00    -0.066 C 
ENDROOT
BRANCH   1   9
ATOM      9  C   LIG    1        4.547   0.484   0.290  0.00  0.00    -0.043 C 
BRANCH   9  13
ATOM     10  C   LIG    1        2.056   3.931   0.690  0.00  0.00    +0.000 A 
ATOM     11  C   LIG    1        3.415   4.081   0.483  0.00  0.00    +0.000 A 
ATOM     12  C   LIG    1        4.221   2.965   0.354  0.00  0.00    +0.002 A 
ATOM     13  C   LIG    1        3.669   1.700   0.432  0.00  0.00    -0.064 A 
ATOM     14  C   LIG    1        2.310   1.551   0.640  0.00  0.00    +0.002 A 
ATOM     15  C   LIG    1        1.504   2.667   0.768  0.00  0.00    +0.000 A 
ENDBRANCH   9  13
ENDBRANCH   1   9
BRANCH   6  16
ATOM     16  C   LIG    1        7.080  -2.908   2.760  0.00  0.00    +0.057 C 
BRANCH  16  17
ATOM     17  C   LIG    1        6.348  -4.005   2.031  0.00  0.00    -0.039 A 
ATOM     18  C   LIG    1        5.094  -4.400   2.457  0.00  0.00    +0.004 A 
ATOM     19  C   LIG    1        4.423  -5.407   1.788  0.00  0.00    +0.000 A 
ATOM     20  C   LIG    1        5.005  -6.017   0.693  0.00  0.00    +0.000 A 
ATOM     21  C   LIG    1        6.259  -5.621   0.267  0.00  0.00    +0.000 A 
ATOM     22  C   LIG    1        6.929  -4.612   0.933  0.00  0.00    +0.004 A 
ENDBRANCH  16  17
BRANCH  16  23
ATOM     23  C   LIG    1        7.466  -3.389   4.135  0.00  0.00    -0.039 A 
ATOM     24  C   LIG    1        6.489  -3.629   5.083  0.00  0.00    +0.004 A 
ATOM     25  C   LIG    1        6.842  -4.070   6.344  0.00  0.00    +0.000 A 
ATOM     26  C   LIG    1        8.174  -4.272   6.658  0.00  0.00    +0.000 A 
ATOM     27  C   LIG    1        9.151  -4.033   5.710  0.00  0.00    +0.000 A 
ATOM     28  C   LIG    1        8.797  -3.596   4.447  0.00  0.00    +0.004 A 
ENDBRANCH  16  23
ENDBRANCH   6  16
TORSDOF 5
