REMARK  Name = ZINC22001974
REMARK                            x       y       z     vdW  Elec       q    Type
REMARK                         _______ _______ _______ _____ _____    ______ ____
ROOT
ATOM      1  C   LIG    1        1.536   2.220   0.916  0.00  0.00    -0.021 A 
ATOM      2  C   LIG    1        0.307   1.728   1.137  0.00  0.00    +0.087 A 
ATOM      3  N   LIG    1        0.387   0.399   1.455  0.00  0.00    -0.360 N 
ATOM      4  C   LIG    1        1.703  -0.006   1.446  0.00  0.00    +0.050 A 
ATOM      5  C   LIG    1        2.330  -1.223   1.693  0.00  0.00    +0.026 A 
ATOM      6  C   LIG    1        3.702  -1.323   1.605  0.00  0.00    +0.006 A 
ATOM      7  C   LIG    1        4.472  -0.218   1.272  0.00  0.00    +0.046 A 
ATOM      8  C   LIG    1        3.872   1.002   1.023  0.00  0.00    +0.126 A 
ATOM      9  H   LIG    1       -0.529  -0.171   1.669  0.00  0.00    +0.165 HD
ATOM     10  C   LIG    1        2.479   1.116   1.109  0.00  0.00    +0.044 A 
ENDROOT
BRANCH   8  11
ATOM     11  O   LIG    1        4.629   2.082   0.698  0.00  0.00    -0.506 OA
ATOM     12  H   LIG    1        5.723   1.988   0.632  0.00  0.00    +0.292 HD
ENDBRANCH   8  11
BRANCH   1  13
ATOM     13  C   LIG    1        1.880   3.639   0.540  0.00  0.00    +0.019 C 
BRANCH  13  14
ATOM     14  C   LIG    1        2.005   3.747  -0.981  0.00  0.00    -0.074 C 
BRANCH  14  15
ATOM     15  N   LIG    1        2.340   5.130  -1.347  0.00  0.00    +0.380 N 
ATOM     16  H   LIG    1        3.216   5.433  -0.755  0.00  0.00    -0.082 HD
BRANCH  15  18
ATOM     17  C   LIG    1        4.110   4.671  -2.976  0.00  0.00    -0.017 C 
ATOM     18  C   LIG    1        2.699   5.226  -2.768  0.00  0.00    -0.082 C 
ENDBRANCH  15  18
BRANCH  15  19
ATOM     19  C   LIG    1        1.237   6.043  -1.020  0.00  0.00    -0.082 C 
ATOM     20  C   LIG    1        1.748   7.486  -1.034  0.00  0.00    -0.017 C 
ENDBRANCH  15  19
ENDBRANCH  14  15
ENDBRANCH  13  14
ENDBRANCH   1  13
TORSDOF 6
