REMARK  Name = ZINC22054857
REMARK                            x       y       z     vdW  Elec       q    Type
REMARK                         _______ _______ _______ _____ _____    ______ ____
ROOT
ATOM      1  C   LIG    1        0.742  -0.511   1.242  0.00  0.00    +0.038 C 
ENDROOT
BRANCH   1   2
ATOM      2  C   LIG    1        0.002  -0.004   0.002  0.00  0.00    +0.134 C 
BRANCH   2   3
ATOM      3  O   LIG    1       -0.017   1.425   0.010  0.00  0.00    -0.390 OA
ATOM      4  H   LIG    1       -0.509   1.973  -0.807  0.00  0.00    +0.210 HD
ENDBRANCH   2   3
BRANCH   2   5
ATOM      5  C   LIG    1        0.718  -0.497  -1.257  0.00  0.00    +0.154 C 
BRANCH   5   6
ATOM      6  N   LIG    1       -0.055  -0.114  -2.441  0.00  0.00    -0.334 N 
ATOM      7  C   LIG    1       -1.036  -0.853  -3.044  0.00  0.00    +0.107 A 
ATOM      8  C   LIG    1       -1.482  -0.129  -4.089  0.00  0.00    +0.130 A 
ATOM      9  N   LIG    1       -0.785   1.016  -4.128  0.00  0.00    -0.244 NA
ATOM     10  C   LIG    1        0.071   1.032  -3.143  0.00  0.00    +0.199 A 
ENDBRANCH   5   6
ENDBRANCH   2   5
ENDBRANCH   1   2
BRANCH   1  11
ATOM     11  C   LIG    1       -0.042  -0.124   2.497  0.00  0.00    +0.038 C 
BRANCH  11  12
ATOM     12  C   LIG    1        0.687  -0.623   3.718  0.00  0.00    -0.047 A 
ATOM     13  C   LIG    1        0.412  -1.881   4.221  0.00  0.00    +0.005 A 
ATOM     14  C   LIG    1        1.084  -2.341   5.338  0.00  0.00    +0.020 A 
ATOM     15  C   LIG    1        2.025  -1.539   5.958  0.00  0.00    +0.041 A 
ATOM     16 CL   LIG    1        2.865  -2.114   7.364  0.00  0.00    -0.084 Cl
ATOM     17  C   LIG    1        2.296  -0.278   5.458  0.00  0.00    +0.020 A 
ATOM     18  C   LIG    1        1.627   0.179   4.338  0.00  0.00    +0.005 A 
ENDBRANCH  11  12
ENDBRANCH   1  11
TORSDOF 6
