REMARK  Name = ZINC28106909
REMARK                            x       y       z     vdW  Elec       q    Type
REMARK                         _______ _______ _______ _____ _____    ______ ____
ROOT
ATOM      1  C   LIG    1        0.089  -2.777  -0.015  0.00  0.00    -0.035 A 
ATOM      2  C   LIG    1       -1.134  -2.109   0.001  0.00  0.00    +0.005 A 
ATOM      3  C   LIG    1       -1.190  -0.749   0.009  0.00  0.00    +0.009 A 
ATOM      4  C   LIG    1        0.002  -0.004   0.002  0.00  0.00    -0.014 A 
ATOM      5  C   LIG    1       -0.017   1.400   0.010  0.00  0.00    +0.054 A 
ATOM      6  C   LIG    1        1.161   2.091   0.002  0.00  0.00    +0.121 A 
ATOM      7  C   LIG    1        2.387   1.419  -0.013  0.00  0.00    +0.046 A 
ATOM      8  C   LIG    1        2.439   0.060  -0.021  0.00  0.00    +0.012 A 
ATOM      9  C   LIG    1        1.246  -0.683  -0.013  0.00  0.00    -0.017 A 
ATOM     10  C   LIG    1        1.264  -2.088  -0.022  0.00  0.00    +0.013 A 
ENDROOT
BRANCH   1  12
ATOM     11  C   LIG    1       -0.613  -4.797  -1.270  0.00  0.00    +0.022 C 
ATOM     12  C   LIG    1        0.113  -4.284  -0.024  0.00  0.00    +0.104 C 
BRANCH  12  13
ATOM     13  C   LIG    1       -0.578  -4.804   1.210  0.00  0.00    +0.243 C 
ATOM     14  N   LIG    1       -0.679  -6.132   1.416  0.00  0.00    -0.197 N 
ATOM     15  H   LIG    1       -0.257  -6.836   0.684  0.00  0.00    +0.182 HD
ATOM     16  O   LIG    1       -1.044  -4.028   2.017  0.00  0.00    -0.273 OA
BRANCH  14  17
ATOM     17  O   LIG    1       -1.328  -6.621   2.576  0.00  0.00    -0.295 OA
ATOM     18  H   LIG    1       -1.411  -7.705   2.744  0.00  0.00    +0.241 HD
ENDBRANCH  14  17
ENDBRANCH  12  13
ENDBRANCH   1  12
BRANCH   6  19
ATOM     19  O   LIG    1        1.141   3.450   0.009  0.00  0.00    -0.495 OA
ATOM     20  C   LIG    1        2.405   4.117   0.001  0.00  0.00    +0.277 C 
ENDBRANCH   6  19
TORSDOF 4
