REMARK  Name = ZINC38340145
REMARK                            x       y       z     vdW  Elec       q    Type
REMARK                         _______ _______ _______ _____ _____    ______ ____
ROOT
ATOM      1  N   LIG    1       -4.826  -2.880   0.032  0.00  0.00    -0.314 N 
ATOM      2  H   LIG    1       -4.858  -3.767   0.422  0.00  0.00    +0.152 HD
ENDROOT
BRANCH   1   6
ATOM      3  C   LIG    1       -1.225  -0.820  -0.143  0.00  0.00    +0.017 A 
ATOM      4  C   LIG    1       -2.437  -0.117  -0.129  0.00  0.00    +0.013 A 
ATOM      5  C   LIG    1       -3.619  -0.798  -0.071  0.00  0.00    +0.024 A 
ATOM      6  C   LIG    1       -3.621  -2.190  -0.027  0.00  0.00    +0.031 A 
ATOM      7  C   LIG    1       -2.418  -2.894  -0.041  0.00  0.00    +0.024 A 
ATOM      8  C   LIG    1       -1.232  -2.220  -0.104  0.00  0.00    +0.013 A 
BRANCH   3  10
ATOM      9  C   LIG    1        0.052   1.415  -0.247  0.00  0.00    +0.091 C 
ATOM     10  C   LIG    1        0.048  -0.092  -0.205  0.00  0.00    +0.160 C 
ATOM     11  O   LIG    1        1.095  -0.702  -0.223  0.00  0.00    -0.292 OA
ENDBRANCH   3  10
ENDBRANCH   1   6
BRANCH   1  12
ATOM     12  C   LIG    1       -5.991  -2.294  -0.470  0.00  0.00    +0.032 A 
ATOM     13  C   LIG    1       -5.923  -1.436  -1.562  0.00  0.00    +0.023 A 
ATOM     14  C   LIG    1       -7.072  -0.854  -2.064  0.00  0.00    +0.003 A 
ATOM     15  C   LIG    1       -8.296  -1.120  -1.484  0.00  0.00    +0.015 A 
ATOM     16  C   LIG    1       -8.376  -1.981  -0.386  0.00  0.00    +0.061 A 
ATOM     17  C   LIG    1       -7.215  -2.574   0.116  0.00  0.00    +0.038 A 
BRANCH  16  18
ATOM     18  C   LIG    1       -9.683  -2.267   0.236  0.00  0.00    +0.337 C 
ATOM     19  O   LIG    1      -10.698  -1.751  -0.208  0.00  0.00    -0.245 OA
BRANCH  18  20
ATOM     20  O   LIG    1       -9.750  -3.021   1.197  0.00  0.00    -0.477 OA
ATOM     21  H   LIG    1       -8.972  -3.417   1.537  0.00  0.00    +0.295 HD
ENDBRANCH  18  20
ENDBRANCH  16  18
ENDBRANCH   1  12
TORSDOF 5
