REMARK  Name = ZINC36330629
REMARK                            x       y       z     vdW  Elec       q    Type
REMARK                         _______ _______ _______ _____ _____    ______ ____
ROOT
ATOM      1  N   LIG    1       -2.018  -6.065   0.950  0.00  0.00    -0.297 N 
ATOM      2  H   LIG    1       -1.205  -6.475   0.615  0.00  0.00    +0.151 HD
ATOM      3  C   LIG    1       -3.062  -6.836   1.311  0.00  0.00    +0.300 C 
ATOM      4  N   LIG    1       -2.978  -8.177   1.206  0.00  0.00    -0.294 N 
ATOM      5  H   LIG    1       -2.165  -8.587   0.871  0.00  0.00    +0.151 HD
ATOM      6  O   LIG    1       -4.081  -6.322   1.731  0.00  0.00    -0.253 OA
ENDROOT
BRANCH   4   7
ATOM      7  C   LIG    1       -4.113  -9.016   1.599  0.00  0.00    +0.037 C 
ATOM      8  C   LIG    1       -5.332  -8.655   0.748  0.00  0.00    +0.029 C 
ATOM      9  C   LIG    1       -6.518  -9.530   1.157  0.00  0.00    -0.008 C 
ATOM     10  C   LIG    1       -6.163 -11.003   0.942  0.00  0.00    +0.007 C 
ATOM     11  C   LIG    1       -4.944 -11.364   1.793  0.00  0.00    -0.008 C 
ATOM     12  C   LIG    1       -5.266 -11.128   3.270  0.00  0.00    +0.007 C 
ATOM     13  C   LIG    1       -5.621  -9.655   3.486  0.00  0.00    -0.008 C 
ATOM     14  C   LIG    1       -6.840  -9.294   2.635  0.00  0.00    +0.007 C 
ATOM     15  C   LIG    1       -4.435  -8.780   3.076  0.00  0.00    +0.029 C 
ATOM     16  C   LIG    1       -3.759 -10.488   1.383  0.00  0.00    +0.029 C 
ENDBRANCH   4   7
BRANCH   1  21
ATOM     17  N   LIG    1       -1.413  -2.002   0.005  0.00  0.00    +0.380 N 
ATOM     18  H   LIG    1       -0.873  -2.326  -0.783  0.00  0.00    -0.082 HD
ATOM     19  C   LIG    1       -0.802  -2.489   1.247  0.00  0.00    -0.077 C 
ATOM     20  C   LIG    1       -0.705  -4.016   1.209  0.00  0.00    +0.004 C 
ATOM     21  C   LIG    1       -2.110  -4.607   1.064  0.00  0.00    +0.071 C 
ATOM     22  C   LIG    1       -2.766  -4.036  -0.196  0.00  0.00    +0.004 C 
ATOM     23  C   LIG    1       -2.787  -2.508  -0.105  0.00  0.00    -0.077 C 
BRANCH  17  24
ATOM     24  C   LIG    1       -1.433  -0.534   0.013  0.00  0.00    -0.079 C 
BRANCH  24  26
ATOM     25  C   LIG    1       -0.019   1.526   0.010  0.00  0.00    +0.002 C 
ATOM     26  C   LIG    1        0.002  -0.004   0.002  0.00  0.00    -0.022 C 
ENDBRANCH  24  26
ENDBRANCH  17  24
ENDBRANCH   1  21
TORSDOF 4
