REMARK  Name = ZINC26817456
REMARK                            x       y       z     vdW  Elec       q    Type
REMARK                         _______ _______ _______ _____ _____    ______ ____
ROOT
ATOM      1  C   LIG    1       -1.197  -0.917   0.009  0.00  0.00    -0.023 C 
ENDROOT
BRANCH   1   6
ATOM      2  C   LIG    1        2.064   0.754  -0.014  0.00  0.00    +0.116 A 
ATOM      3  N   LIG    1        1.248   1.784  -0.000  0.00  0.00    -0.346 N 
ATOM      4  H   LIG    1        1.652   2.807   0.001  0.00  0.00    +0.167 HD
ATOM      5  C   LIG    1       -0.016   1.344   0.010  0.00  0.00    +0.103 A 
ATOM      6  C   LIG    1        0.002  -0.004   0.002  0.00  0.00    +0.017 A 
ATOM      7  N   LIG    1        1.316  -0.387  -0.013  0.00  0.00    -0.345 N 
ATOM      8  H   LIG    1        1.811  -1.369  -0.023  0.00  0.00    +0.167 HD
BRANCH   2  12
ATOM      9  C   LIG    1        6.308   0.945  -0.053  0.00  0.00    +0.000 A 
ATOM     10  C   LIG    1        5.566   2.113  -0.040  0.00  0.00    +0.001 A 
ATOM     11  C   LIG    1        4.187   2.057  -0.027  0.00  0.00    +0.011 A 
ATOM     12  C   LIG    1        3.542   0.820  -0.027  0.00  0.00    +0.015 A 
ATOM     13  C   LIG    1        4.296  -0.353  -0.035  0.00  0.00    +0.011 A 
ATOM     14  C   LIG    1        5.674  -0.284  -0.053  0.00  0.00    +0.001 A 
ENDBRANCH   2  12
ENDBRANCH   1   6
BRANCH   1  15
ATOM     15  N   LIG    1       -1.528  -1.302  -1.369  0.00  0.00    +0.385 N 
ATOM     16  H   LIG    1       -0.611  -1.689  -1.839  0.00  0.00    -0.081 HD
ATOM     17  C   LIG    1       -1.981  -0.141  -2.147  0.00  0.00    -0.059 C 
ATOM     18  C   LIG    1       -2.238  -0.568  -3.594  0.00  0.00    +0.089 C 
ATOM     19  N   LIG    1       -3.246  -1.637  -3.614  0.00  0.00    -0.303 N 
ATOM     20  C   LIG    1       -2.792  -2.799  -2.837  0.00  0.00    +0.089 C 
ATOM     21  C   LIG    1       -2.535  -2.372  -1.390  0.00  0.00    -0.059 C 
BRANCH  19  22
ATOM     22  C   LIG    1       -3.557  -2.001  -4.913  0.00  0.00    +0.218 A 
ATOM     23  N   LIG    1       -3.415  -3.265  -5.283  0.00  0.00    -0.223 NA
ATOM     24  C   LIG    1       -3.709  -3.646  -6.515  0.00  0.00    +0.116 A 
ATOM     25  C   LIG    1       -4.159  -2.703  -7.425  0.00  0.00    +0.039 A 
ATOM     26  C   LIG    1       -4.290  -1.388  -7.007  0.00  0.00    +0.116 A 
ATOM     27  N   LIG    1       -3.985  -1.075  -5.759  0.00  0.00    -0.223 NA
ENDBRANCH  19  22
ENDBRANCH   1  15
TORSDOF 4
