REMARK  Name = ZINC20421698
REMARK                            x       y       z     vdW  Elec       q    Type
REMARK                         _______ _______ _______ _____ _____    ______ ____
ROOT
ATOM      1  C   LIG    1       -0.885   3.349   0.028  0.00  0.00    +0.100 C 
ATOM      2  C   LIG    1       -1.237   2.043   0.018  0.00  0.00    +0.191 C 
ATOM      3  C   LIG    1       -0.014   1.211   0.009  0.00  0.00    +0.282 C 
ATOM      4  N   LIG    1        1.077   1.998   0.003  0.00  0.00    -0.283 N 
ATOM      5  O   LIG    1        0.002  -0.004   0.002  0.00  0.00    -0.267 OA
ATOM      6  C   LIG    1        0.625   3.394   0.014  0.00  0.00    +0.155 C 
ENDROOT
BRANCH   1   7
ATOM      7  C   LIG    1       -1.794   4.499   0.042  0.00  0.00    +0.340 C 
ATOM      8  O   LIG    1       -2.997   4.322   0.052  0.00  0.00    -0.245 OA
BRANCH   7   9
ATOM      9  O   LIG    1       -1.296   5.752   0.043  0.00  0.00    -0.462 OA
BRANCH   9  11
ATOM     10  C   LIG    1       -1.509   8.178   0.058  0.00  0.00    +0.048 C 
ATOM     11  C   LIG    1       -2.255   6.842   0.058  0.00  0.00    +0.229 C 
ENDBRANCH   9  11
ENDBRANCH   7   9
ENDBRANCH   1   7
BRANCH   2  12
ATOM     12  O   LIG    1       -2.505   1.573   0.022  0.00  0.00    -0.502 OA
ATOM     13  H   LIG    1       -3.226   2.171   0.028  0.00  0.00    +0.292 HD
ENDBRANCH   2  12
BRANCH   4  14
ATOM     14  C   LIG    1        2.469   1.542  -0.012  0.00  0.00    +0.182 C 
BRANCH  14  15
ATOM     15  C   LIG    1        2.933   1.393  -1.438  0.00  0.00    +0.122 A 
ATOM     16  C   LIG    1        3.515   2.352  -2.180  0.00  0.00    +0.046 A 
ATOM     17  C   LIG    1        3.785   1.784  -3.446  0.00  0.00    +0.041 A 
ATOM     18  C   LIG    1        3.351   0.511  -3.402  0.00  0.00    +0.195 A 
ATOM     19  O   LIG    1        2.842   0.279  -2.182  0.00  0.00    -0.466 OA
ENDBRANCH  14  15
ENDBRANCH   4  14
TORSDOF 6
