REMARK  Name = ZINC49867711
REMARK                            x       y       z     vdW  Elec       q    Type
REMARK                         _______ _______ _______ _____ _____    ______ ____
ROOT
ATOM      1  C   LIG    1        2.767  -7.441  -0.180  0.00  0.00    +0.019 A 
ATOM      2  C   LIG    1        3.974  -7.473   0.516  0.00  0.00    +0.013 A 
ATOM      3  C   LIG    1        4.554  -8.685   0.831  0.00  0.00    +0.029 A 
ATOM      4  C   LIG    1        3.940  -9.867   0.457  0.00  0.00    +0.106 A 
ATOM      5  C   LIG    1        2.741  -9.841  -0.234  0.00  0.00    +0.029 A 
ATOM      6  C   LIG    1        2.149  -8.635  -0.549  0.00  0.00    +0.013 A 
ENDROOT
BRANCH   1  12
ATOM      7  N   LIG    1        0.738  -1.962  -1.265  0.00  0.00    -0.263 N 
ATOM      8  C   LIG    1        1.778  -2.620  -0.680  0.00  0.00    +0.227 A 
ATOM      9  C   LIG    1        1.794  -4.018  -0.689  0.00  0.00    +0.168 A 
ATOM     10  C   LIG    1        0.726  -4.708  -1.308  0.00  0.00    +0.168 A 
ATOM     11  N   LIG    1        0.982  -5.997  -1.179  0.00  0.00    -0.208 NA
ATOM     12  C   LIG    1        2.139  -6.142  -0.521  0.00  0.00    +0.163 A 
ATOM     13  N   LIG    1       -0.299  -3.978  -1.884  0.00  0.00    -0.290 N 
ATOM     14  H   LIG    1       -1.040  -4.436  -2.312  0.00  0.00    +0.172 HD
ATOM     15  N   LIG    1        2.638  -4.956  -0.221  0.00  0.00    -0.219 NA
ATOM     16  C   LIG    1       -0.272  -2.632  -1.844  0.00  0.00    +0.331 A 
ATOM     17  O   LIG    1       -1.184  -2.007  -2.350  0.00  0.00    -0.246 OA
BRANCH   8  18
ATOM     18  O   LIG    1        2.778  -1.932  -0.099  0.00  0.00    -0.492 OA
ATOM     19  H   LIG    1        2.762  -0.995  -0.096  0.00  0.00    +0.294 HD
ENDBRANCH   8  18
BRANCH   7  20
ATOM     20  C   LIG    1        0.718  -0.497  -1.257  0.00  0.00    +0.129 C 
BRANCH  20  22
ATOM     21  C   LIG    1       -0.019   1.526   0.010  0.00  0.00    +0.005 C 
ATOM     22  C   LIG    1        0.002  -0.004   0.002  0.00  0.00    +0.018 C 
ENDBRANCH  20  22
ENDBRANCH   7  20
ENDBRANCH   1  12
BRANCH   4  23
ATOM     23  S   LIG    1        4.687 -11.410   0.861  0.00  0.00    +0.061 S 
ATOM     24  O   LIG    1        6.075 -11.158   1.030  0.00  0.00    -0.153 OA
ATOM     25  O   LIG    1        4.193 -12.358  -0.075  0.00  0.00    -0.153 OA
BRANCH  23  26
ATOM     26  N   LIG    1        4.104 -11.862   2.344  0.00  0.00    -0.174 NA
ATOM     27  C   LIG    1        4.790 -11.455   3.580  0.00  0.00    +0.125 C 
ATOM     28  C   LIG    1        5.019 -12.701   4.443  0.00  0.00    +0.102 C 
ATOM     29  N   LIG    1        3.741 -13.397   4.641  0.00  0.00    -0.296 NA
ATOM     30  C   LIG    1        3.193 -13.879   3.366  0.00  0.00    +0.102 C 
ATOM     31  C   LIG    1        2.885 -12.677   2.460  0.00  0.00    +0.125 C 
BRANCH  29  32
ATOM     32  C   LIG    1        3.886 -14.499   5.602  0.00  0.00    +0.119 C 
BRANCH  32  33
ATOM     33  C   LIG    1        2.523 -15.030   5.967  0.00  0.00    -0.033 A 
ATOM     34  C   LIG    1        1.834 -14.488   7.036  0.00  0.00    +0.006 A 
ATOM     35  C   LIG    1        0.585 -14.974   7.371  0.00  0.00    +0.020 A 
ATOM     36  C   LIG    1        0.024 -16.003   6.636  0.00  0.00    +0.041 A 
ATOM     37 CL   LIG    1       -1.546 -16.615   7.057  0.00  0.00    -0.084 Cl
ATOM     38  C   LIG    1        0.714 -16.545   5.566  0.00  0.00    +0.020 A 
ATOM     39  C   LIG    1        1.961 -16.054   5.229  0.00  0.00    +0.006 A 
ENDBRANCH  32  33
ENDBRANCH  29  32
ENDBRANCH  23  26
ENDBRANCH   4  23
TORSDOF 8
