REMARK  Name = ZINC44677165
REMARK                            x       y       z     vdW  Elec       q    Type
REMARK                         _______ _______ _______ _____ _____    ______ ____
ROOT
ATOM      1  N   LIG    1        2.989  -1.772   2.180  0.00  0.00    +0.387 N 
ATOM      2  H   LIG    1        2.154  -2.186   1.794  0.00  0.00    -0.085 HD
ATOM      3  H   LIG    1        2.773  -0.857   2.545  0.00  0.00    -0.085 HD
ENDROOT
BRANCH   1   6
ATOM      4  C   LIG    1        3.711  -0.707  -0.038  0.00  0.00    +0.003 C 
ATOM      5  C   LIG    1        3.671  -2.222  -0.251  0.00  0.00    -0.009 C 
ATOM      6  C   LIG    1        4.008  -1.652   1.129  0.00  0.00    -0.063 C 
BRANCH   4  10
ATOM      7  C   LIG    1       -0.017   1.378   0.010  0.00  0.00    +0.000 A 
ATOM      8  C   LIG    1        1.171   2.086   0.002  0.00  0.00    +0.000 A 
ATOM      9  C   LIG    1        2.377   1.411  -0.013  0.00  0.00    +0.004 A 
ATOM     10  C   LIG    1        2.396   0.029  -0.020  0.00  0.00    -0.046 A 
ATOM     11  C   LIG    1        1.208  -0.679  -0.012  0.00  0.00    +0.004 A 
ATOM     12  C   LIG    1        0.002  -0.004   0.002  0.00  0.00    +0.000 A 
ENDBRANCH   4  10
ENDBRANCH   1   6
BRANCH   1  13
ATOM     13  C   LIG    1        3.501  -2.623   3.263  0.00  0.00    +0.015 C 
BRANCH  13  14
ATOM     14  C   LIG    1        2.455  -2.746   4.342  0.00  0.00    +0.196 C 
ATOM     15  N   LIG    1        2.705  -3.484   5.441  0.00  0.00    -0.314 N 
ATOM     16  H   LIG    1        3.558  -3.936   5.538  0.00  0.00    +0.149 HD
ATOM     17  O   LIG    1        1.389  -2.181   4.220  0.00  0.00    -0.278 OA
BRANCH  15  18
ATOM     18  C   LIG    1        1.689  -3.604   6.490  0.00  0.00    +0.073 C 
ATOM     19  C   LIG    1        2.155  -3.482   7.942  0.00  0.00    +0.024 C 
ATOM     20  C   LIG    1        1.740  -4.845   7.384  0.00  0.00    +0.024 C 
ENDBRANCH  15  18
ENDBRANCH  13  14
ENDBRANCH   1  13
TORSDOF 5
