REMARK  Name = ZINC29488267
REMARK                            x       y       z     vdW  Elec       q    Type
REMARK                         _______ _______ _______ _____ _____    ______ ____
ROOT
ATOM      1  C   LIG    1        0.739  -2.004  -1.265  0.00  0.00    +0.062 A 
ATOM      2  N   LIG    1        1.739  -2.797  -0.826  0.00  0.00    -0.279 N 
ATOM      3  H   LIG    1        2.570  -2.467  -0.450  0.00  0.00    +0.189 HD
ATOM      4  N   LIG    1        1.455  -4.044  -0.965  0.00  0.00    -0.167 NA
ATOM      5  C   LIG    1        0.271  -4.192  -1.504  0.00  0.00    +0.175 A 
ATOM      6  C   LIG    1       -0.584  -5.318  -1.906  0.00  0.00    +0.280 A 
ATOM      7  N   LIG    1       -1.788  -5.026  -2.450  0.00  0.00    -0.305 N 
ATOM      8  H   LIG    1       -2.373  -5.749  -2.725  0.00  0.00    +0.170 HD
ATOM      9  C   LIG    1       -2.199  -3.729  -2.620  0.00  0.00    +0.145 A 
ATOM     10  N   LIG    1       -1.482  -2.690  -2.282  0.00  0.00    -0.225 NA
ATOM     11  O   LIG    1       -0.222  -6.470  -1.756  0.00  0.00    -0.265 OA
ATOM     12  C   LIG    1       -0.254  -2.833  -1.726  0.00  0.00    +0.119 A 
ENDROOT
BRANCH   9  13
ATOM     13  C   LIG    1       -3.527  -3.493  -3.221  0.00  0.00    +0.059 A 
ATOM     14  C   LIG    1       -4.331  -4.572  -3.594  0.00  0.00    +0.015 A 
ATOM     15  C   LIG    1       -5.570  -4.344  -4.154  0.00  0.00    +0.001 A 
ATOM     16  C   LIG    1       -6.021  -3.050  -4.349  0.00  0.00    +0.004 A 
ATOM     17  C   LIG    1       -5.235  -1.974  -3.985  0.00  0.00    +0.046 A 
ATOM     18  C   LIG    1       -3.989  -2.185  -3.416  0.00  0.00    +0.131 A 
BRANCH  18  19
ATOM     19  O   LIG    1       -3.218  -1.128  -3.052  0.00  0.00    -0.492 OA
BRANCH  19  20
ATOM     20  C   LIG    1       -3.756   0.176  -3.280  0.00  0.00    +0.226 C 
ATOM     21  C   LIG    1       -2.751   1.231  -2.811  0.00  0.00    +0.048 C 
ENDBRANCH  19  20
ENDBRANCH  18  19
ENDBRANCH   9  13
BRANCH   1  22
ATOM     22  C   LIG    1        0.718  -0.497  -1.257  0.00  0.00    +0.057 C 
BRANCH  22  24
ATOM     23  C   LIG    1       -0.019   1.526   0.010  0.00  0.00    +0.004 C 
ATOM     24  C   LIG    1        0.002  -0.004   0.002  0.00  0.00    +0.003 C 
ENDBRANCH  22  24
ENDBRANCH   1  22
TORSDOF 5
