REMARK  Name = ZINC22059475
REMARK                            x       y       z     vdW  Elec       q    Type
REMARK                         _______ _______ _______ _____ _____    ______ ____
ROOT
ATOM      1  C   LIG    1        1.668   3.170   0.002  0.00  0.00    +0.039 C 
ATOM      2  C   LIG    1        0.820   4.128   0.520  0.00  0.00    +0.048 C 
ATOM      3  C   LIG    1        1.014   5.596   0.520  0.00  0.00    +0.011 A 
ATOM      4  C   LIG    1        2.018   6.425   0.029  0.00  0.00    +0.048 A 
ATOM      5  C   LIG    1        1.909   7.794   0.177  0.00  0.00    +0.124 A 
ATOM      6  F   LIG    1        2.883   8.604  -0.292  0.00  0.00    -0.205 F 
ATOM      7  C   LIG    1        0.800   8.338   0.809  0.00  0.00    +0.040 A 
ATOM      8  C   LIG    1       -0.203   7.523   1.293  0.00  0.00    +0.027 A 
ATOM      9  C   LIG    1       -0.110   6.143   1.152  0.00  0.00    +0.042 A 
ATOM     10  N   LIG    1       -0.961   5.114   1.541  0.00  0.00    -0.281 N 
ATOM     11  H   LIG    1       -1.902   5.345   2.061  0.00  0.00    +0.155 HD
ATOM     12  C   LIG    1       -0.466   3.913   1.196  0.00  0.00    +0.249 C 
ATOM     13  O   LIG    1       -0.992   2.834   1.408  0.00  0.00    -0.270 OA
ENDROOT
BRANCH   1  16
ATOM     14  C   LIG    1        3.561   0.730   0.367  0.00  0.00    +0.047 C 
ATOM     15  C   LIG    1        2.076   0.717   0.110  0.00  0.00    -0.012 A 
ATOM     16  C   LIG    1        1.259   1.819  -0.048  0.00  0.00    +0.044 A 
ATOM     17  N   LIG    1       -0.027   1.369  -0.264  0.00  0.00    -0.358 N 
ATOM     18  C   LIG    1       -0.035   0.026  -0.246  0.00  0.00    +0.028 A 
ATOM     19  C   LIG    1       -1.247  -0.848  -0.444  0.00  0.00    +0.064 C 
ATOM     20  H   LIG    1       -0.844   2.089  -0.416  0.00  0.00    +0.166 HD
ATOM     21  C   LIG    1        1.253  -0.423  -0.016  0.00  0.00    +0.082 A 
BRANCH  21  22
ATOM     22  C   LIG    1        1.686  -1.828   0.081  0.00  0.00    +0.339 C 
ATOM     23  O   LIG    1        2.044  -2.423  -0.916  0.00  0.00    -0.245 OA
BRANCH  22  24
ATOM     24  O   LIG    1        1.684  -2.453   1.274  0.00  0.00    -0.477 OA
ATOM     25  H   LIG    1        1.407  -1.994   2.043  0.00  0.00    +0.295 HD
ENDBRANCH  22  24
ENDBRANCH  21  22
ENDBRANCH   1  16
TORSDOF 3
