REMARK  Name = ZINC19796052
REMARK                            x       y       z     vdW  Elec       q    Type
REMARK                         _______ _______ _______ _____ _____    ______ ____
ROOT
ATOM      1  C   LIG    1        1.417   2.055  -0.000  0.00  0.00    +0.196 C 
ENDROOT
BRANCH   1   2
ATOM      2  N   LIG    1        1.397   3.520   0.008  0.00  0.00    -0.274 N 
ATOM      3  H   LIG    1        0.538   4.001   0.018  0.00  0.00    +0.258 HD
BRANCH   2   4
ATOM      4  C   LIG    1        2.556   4.210   0.000  0.00  0.00    +0.411 C 
ATOM      5  N   LIG    1        2.537   5.557   0.008  0.00  0.00    +0.094 NA
BRANCH   4   6
ATOM      6  N   LIG    1        3.733   3.552  -0.015  0.00  0.00    -0.287 N 
ATOM      7  H   LIG    1        4.566   4.048  -0.020  0.00  0.00    +0.255 HD
ATOM      8  H   LIG    1        3.746   2.582  -0.020  0.00  0.00    +0.255 HD
ENDBRANCH   4   6
BRANCH   5   9
ATOM      9  N   LIG    1        1.412   6.187   0.022  0.00  0.00    +0.176 N 
ATOM     10  O   LIG    1        0.280   5.513   0.029  0.00  0.00    -0.095 OA
BRANCH   9  11
ATOM     11  O   LIG    1        1.394   7.504   0.029  0.00  0.00    -0.370 OA
ATOM     12  H   LIG    1        2.199   7.983   0.024  0.00  0.00    +0.332 HD
ENDBRANCH   9  11
ENDBRANCH   5   9
ENDBRANCH   2   4
ENDBRANCH   1   2
BRANCH   1  13
ATOM     13  C   LIG    1       -0.019   1.526   0.010  0.00  0.00    +0.036 C 
BRANCH  13  14
ATOM     14  C   LIG    1        0.002  -0.004   0.002  0.00  0.00    -0.002 C 
BRANCH  14  15
ATOM     15  CA  LIG    1       -1.433  -0.534   0.013  0.00  0.00    +0.036 C 
BRANCH  15  16
ATOM     16  N   LIG    1       -2.083  -0.161   1.276  0.00  0.00    +0.387 N 
ATOM     17  H1  LIG    1       -1.571  -0.560   2.049  0.00  0.00    -0.089 HD
ATOM     18  H2  LIG    1       -3.030  -0.510   1.284  0.00  0.00    -0.089 HD
ATOM     19  H3  LIG    1       -2.095   0.844   1.365  0.00  0.00    -0.089 HD
ENDBRANCH  15  16
BRANCH  15  20
ATOM     20  C   LIG    1       -1.416  -2.035  -0.119  0.00  0.00    +0.290 C 
ATOM     21  O   LIG    1       -1.730  -2.734   0.829  0.00  0.00    -0.253 OA
BRANCH  20  22
ATOM     22  OXT LIG    1       -1.087  -2.550  -1.174  0.00  0.00    -0.482 OA
ATOM     23  HXT LIG    1       -0.846  -2.013  -1.903  0.00  0.00    +0.295 HD
ENDBRANCH  20  22
ENDBRANCH  15  20
ENDBRANCH  14  15
ENDBRANCH  13  14
ENDBRANCH   1  13
TORSDOF 11
