REMARK  Name = ZINC13779482
REMARK                            x       y       z     vdW  Elec       q    Type
REMARK                         _______ _______ _______ _____ _____    ______ ____
ROOT
ATOM      1  N   LIG    1        0.186   1.969   2.308  0.00  0.00    -0.298 N 
ATOM      2  C   LIG    1        1.102   2.931   2.080  0.00  0.00    +0.328 C 
ATOM      3  O   LIG    1        1.141   3.489   1.004  0.00  0.00    -0.279 OA
ENDROOT
BRANCH   1   7
ATOM      4  C   LIG    1       -1.978   2.421  -0.670  0.00  0.00    +0.002 C 
ATOM      5  C   LIG    1       -0.784   1.609  -1.216  0.00  0.00    +0.002 C 
ATOM      6  C   LIG    1       -0.013   1.086   0.008  0.00  0.00    +0.022 C 
ATOM      7  C   LIG    1       -0.763   1.597   1.255  0.00  0.00    +0.076 C 
ATOM      8  C   LIG    1       -1.531   2.845   0.750  0.00  0.00    +0.022 C 
ENDBRANCH   1   7
BRANCH   1   9
ATOM      9  C   LIG    1        0.139   1.295   3.608  0.00  0.00    +0.076 C 
ATOM     10  C   LIG    1        1.012   1.862   4.729  0.00  0.00    +0.024 C 
ATOM     11  C   LIG    1        1.391   0.540   4.058  0.00  0.00    +0.024 C 
ENDBRANCH   1   9
TORSDOF 2
