REMARK  Name = ZINC27523306
REMARK                            x       y       z     vdW  Elec       q    Type
REMARK                         _______ _______ _______ _____ _____    ______ ____
ROOT
ATOM      1  C   LIG    1        3.404   7.751   1.281  0.00  0.00    +0.185 C 
ATOM      2  C   LIG    1        4.279   8.142   2.470  0.00  0.00    +0.052 C 
ATOM      3  C   LIG    1        5.249   9.242   2.015  0.00  0.00    +0.012 C 
ATOM      4  C   LIG    1        4.462  10.435   1.471  0.00  0.00    +0.012 C 
ATOM      5  C   LIG    1        6.117   8.663   0.927  0.00  0.00    -0.020 C 
ATOM      6  C   LIG    1        5.643   7.757   0.093  0.00  0.00    -0.044 C 
ATOM      7  C   LIG    1        6.541   7.166  -0.926  0.00  0.00    -0.000 C 
ATOM      8  C   LIG    1        6.175   6.066  -1.561  0.00  0.00    -0.023 C 
ATOM      9  C   LIG    1        4.875   5.356  -1.336  0.00  0.00    +0.012 C 
ATOM     10  C   LIG    1        3.911   5.714  -2.469  0.00  0.00    +0.012 C 
ATOM     11  C   LIG    1        4.241   5.745   0.000  0.00  0.00    +0.007 C 
ATOM     12  C   LIG    1        4.223   7.271   0.108  0.00  0.00    +0.063 C 
ENDROOT
BRANCH   1  13
ATOM     13  O   LIG    1        2.500   6.690   1.688  0.00  0.00    -0.461 OA
BRANCH  13  14
ATOM     14  C   LIG    1        1.310   7.061   2.188  0.00  0.00    +0.310 C 
ATOM     15  O   LIG    1        1.033   8.234   2.280  0.00  0.00    -0.251 OA
BRANCH  14  16
ATOM     16  C   LIG    1        0.320   6.016   2.632  0.00  0.00    +0.094 C 
ATOM     17  C   LIG    1        0.939   5.167   3.744  0.00  0.00    +0.019 C 
BRANCH  16  19
ATOM     18  C   LIG    1       -1.996   5.641   3.490  0.00  0.00    +0.004 C 
ATOM     19  C   LIG    1       -0.944   6.700   3.156  0.00  0.00    +0.011 C 
ENDBRANCH  16  19
ENDBRANCH  14  16
ENDBRANCH  13  14
ENDBRANCH   1  13
BRANCH  11  20
ATOM     20  C   LIG    1        2.809   5.209   0.064  0.00  0.00    +0.008 C 
BRANCH  20  21
ATOM     21  C   LIG    1        2.767   3.797  -0.522  0.00  0.00    +0.045 C 
BRANCH  21  22
ATOM     22  C   LIG    1        1.335   3.261  -0.458  0.00  0.00    +0.179 C 
ATOM     23  C   LIG    1        1.312   1.804  -0.928  0.00  0.00    +0.076 C 
ATOM     24  C   LIG    1       -0.130   1.288  -0.913  0.00  0.00    +0.129 C 
ATOM     25  C   LIG    1       -0.978   2.152  -1.854  0.00  0.00    +0.152 C 
ATOM     26  C   LIG    1       -0.783   3.603  -1.475  0.00  0.00    +0.310 C 
ATOM     27  O   LIG    1       -1.730   4.335  -1.311  0.00  0.00    -0.251 OA
ATOM     28  O   LIG    1        0.479   4.057  -1.325  0.00  0.00    -0.461 OA
BRANCH  24  29
ATOM     29  O   LIG    1       -0.652   1.368   0.415  0.00  0.00    -0.391 OA
ATOM     30  H   LIG    1       -1.681   1.039   0.621  0.00  0.00    +0.210 HD
ENDBRANCH  24  29
ENDBRANCH  21  22
ENDBRANCH  20  21
ENDBRANCH  11  20
TORSDOF 8
