REMARK  Name = ZINC38190874
REMARK                            x       y       z     vdW  Elec       q    Type
REMARK                         _______ _______ _______ _____ _____    ______ ____
ROOT
ATOM      1  N   LIG    1        5.576  -5.421  -4.874  0.00  0.00    -0.287 N 
ATOM      2  H   LIG    1        6.151  -4.852  -4.339  0.00  0.00    +0.155 HD
ATOM      3  C   LIG    1        6.107  -6.431  -5.592  0.00  0.00    +0.203 C 
ATOM      4  O   LIG    1        5.401  -7.090  -6.326  0.00  0.00    -0.277 OA
ENDROOT
BRANCH   1   9
ATOM      5  C   LIG    1        2.179  -4.529  -3.786  0.00  0.00    -0.046 A 
ATOM      6  C   LIG    1        1.465  -4.750  -4.950  0.00  0.00    +0.004 A 
ATOM      7  C   LIG    1        2.113  -5.193  -6.088  0.00  0.00    +0.002 A 
ATOM      8  C   LIG    1        3.476  -5.417  -6.066  0.00  0.00    +0.023 A 
ATOM      9  C   LIG    1        4.195  -5.196  -4.899  0.00  0.00    +0.034 A 
ATOM     10  C   LIG    1        3.542  -4.746  -3.759  0.00  0.00    +0.027 A 
BRANCH   5  11
ATOM     11  C   LIG    1        1.469  -4.046  -2.548  0.00  0.00    +0.035 C 
BRANCH  11  12
ATOM     12  C   LIG    1        1.453  -2.516  -2.534  0.00  0.00    +0.005 C 
BRANCH  12  13
ATOM     13  C   LIG    1        0.732  -2.025  -1.276  0.00  0.00    +0.000 C 
BRANCH  13  14
ATOM     14  C   LIG    1        0.717  -0.495  -1.262  0.00  0.00    -0.000 C 
BRANCH  14  16
ATOM     15  C   LIG    1       -0.020   1.525   0.010  0.00  0.00    +0.004 C 
ATOM     16  C   LIG    1       -0.004  -0.004  -0.005  0.00  0.00    -0.003 C 
ENDBRANCH  14  16
ENDBRANCH  13  14
ENDBRANCH  12  13
ENDBRANCH  11  12
ENDBRANCH   5  11
ENDBRANCH   1   9
BRANCH   3  17
ATOM     17  C   LIG    1        7.578  -6.739  -5.484  0.00  0.00    +0.014 C 
BRANCH  17  18
ATOM     18  N   LIG    1        7.826  -8.111  -5.948  0.00  0.00    +0.386 N 
ATOM     19  H   LIG    1        7.303  -8.759  -5.378  0.00  0.00    -0.089 HD
ATOM     20  H   LIG    1        8.811  -8.318  -5.876  0.00  0.00    -0.089 HD
ATOM     21  H   LIG    1        7.534  -8.198  -6.910  0.00  0.00    -0.089 HD
ENDBRANCH  17  18
BRANCH  17  22
ATOM     22  C   LIG    1        8.371  -5.757  -6.349  0.00  0.00    +0.005 C 
BRANCH  22  23
ATOM     23  C   LIG    1        9.869  -5.990  -6.143  0.00  0.00    +0.126 C 
BRANCH  23  24
ATOM     24  P   LIG    1       10.813  -4.819  -7.173  0.00  0.00    +0.328 P 
ATOM     25  O   LIG    1       10.359  -4.955  -8.667  0.00  0.00    -0.259 OA
BRANCH  24  26
ATOM     26  O   LIG    1       12.342  -5.141  -7.061  0.00  0.00    -0.324 OA
ATOM     27  H   LIG    1       12.506  -6.046  -7.367  0.00  0.00    +0.220 HD
ENDBRANCH  24  26
BRANCH  24  28
ATOM     28  O   LIG    1       10.549  -3.357  -6.678  0.00  0.00    -0.324 OA
ATOM     29  H   LIG    1        9.602  -3.158  -6.748  0.00  0.00    +0.220 HD
ENDBRANCH  24  28
ENDBRANCH  23  24
ENDBRANCH  22  23
ENDBRANCH  17  22
ENDBRANCH   3  17
TORSDOF 13
