REMARK  Name = ZINC26282536
REMARK                            x       y       z     vdW  Elec       q    Type
REMARK                         _______ _______ _______ _____ _____    ______ ____
ROOT
ATOM      1  C   LIG    1        2.632   3.583   1.407  0.00  0.00    +0.149 C 
ATOM      2  C   LIG    1        3.730   2.829   1.264  0.00  0.00    +0.160 C 
ENDROOT
BRANCH   1   7
ATOM      3  C   LIG    1        2.780   7.128   3.743  0.00  0.00    +0.003 A 
ATOM      4  C   LIG    1        2.865   5.893   4.361  0.00  0.00    +0.021 A 
ATOM      5  C   LIG    1        2.817   4.736   3.608  0.00  0.00    +0.053 A 
ATOM      6 CL   LIG    1        2.924   3.188   4.385  0.00  0.00    -0.083 Cl
ATOM      7  C   LIG    1        2.683   4.816   2.220  0.00  0.00    +0.055 A 
ATOM      8  C   LIG    1        2.603   6.066   1.603  0.00  0.00    +0.053 A 
ATOM      9 CL   LIG    1        2.443   6.177  -0.122  0.00  0.00    -0.083 Cl
ATOM     10  C   LIG    1        2.647   7.214   2.369  0.00  0.00    +0.021 A 
ENDBRANCH   1   7
BRANCH   2  11
ATOM     11  N   LIG    1        3.717   1.735   0.399  0.00  0.00    -0.224 N 
ATOM     12  C   LIG    1        4.760   0.942   0.084  0.00  0.00    +0.224 A 
ATOM     13  N   LIG    1        4.337   0.033  -0.758  0.00  0.00    -0.222 NA
ATOM     14  C   LIG    1        3.040   0.211  -1.003  0.00  0.00    +0.245 A 
ATOM     15  N   LIG    1        2.613   1.238  -0.313  0.00  0.00    -0.154 NA
ENDBRANCH   2  11
BRANCH   1  16
ATOM     16  O   LIG    1        1.470   3.213   0.804  0.00  0.00    -0.487 OA
BRANCH  16  17
ATOM     17  C   LIG    1        0.373   2.881   1.658  0.00  0.00    +0.174 C 
ATOM     18  C   LIG    1       -0.906   3.320   0.999  0.00  0.00    +0.044 C 
ATOM     19  C   LIG    1       -1.883   3.796   2.094  0.00  0.00    +0.004 C 
ATOM     20  C   LIG    1       -2.552   2.689   2.760  0.00  0.00    +0.000 C 
ATOM     21  C   LIG    1       -1.563   1.758   3.490  0.00  0.00    +0.000 C 
ATOM     22  C   LIG    1       -0.940   0.834   2.477  0.00  0.00    +0.004 C 
ATOM     23  C   LIG    1        0.402   1.367   1.940  0.00  0.00    +0.044 C 
ENDBRANCH  16  17
ENDBRANCH   1  16
TORSDOF 4
