REMARK  Name = ZINC19300304
REMARK                            x       y       z     vdW  Elec       q    Type
REMARK                         _______ _______ _______ _____ _____    ______ ____
ROOT
ATOM      1  C   LIG    1        1.417   2.055  -0.000  0.00  0.00    +0.265 C 
ENDROOT
BRANCH   1   2
ATOM      2  P   LIG    1        2.298   1.452   1.476  0.00  0.00    +0.371 P 
ATOM      3  O   LIG    1        1.575   1.950   2.748  0.00  0.00    -0.255 OA
BRANCH   2   4
ATOM      4  O   LIG    1        3.809   2.009   1.465  0.00  0.00    -0.322 OA
ATOM      5  H   LIG    1        4.338   1.726   2.224  0.00  0.00    +0.220 HD
ENDBRANCH   2   4
BRANCH   2   6
ATOM      6  O   LIG    1        2.319  -0.093   1.468  0.00  0.00    -0.322 OA
ATOM      7  H   LIG    1        1.409  -0.429   1.475  0.00  0.00    +0.220 HD
ENDBRANCH   2   6
ENDBRANCH   1   2
BRANCH   1   8
ATOM      8  P   LIG    1        1.392   3.878   0.010  0.00  0.00    +0.371 P 
ATOM      9  O   LIG    1        0.782   4.378   1.338  0.00  0.00    -0.255 OA
BRANCH   8  10
ATOM     10  O   LIG    1        0.538   4.388  -1.173  0.00  0.00    -0.322 OA
ATOM     11  H   LIG    1       -0.368   4.052  -1.086  0.00  0.00    +0.220 HD
ENDBRANCH   8  10
BRANCH   8  12
ATOM     12  O   LIG    1        2.895   4.436  -0.134  0.00  0.00    -0.322 OA
ATOM     13  H   LIG    1        2.958   5.401  -0.136  0.00  0.00    +0.220 HD
ENDBRANCH   8  12
ENDBRANCH   1   8
BRANCH   1  14
ATOM     14  O   LIG    1        2.086   1.595  -1.176  0.00  0.00    -0.367 OA
ATOM     15  H   LIG    1        1.670   1.879  -2.002  0.00  0.00    +0.212 HD
ENDBRANCH   1  14
BRANCH   1  16
ATOM     16  C   LIG    1       -0.019   1.526   0.010  0.00  0.00    +0.041 C 
BRANCH  16  17
ATOM     17  C   LIG    1        0.002  -0.004   0.002  0.00  0.00    -0.082 C 
BRANCH  17  18
ATOM     18  N   LIG    1       -1.376  -0.512   0.012  0.00  0.00    +0.378 N 
ATOM     19  H   LIG    1       -1.362  -1.521   0.007  0.00  0.00    -0.090 HD
ATOM     20  H   LIG    1       -1.864  -0.178  -0.805  0.00  0.00    -0.090 HD
ATOM     21  H   LIG    1       -1.848  -0.187   0.843  0.00  0.00    -0.090 HD
ENDBRANCH  17  18
ENDBRANCH  16  17
ENDBRANCH   1  16
TORSDOF 10
