REMARK  Name = ZINC15990236
REMARK                            x       y       z     vdW  Elec       q    Type
REMARK                         _______ _______ _______ _____ _____    ______ ____
ROOT
ATOM      1  C   LIG    1        1.268  -2.144  -0.022  0.00  0.00    +0.158 A 
ATOM      2  N   LIG    1        2.407  -2.902  -0.032  0.00  0.00    -0.337 N 
ATOM      3  C   LIG    1        2.016  -4.226  -0.037  0.00  0.00    +0.069 A 
ATOM      4  C   LIG    1        2.701  -5.434  -0.048  0.00  0.00    +0.060 A 
ATOM      5  C   LIG    1        1.997  -6.619  -0.051  0.00  0.00    +0.124 A 
ATOM      6  C   LIG    1        0.609  -6.613  -0.045  0.00  0.00    +0.035 A 
ATOM      7  C   LIG    1       -0.083  -5.436  -0.035  0.00  0.00    +0.032 A 
ATOM      8  C   LIG    1        0.610  -4.220  -0.030  0.00  0.00    +0.090 A 
ATOM      9  H   LIG    1        3.319  -2.571  -0.035  0.00  0.00    +0.167 HD
ATOM     10  N   LIG    1        0.216  -2.924  -0.016  0.00  0.00    -0.226 NA
ENDROOT
BRANCH   1  15
ATOM     11  C   LIG    1       -0.017   1.380   0.010  0.00  0.00    +0.004 A 
ATOM     12  C   LIG    1        1.193   2.059   0.002  0.00  0.00    +0.020 A 
ATOM     13  C   LIG    1        2.375   1.340  -0.013  0.00  0.00    +0.111 A 
ATOM     14  N   LIG    1        2.366   0.023  -0.021  0.00  0.00    -0.252 NA
ATOM     15  C   LIG    1        1.230  -0.665  -0.014  0.00  0.00    +0.106 A 
ATOM     16  C   LIG    1        0.002  -0.004   0.002  0.00  0.00    +0.031 A 
ENDBRANCH   1  15
BRANCH   5  17
ATOM     17  N   LIG    1        2.727  -7.907  -0.063  0.00  0.00    +0.006 N 
ATOM     18  O   LIG    1        3.936  -7.917  -0.069  0.00  0.00    -0.130 OA
BRANCH  17  19
ATOM     19  O   LIG    1        2.114  -8.949  -0.066  0.00  0.00    -0.396 OA
ATOM     20  H   LIG    1        1.177  -8.941  -0.061  0.00  0.00    +0.329 HD
ENDBRANCH  17  19
ENDBRANCH   5  17
TORSDOF 3
