REMARK  Name = ZINC28526472
REMARK                            x       y       z     vdW  Elec       q    Type
REMARK                         _______ _______ _______ _____ _____    ______ ____
ROOT
ATOM      1  N   LIG    1       -1.948  -1.147  -1.567  0.00  0.00    -0.192 N 
ATOM      2  H   LIG    1       -1.380  -0.801  -2.293  0.00  0.00    +0.176 HD
ENDROOT
BRANCH   1   3
ATOM      3  C   LIG    1       -3.113  -1.838  -1.867  0.00  0.00    +0.202 A 
ATOM      4  N   LIG    1       -4.016  -2.378  -1.061  0.00  0.00    -0.123 NA
ATOM      5  N   LIG    1       -5.032  -2.979  -1.507  0.00  0.00    -0.119 NA
ATOM      6  C   LIG    1       -5.260  -3.108  -2.798  0.00  0.00    +0.256 A 
ATOM      7  S   LIG    1       -3.832  -2.249  -3.455  0.00  0.00    -0.009 S 
BRANCH   6   8
ATOM      8  S   LIG    1       -6.593  -3.896  -3.639  0.00  0.00    +0.081 S 
ATOM      9  O   LIG    1       -6.040  -4.497  -4.803  0.00  0.00    -0.151 OA
ATOM     10  O   LIG    1       -7.650  -2.949  -3.701  0.00  0.00    -0.151 OA
BRANCH   8  11
ATOM     11  N   LIG    1       -7.120  -5.132  -2.672  0.00  0.00    -0.202 NA
ATOM     12  H   LIG    1       -6.498  -5.583  -2.079  0.00  0.00    +0.144 HD
ATOM     13  H   LIG    1       -8.050  -5.405  -2.698  0.00  0.00    +0.144 HD
ENDBRANCH   8  11
ENDBRANCH   6   8
ENDBRANCH   1   3
BRANCH   1  14
ATOM     14  S   LIG    1       -1.512  -0.905   0.012  0.00  0.00    +0.074 S 
ATOM     15  O   LIG    1       -2.493  -0.046   0.577  0.00  0.00    -0.150 OA
ATOM     16  O   LIG    1       -1.218  -2.186   0.553  0.00  0.00    -0.150 OA
BRANCH  14  23
ATOM     17  C   LIG    1       -0.017   1.378   0.010  0.00  0.00    +0.030 A 
ATOM     18  C   LIG    1        1.171   2.086   0.002  0.00  0.00    +0.017 A 
ATOM     19  C   LIG    1        2.378   1.411  -0.013  0.00  0.00    +0.018 A 
ATOM     20 BR   LIG    1        4.003   2.378  -0.024  0.00  0.00    -0.050 Br
ATOM     21  C   LIG    1        2.396   0.027  -0.021  0.00  0.00    +0.017 A 
ATOM     22  C   LIG    1        1.208  -0.679  -0.013  0.00  0.00    +0.030 A 
ATOM     23  C   LIG    1        0.002  -0.004   0.002  0.00  0.00    +0.109 A 
ENDBRANCH  14  23
ENDBRANCH   1  14
TORSDOF 5
