REMARK  Name = ZINC26495967
REMARK                            x       y       z     vdW  Elec       q    Type
REMARK                         _______ _______ _______ _____ _____    ______ ____
ROOT
ATOM      1  C   LIG    1       -2.367  -0.489  -0.409  0.00  0.00    +0.038 C 
ATOM      2  C   LIG    1       -2.499   0.962   0.059  0.00  0.00    +0.068 C 
ATOM      3  C   LIG    1       -3.023   1.093   1.470  0.00  0.00    -0.019 A 
ATOM      4  C   LIG    1       -2.874   0.273   2.568  0.00  0.00    +0.006 A 
ATOM      5  C   LIG    1       -3.442   0.710   3.759  0.00  0.00    +0.000 A 
ATOM      6  C   LIG    1       -4.123   1.908   3.837  0.00  0.00    +0.000 A 
ATOM      7  C   LIG    1       -4.283   2.731   2.729  0.00  0.00    +0.005 A 
ATOM      8  C   LIG    1       -3.726   2.297   1.541  0.00  0.00    -0.025 A 
ATOM      9  C   LIG    1       -3.724   2.912   0.172  0.00  0.00    +0.090 C 
ATOM     10  C   LIG    1       -2.548   3.879   0.013  0.00  0.00    +0.059 C 
ATOM     11  C   LIG    1       -1.237   3.132   0.019  0.00  0.00    -0.040 A 
ATOM     12  C   LIG    1       -0.049   3.861   0.014  0.00  0.00    +0.006 A 
ATOM     13  C   LIG    1        1.155   3.224   0.008  0.00  0.00    +0.029 A 
ATOM     14  C   LIG    1        1.204   1.807   0.000  0.00  0.00    +0.075 A 
ATOM     15  C   LIG    1       -0.013   1.076   0.008  0.00  0.00    +0.034 A 
ATOM     16  C   LIG    1       -1.198   1.745   0.017  0.00  0.00    -0.018 A 
ATOM     17  N   LIG    1       -3.475   1.760  -0.746  0.00  0.00    -0.296 NA
ATOM     18  H   LIG    1       -3.012   2.051  -1.700  0.00  0.00    +0.124 HD
ENDROOT
BRANCH  14  19
ATOM     19  N   LIG    1        2.368   1.175  -0.014  0.00  0.00    -0.197 NA
ATOM     20  C   LIG    1        3.434   1.827  -0.021  0.00  0.00    +0.041 C 
ATOM     21  S   LIG    1        4.758   2.639  -0.029  0.00  0.00    +0.021 S 
ENDBRANCH  14  19
TORSDOF 1
