REMARK  Name = ZINC14724200
REMARK                            x       y       z     vdW  Elec       q    Type
REMARK                         _______ _______ _______ _____ _____    ______ ____
ROOT
ATOM      1  C   LIG    1       -1.200  -0.637   0.010  0.00  0.00    +0.125 A 
ATOM      2  C   LIG    1       -2.371   0.104   0.019  0.00  0.00    +0.046 A 
ATOM      3  C   LIG    1       -3.592  -0.541   0.028  0.00  0.00    +0.004 A 
ATOM      4  C   LIG    1       -3.641  -1.921   0.030  0.00  0.00    +0.004 A 
ATOM      5  C   LIG    1       -2.472  -2.667   0.021  0.00  0.00    -0.038 A 
ATOM      6  C   LIG    1       -2.578  -4.170   0.028  0.00  0.00    +0.050 C 
ATOM      7  C   LIG    1       -1.249  -4.788  -0.419  0.00  0.00    +0.086 C 
ATOM      8  N   LIG    1       -0.170  -4.186   0.381  0.00  0.00    -0.312 NA
ATOM      9  H   LIG    1        0.681  -4.722   0.301  0.00  0.00    +0.122 HD
ATOM     10  C   LIG    1        0.046  -2.793  -0.025  0.00  0.00    +0.120 C 
ATOM     11  C   LIG    1       -1.251  -2.028   0.003  0.00  0.00    +0.011 A 
ENDROOT
BRANCH   1  13
ATOM     12  C   LIG    1       -0.017   1.425   0.010  0.00  0.00    +0.277 C 
ATOM     13  O   LIG    1        0.002  -0.004   0.002  0.00  0.00    -0.495 OA
ENDBRANCH   1  13
TORSDOF 1
