REMARK  Name = ZINC43120334
REMARK                            x       y       z     vdW  Elec       q    Type
REMARK                         _______ _______ _______ _____ _____    ______ ____
ROOT
ATOM      1  C   LIG    1       -0.018   1.503   0.010  0.00  0.00    +0.064 C 
ATOM      2  C   LIG    1        0.002  -0.004   0.002  0.00  0.00    +0.021 A 
ATOM      3  C   LIG    1        0.007  -0.769  -1.101  0.00  0.00    -0.013 A 
ATOM      4  C   LIG    1        0.029  -2.164  -0.656  0.00  0.00    +0.006 A 
ATOM      5  C   LIG    1        0.043  -3.393  -1.318  0.00  0.00    +0.048 A 
ATOM      6  C   LIG    1        0.063  -4.561  -0.587  0.00  0.00    +0.124 A 
ATOM      7  F   LIG    1        0.075  -5.753  -1.224  0.00  0.00    -0.205 F 
ATOM      8  C   LIG    1        0.069  -4.519   0.802  0.00  0.00    +0.040 A 
ATOM      9  C   LIG    1        0.056  -3.314   1.469  0.00  0.00    +0.029 A 
ATOM     10  C   LIG    1        0.036  -2.123   0.750  0.00  0.00    +0.050 A 
ATOM     11  N   LIG    1        0.024  -0.795   1.118  0.00  0.00    -0.333 N 
ENDROOT
BRANCH   3  12
ATOM     12  C   LIG    1       -0.006  -0.283  -2.528  0.00  0.00    +0.093 C 
BRANCH  12  13
ATOM     13  C   LIG    1        1.409  -0.102  -3.011  0.00  0.00    +0.046 A 
ATOM     14  C   LIG    1        1.818  -0.751  -4.174  0.00  0.00    +0.024 A 
ATOM     15  C   LIG    1        3.098  -0.597  -4.626  0.00  0.00    +0.012 A 
ATOM     16  C   LIG    1        3.970   0.224  -3.887  0.00  0.00    +0.000 A 
ATOM     17  C   LIG    1        5.299   0.429  -4.291  0.00  0.00    +0.010 A 
ATOM     18  C   LIG    1        6.111   1.232  -3.549  0.00  0.00    +0.001 A 
ATOM     19  C   LIG    1        5.640   1.853  -2.393  0.00  0.00    +0.002 A 
ATOM     20  C   LIG    1        4.358   1.676  -1.973  0.00  0.00    +0.028 A 
ATOM     21  C   LIG    1        3.489   0.855  -2.713  0.00  0.00    +0.071 A 
ATOM     22  N   LIG    1        2.223   0.667  -2.328  0.00  0.00    -0.251 NA
ENDBRANCH  12  13
ENDBRANCH   3  12
BRANCH  11  23
ATOM     23  C   LIG    1        0.030  -0.304   2.498  0.00  0.00    +0.242 C 
BRANCH  23  24
ATOM     24  C   LIG    1       -1.388  -0.156   2.985  0.00  0.00    +0.325 C 
ATOM     25  O   LIG    1       -2.318  -0.435   2.247  0.00  0.00    -0.249 OA
BRANCH  24  26
ATOM     26  O   LIG    1       -1.606   0.243   4.116  0.00  0.00    -0.479 OA
ATOM     27  H   LIG    1       -0.891   0.457   4.683  0.00  0.00    +0.295 HD
ENDBRANCH  24  26
ENDBRANCH  23  24
ENDBRANCH  11  23
TORSDOF 5
