REMARK  Name = ZINC23625305
REMARK                            x       y       z     vdW  Elec       q    Type
REMARK                         _______ _______ _______ _____ _____    ______ ____
ROOT
ATOM      1  C   LIG    1       -2.553   3.869   0.047  0.00  0.00    -0.036 C 
ATOM      2  C   LIG    1       -3.114   3.885   1.469  0.00  0.00    +0.024 C 
ATOM      3  C   LIG    1       -4.531   4.399   1.457  0.00  0.00    -0.047 A 
ATOM      4  C   LIG    1       -5.091   4.823   2.653  0.00  0.00    +0.004 A 
ATOM      5  C   LIG    1       -6.387   5.296   2.687  0.00  0.00    +0.000 A 
ATOM      6  C   LIG    1       -7.131   5.347   1.523  0.00  0.00    +0.000 A 
ATOM      7  C   LIG    1       -6.575   4.926   0.332  0.00  0.00    +0.002 A 
ATOM      8  C   LIG    1       -5.271   4.452   0.296  0.00  0.00    -0.061 A 
ATOM      9  C   LIG    1       -4.705   4.013  -1.029  0.00  0.00    -0.046 C 
ATOM     10  N   LIG    1       -3.514   3.182  -0.831  0.00  0.00    +0.386 N 
ATOM     11  H   LIG    1       -3.814   2.229  -0.372  0.00  0.00    -0.085 HD
ATOM     12  H   LIG    1       -3.045   2.988  -1.807  0.00  0.00    -0.085 HD
ENDROOT
BRANCH   1  16
ATOM     13  C   LIG    1        1.175   1.783   0.000  0.00  0.00    +0.000 A 
ATOM     14  C   LIG    1       -0.013   1.076   0.008  0.00  0.00    +0.000 A 
ATOM     15  C   LIG    1       -1.219   1.751   0.017  0.00  0.00    +0.002 A 
ATOM     16  C   LIG    1       -1.238   3.133   0.030  0.00  0.00    -0.061 A 
ATOM     17  C   LIG    1       -0.050   3.840   0.022  0.00  0.00    +0.002 A 
ATOM     18  C   LIG    1        1.156   3.165   0.008  0.00  0.00    +0.000 A 
ENDBRANCH   1  16
TORSDOF 1
