REMARK  Name = ZINC36184602
REMARK                            x       y       z     vdW  Elec       q    Type
REMARK                         _______ _______ _______ _____ _____    ______ ____
ROOT
ATOM      1  C   LIG    1       -0.372  -4.250   0.554  0.00  0.00    +0.128 A 
ATOM      2  C   LIG    1        0.636  -5.179   0.759  0.00  0.00    +0.047 A 
ATOM      3  C   LIG    1        0.372  -6.529   0.631  0.00  0.00    +0.019 A 
ATOM      4  C   LIG    1       -0.901  -6.968   0.298  0.00  0.00    +0.019 A 
ATOM      5 BR   LIG    1       -1.243  -8.820   0.127  0.00  0.00    -0.050 Br
ATOM      6  C   LIG    1       -1.917  -6.061   0.090  0.00  0.00    +0.026 A 
ATOM      7  C   LIG    1       -1.665  -4.689   0.221  0.00  0.00    +0.019 A 
ENDROOT
BRANCH   7   8
ATOM      8  C   LIG    1       -2.742  -3.717   0.008  0.00  0.00    +0.031 C 
ATOM      9  C   LIG    1       -3.868  -4.085  -0.664  0.00  0.00    +0.074 C 
ATOM     10  C   LIG    1       -5.084  -3.364  -0.872  0.00  0.00    +0.217 C 
ATOM     11  N   LIG    1       -6.027  -3.932  -1.554  0.00  0.00    -0.165 NA
ATOM     12  C   LIG    1       -5.885  -5.167  -2.064  0.00  0.00    +0.139 C 
ATOM     13  S   LIG    1       -6.998  -6.085  -2.985  0.00  0.00    -0.026 S 
ATOM     14  S   LIG    1       -4.233  -5.602  -1.539  0.00  0.00    -0.060 S 
BRANCH  10  15
ATOM     15  O   LIG    1       -5.246  -2.120  -0.368  0.00  0.00    -0.493 OA
ATOM     16  H   LIG    1       -4.556  -1.720   0.124  0.00  0.00    +0.294 HD
ENDBRANCH  10  15
ENDBRANCH   7   8
BRANCH   1  17
ATOM     17  O   LIG    1       -0.113  -2.924   0.680  0.00  0.00    -0.487 OA
BRANCH  17  18
ATOM     18  C   LIG    1        1.225  -2.554   1.020  0.00  0.00    +0.265 C 
BRANCH  18  24
ATOM     19  C   LIG    1        0.294   1.105   0.968  0.00  0.00    +0.000 A 
ATOM     20  C   LIG    1        1.500   1.701   1.288  0.00  0.00    +0.001 A 
ATOM     21  C   LIG    1        2.616   0.921   1.520  0.00  0.00    +0.015 A 
ATOM     22  C   LIG    1        2.528  -0.457   1.434  0.00  0.00    +0.024 A 
ATOM     23 BR   LIG    1        4.056  -1.524   1.752  0.00  0.00    -0.050 Br
ATOM     24  C   LIG    1        1.322  -1.053   1.115  0.00  0.00    +0.004 A 
ATOM     25  C   LIG    1        0.205  -0.272   0.882  0.00  0.00    +0.008 A 
ENDBRANCH  18  24
ENDBRANCH  17  18
ENDBRANCH   1  17
TORSDOF 5
