REMARK  Name = ZINC20258786
REMARK                            x       y       z     vdW  Elec       q    Type
REMARK                         _______ _______ _______ _____ _____    ______ ____
ROOT
ATOM      1  C   LIG    1       -0.017   1.364  -0.004  0.00  0.00    +0.141 A 
ATOM      2  C   LIG    1       -1.222   2.046  -0.005  0.00  0.00    +0.050 A 
ATOM      3  C   LIG    1       -1.235   3.429   0.002  0.00  0.00    +0.036 A 
ATOM      4  C   LIG    1       -0.046   4.135  -0.003  0.00  0.00    +0.124 A 
ATOM      5  C   LIG    1        1.161   3.462  -0.008  0.00  0.00    +0.059 A 
ATOM      6  C   LIG    1        1.182   2.074  -0.008  0.00  0.00    +0.078 A 
ENDROOT
BRANCH   6   7
ATOM      7  N   LIG    1        2.404   1.390  -0.013  0.00  0.00    -0.278 N 
ATOM      8  H   LIG    1        2.460   0.367  -0.413  0.00  0.00    +0.155 HD
ATOM      9  C   LIG    1        3.511   1.985   0.473  0.00  0.00    +0.252 C 
ATOM     10  O   LIG    1        3.431   3.075   1.007  0.00  0.00    -0.270 OA
BRANCH   9  11
ATOM     11  C   LIG    1        4.820   1.315   0.358  0.00  0.00    +0.078 A 
ATOM     12  C   LIG    1        4.915   0.060  -0.250  0.00  0.00    +0.017 A 
ATOM     13  C   LIG    1        6.142  -0.558  -0.360  0.00  0.00    +0.001 A 
ATOM     14  C   LIG    1        7.280   0.053   0.140  0.00  0.00    +0.004 A 
ATOM     15  C   LIG    1        7.199   1.290   0.748  0.00  0.00    +0.046 A 
ATOM     16  C   LIG    1        5.974   1.929   0.862  0.00  0.00    +0.129 A 
BRANCH  16  17
ATOM     17  O   LIG    1        5.893   3.145   1.460  0.00  0.00    -0.506 OA
ATOM     18  H   LIG    1        6.800   3.625   1.855  0.00  0.00    +0.292 HD
ENDBRANCH  16  17
ENDBRANCH   9  11
ENDBRANCH   6   7
BRANCH   1  20
ATOM     19  C   LIG    1       -1.269  -0.657  -0.000  0.00  0.00    +0.277 C 
ATOM     20  O   LIG    1       -0.003   0.004  -0.005  0.00  0.00    -0.493 OA
ENDBRANCH   1  20
BRANCH   4  21
ATOM     21  N   LIG    1       -0.066   5.615  -0.002  0.00  0.00    +0.006 N 
ATOM     22  O   LIG    1        0.980   6.238  -0.006  0.00  0.00    -0.130 OA
BRANCH  21  23
ATOM     23  O   LIG    1       -1.129   6.209   0.002  0.00  0.00    -0.396 OA
ATOM     24  H   LIG    1       -1.934   5.730   0.005  0.00  0.00    +0.329 HD
ENDBRANCH  21  23
ENDBRANCH   4  21
TORSDOF 6
