REMARK  Name = ZINC19796050
REMARK                            x       y       z     vdW  Elec       q    Type
REMARK                         _______ _______ _______ _____ _____    ______ ____
ROOT
ATOM      1  C   LIG    1       -0.018   1.503   0.010  0.00  0.00    +0.035 C 
ATOM      2  C   LIG    1        0.002  -0.004   0.002  0.00  0.00    -0.031 C 
ATOM      3  C   LIG    1       -1.123  -0.674   0.009  0.00  0.00    -0.073 C 
ATOM      4  C   LIG    1       -2.496  -0.012   0.019  0.00  0.00    +0.042 C 
ATOM      5  C   LIG    1       -3.107  -0.319   1.390  0.00  0.00    +0.065 C 
ATOM      6  C   LIG    1       -3.003  -1.789   1.708  0.00  0.00    +0.022 A 
ATOM      7  C   LIG    1       -2.141  -2.628   1.103  0.00  0.00    -0.035 A 
ATOM      8  C   LIG    1       -2.102  -3.986   1.479  0.00  0.00    +0.009 A 
ATOM      9  C   LIG    1       -2.940  -4.448   2.446  0.00  0.00    +0.070 A 
ATOM     10  C   LIG    1       -3.837  -3.551   3.051  0.00  0.00    +0.249 A 
ATOM     11  O   LIG    1       -4.602  -3.942   3.918  0.00  0.00    -0.268 OA
ATOM     12  N   LIG    1       -3.849  -2.264   2.673  0.00  0.00    -0.326 N 
ATOM     13  H   LIG    1       -4.474  -1.654   3.096  0.00  0.00    +0.169 HD
ATOM     14  C   LIG    1       -3.327  -0.655  -1.059  0.00  0.00    -0.020 C 
ATOM     15  C   LIG    1       -3.032  -1.778  -1.621  0.00  0.00    -0.077 C 
ATOM     16  C   LIG    1       -3.992  -2.299  -2.660  0.00  0.00    +0.039 C 
ATOM     17  C   LIG    1       -1.805  -2.595  -1.350  0.00  0.00    +0.026 C 
ATOM     18  C   LIG    1       -1.195  -2.194   0.002  0.00  0.00    -0.017 C 
ENDROOT
BRANCH  18  19
ATOM     19  N   LIG    1        0.138  -2.783   0.190  0.00  0.00    +0.387 N 
ATOM     20  H   LIG    1        0.746  -2.484  -0.557  0.00  0.00    -0.088 HD
ATOM     21  H   LIG    1        0.065  -3.790   0.181  0.00  0.00    -0.088 HD
ATOM     22  H   LIG    1        0.517  -2.481   1.074  0.00  0.00    -0.088 HD
ENDBRANCH  18  19
TORSDOF 1
