REMARK  Name = ZINC13802715
REMARK                            x       y       z     vdW  Elec       q    Type
REMARK                         _______ _______ _______ _____ _____    ______ ____
ROOT
ATOM      1  C   LIG    1        4.291   1.210  -2.428  0.00  0.00    +0.129 A 
ATOM      2  C   LIG    1        4.011   1.651  -1.191  0.00  0.00    +0.088 A 
ATOM      3  N   LIG    1        4.212   2.981  -1.176  0.00  0.00    -0.218 NA
ATOM      4  C   LIG    1        4.598   3.358  -2.361  0.00  0.00    +0.196 A 
ATOM      5  O   LIG    1        4.652   2.283  -3.159  0.00  0.00    -0.444 OA
ENDROOT
BRANCH   1   7
ATOM      6  C   LIG    1        2.809  -0.492  -3.457  0.00  0.00    +0.012 C 
ATOM      7  C   LIG    1        4.211  -0.216  -2.910  0.00  0.00    +0.073 C 
ENDBRANCH   1   7
BRANCH   4   8
ATOM      8  C   LIG    1        4.930   4.771  -2.768  0.00  0.00    +0.093 C 
ATOM      9  C   LIG    1        6.418   5.035  -2.526  0.00  0.00    +0.013 C 
ENDBRANCH   4   8
BRANCH   2  10
ATOM     10  C   LIG    1        3.558   0.807  -0.027  0.00  0.00    +0.115 C 
BRANCH  10  11
ATOM     11  C   LIG    1        2.053   0.735  -0.014  0.00  0.00    +0.065 A 
ATOM     12  C   LIG    1        1.315  -0.391  -0.013  0.00  0.00    +0.107 A 
ATOM     13  N   LIG    1        0.002  -0.004   0.002  0.00  0.00    -0.351 N 
ATOM     14  C   LIG    1       -0.016   1.346   0.009  0.00  0.00    +0.196 A 
ATOM     15  H   LIG    1       -0.795  -0.608   0.006  0.00  0.00    +0.166 HD
ATOM     16  N   LIG    1        1.214   1.781   0.000  0.00  0.00    -0.241 NA
ENDBRANCH  10  11
ENDBRANCH   2  10
TORSDOF 4
