REMARK  Name = ZINC13808146
REMARK                            x       y       z     vdW  Elec       q    Type
REMARK                         _______ _______ _______ _____ _____    ______ ____
ROOT
ATOM      1  S   LIG    1        1.232  -2.441  -0.022  0.00  0.00    +0.095 S 
ATOM      2  O   LIG    1        2.477  -2.827  -0.588  0.00  0.00    -0.148 OA
ATOM      3  O   LIG    1       -0.013  -2.861  -0.562  0.00  0.00    -0.148 OA
ENDROOT
BRANCH   1   8
ATOM      4  C   LIG    1       -0.017   1.378   0.010  0.00  0.00    +0.004 A 
ATOM      5  C   LIG    1        1.171   2.085   0.002  0.00  0.00    +0.033 A 
ATOM      6  C   LIG    1        2.377   1.411  -0.013  0.00  0.00    +0.123 A 
ATOM      7  C   LIG    1        2.396   0.028  -0.020  0.00  0.00    +0.061 A 
ATOM      8  C   LIG    1        1.209  -0.679  -0.012  0.00  0.00    +0.113 A 
ATOM      9  C   LIG    1        0.002  -0.004   0.002  0.00  0.00    +0.029 A 
BRANCH   6  10
ATOM     10  N   LIG    1        3.649   2.168  -0.022  0.00  0.00    +0.006 N 
ATOM     11  O   LIG    1        3.633   3.377  -0.016  0.00  0.00    -0.130 OA
BRANCH  10  12
ATOM     12  O   LIG    1        4.704   1.578  -0.035  0.00  0.00    -0.396 OA
ATOM     13  H   LIG    1        4.717   0.641  -0.040  0.00  0.00    +0.329 HD
ENDBRANCH  10  12
ENDBRANCH   6  10
ENDBRANCH   1   8
BRANCH   1  14
ATOM     14  N   LIG    1        1.256  -2.939   1.557  0.00  0.00    -0.108 N 
ATOM     15  H   LIG    1        1.254  -2.275   2.283  0.00  0.00    +0.211 HD
BRANCH  14  16
ATOM     16  N   LIG    1        1.278  -4.307   1.860  0.00  0.00    -0.173 N 
ATOM     17  H   LIG    1        1.279  -4.962   1.144  0.00  0.00    +0.289 HD
ATOM     18  C   LIG    1        1.296  -4.698   3.098  0.00  0.00    +0.362 C 
BRANCH  18  19
ATOM     19  N   LIG    1        1.317  -6.053   3.398  0.00  0.00    -0.290 N 
ATOM     20  H   LIG    1        1.331  -6.345   4.323  0.00  0.00    +0.255 HD
ATOM     21  H   LIG    1        1.319  -6.708   2.683  0.00  0.00    +0.255 HD
ENDBRANCH  18  19
BRANCH  18  22
ATOM     22  N   LIG    1        1.294  -3.761   4.122  0.00  0.00    -0.290 N 
ATOM     23  H   LIG    1        1.307  -4.053   5.047  0.00  0.00    +0.255 HD
ATOM     24  H   LIG    1        1.279  -2.814   3.913  0.00  0.00    +0.255 HD
ENDBRANCH  18  22
ENDBRANCH  14  16
ENDBRANCH   1  14
TORSDOF 7
