REMARK  Name = ZINC35953488
REMARK                            x       y       z     vdW  Elec       q    Type
REMARK                         _______ _______ _______ _____ _____    ______ ____
ROOT
ATOM      1  N   LIG    1        0.811  -2.233  -2.590  0.00  0.00    -0.281 NA
ATOM      2  C   LIG    1        0.095  -1.146  -3.275  0.00  0.00    +0.091 C 
ATOM      3  C   LIG    1        0.157  -1.398  -4.782  0.00  0.00    +0.051 C 
ATOM      4  C   LIG    1        1.580  -1.662  -5.201  0.00  0.00    -0.038 A 
ATOM      5  C   LIG    1        1.901  -1.559  -6.547  0.00  0.00    +0.053 A 
ATOM      6  C   LIG    1        3.194  -1.796  -6.979  0.00  0.00    +0.162 A 
ATOM      7  C   LIG    1        4.176  -2.141  -6.054  0.00  0.00    +0.162 A 
ATOM      8  C   LIG    1        3.852  -2.241  -4.714  0.00  0.00    +0.054 A 
ATOM      9  C   LIG    1        2.554  -1.999  -4.285  0.00  0.00    -0.023 A 
ATOM     10  C   LIG    1        2.255  -2.110  -2.813  0.00  0.00    +0.089 C 
ENDROOT
BRANCH   6  11
ATOM     11  O   LIG    1        3.503  -1.693  -8.299  0.00  0.00    -0.491 OA
ATOM     12  C   LIG    1        2.443  -1.335  -9.188  0.00  0.00    +0.277 C 
ENDBRANCH   6  11
BRANCH   7  13
ATOM     13  O   LIG    1        5.450  -2.379  -6.468  0.00  0.00    -0.491 OA
ATOM     14  C   LIG    1        6.404  -2.728  -5.463  0.00  0.00    +0.277 C 
ENDBRANCH   7  13
BRANCH   1  15
ATOM     15  C   LIG    1        0.500  -2.246  -1.154  0.00  0.00    +0.174 C 
BRANCH  15  16
ATOM     16  C   LIG    1       -0.895  -2.778  -0.948  0.00  0.00    -0.021 A 
ATOM     17  C   LIG    1       -1.725  -2.981  -2.034  0.00  0.00    +0.005 A 
ATOM     18  C   LIG    1       -3.005  -3.468  -1.845  0.00  0.00    +0.000 A 
ATOM     19  C   LIG    1       -3.454  -3.753  -0.569  0.00  0.00    +0.000 A 
ATOM     20  C   LIG    1       -2.624  -3.550   0.518  0.00  0.00    +0.000 A 
ATOM     21  C   LIG    1       -1.343  -3.067   0.328  0.00  0.00    +0.005 A 
ENDBRANCH  15  16
BRANCH  15  25
ATOM     22  C   LIG    1        0.133   0.811   1.121  0.00  0.00    +0.128 C 
ATOM     23  N   LIG    1        0.046  -0.552   0.590  0.00  0.00    -0.317 N 
ATOM     24  H   LIG    1       -0.403  -1.244   1.101  0.00  0.00    +0.148 HD
ATOM     25  C   LIG    1        0.589  -0.845  -0.608  0.00  0.00    +0.235 C 
ATOM     26  O   LIG    1        1.151   0.020  -1.247  0.00  0.00    -0.274 OA
ENDBRANCH  15  25
ENDBRANCH   1  15
BRANCH  10  27
ATOM     27  C   LIG    1        2.961  -3.344  -2.246  0.00  0.00    +0.028 C 
BRANCH  27  28
ATOM     28  C   LIG    1        2.365  -4.605  -2.873  0.00  0.00    +0.037 C 
BRANCH  28  29
ATOM     29  C   LIG    1        2.978  -5.823  -2.231  0.00  0.00    -0.047 A 
ATOM     30  C   LIG    1        4.129  -6.378  -2.758  0.00  0.00    +0.004 A 
ATOM     31  C   LIG    1        4.691  -7.495  -2.168  0.00  0.00    +0.012 A 
ATOM     32  C   LIG    1        4.101  -8.057  -1.051  0.00  0.00    +0.055 A 
ATOM     33  C   LIG    1        2.951  -7.502  -0.523  0.00  0.00    +0.012 A 
ATOM     34  C   LIG    1        2.391  -6.382  -1.111  0.00  0.00    +0.004 A 
BRANCH  32  35
ATOM     35  C   LIG    1        4.713  -9.275  -0.409  0.00  0.00    +0.417 C 
ATOM     36  F   LIG    1        5.367 -10.037  -1.383  0.00  0.00    -0.166 F 
ATOM     37  F   LIG    1        3.707 -10.044   0.186  0.00  0.00    -0.166 F 
ATOM     38  F   LIG    1        5.634  -8.876   0.566  0.00  0.00    -0.166 F 
ENDBRANCH  32  35
ENDBRANCH  28  29
ENDBRANCH  27  28
ENDBRANCH  10  27
TORSDOF 9
