REMARK  Name = ZINC26269276
REMARK                            x       y       z     vdW  Elec       q    Type
REMARK                         _______ _______ _______ _____ _____    ______ ____
ROOT
ATOM      1  C   LIG    1       -0.017   1.383   0.010  0.00  0.00    +0.048 A 
ATOM      2  C   LIG    1        1.170   2.091   0.002  0.00  0.00    +0.044 A 
ATOM      3  C   LIG    1        2.378   1.412  -0.011  0.00  0.00    +0.098 A 
ATOM      4  C   LIG    1        2.397   0.021  -0.011  0.00  0.00    +0.024 A 
ATOM      5  C   LIG    1        3.719  -0.716   0.001  0.00  0.00    +0.227 C 
ATOM      6  N   LIG    1        4.700   0.128  -0.682  0.00  0.00    -0.212 N 
ATOM      7  C   LIG    1        5.881  -0.231  -1.459  0.00  0.00    +0.305 C 
ATOM      8  C   LIG    1        6.454   1.121  -1.854  0.00  0.00    +0.341 C 
ATOM      9  N   LIG    1        5.634   2.035  -1.335  0.00  0.00    -0.005 NA
ATOM     10  O   LIG    1        7.456   1.326  -2.510  0.00  0.00    -0.251 OA
ATOM     11  C   LIG    1        4.636   1.502  -0.676  0.00  0.00    +0.370 C 
ATOM     12  C   LIG    1        1.212  -0.684  -0.009  0.00  0.00    +0.055 A 
ATOM     13  N   LIG    1        3.593   2.129  -0.031  0.00  0.00    -0.207 N 
ATOM     14  H   LIG    1        3.687   3.003   0.380  0.00  0.00    +0.251 HD
ATOM     15  C   LIG    1        0.002  -0.004   0.002  0.00  0.00    +0.117 A 
ENDROOT
BRANCH  15  16
ATOM     16  O   LIG    1       -1.167  -0.699   0.005  0.00  0.00    -0.507 OA
ATOM     17  H   LIG    1       -1.510  -0.895  -0.877  0.00  0.00    +0.292 HD
ENDBRANCH  15  16
TORSDOF 1
