REMARK  Name = ZINC13806630
REMARK                            x       y       z     vdW  Elec       q    Type
REMARK                         _______ _______ _______ _____ _____    ______ ____
ROOT
ATOM      1  C   LIG    1        4.419   3.992   2.311  0.00  0.00    -0.096 C 
ATOM      2  N   LIG    1        4.470   3.529   0.909  0.00  0.00    +0.378 N 
ATOM      3  H   LIG    1        4.623   2.514   0.898  0.00  0.00    -0.082 HD
ATOM      4  C   LIG    1        5.585   4.191   0.199  0.00  0.00    -0.064 C 
ATOM      5  C   LIG    1        5.690   3.608  -1.213  0.00  0.00    +0.089 C 
ATOM      6  C   LIG    1        4.380   3.861  -1.963  0.00  0.00    +0.029 C 
ATOM      7  C   LIG    1        3.222   3.236  -1.179  0.00  0.00    -0.010 C 
ATOM      8  C   LIG    1        3.190   3.828   0.232  0.00  0.00    -0.079 C 
ENDROOT
BRANCH   6   9
ATOM      9  C   LIG    1        4.455   3.238  -3.333  0.00  0.00    -0.043 A 
ATOM     10  C   LIG    1        4.333   1.856  -3.466  0.00  0.00    +0.004 A 
ATOM     11  C   LIG    1        4.396   1.261  -4.688  0.00  0.00    +0.009 A 
ATOM     12  C   LIG    1        4.587   2.049  -5.836  0.00  0.00    -0.018 A 
ATOM     13  C   LIG    1        4.658   1.472  -7.115  0.00  0.00    +0.008 A 
ATOM     14  C   LIG    1        4.849   2.266  -8.203  0.00  0.00    +0.001 A 
ATOM     15  C   LIG    1        4.965   3.649  -8.071  0.00  0.00    +0.001 A 
ATOM     16  C   LIG    1        4.902   4.243  -6.848  0.00  0.00    +0.008 A 
ATOM     17  C   LIG    1        4.711   3.455  -5.700  0.00  0.00    -0.018 A 
ATOM     18  C   LIG    1        4.641   4.033  -4.421  0.00  0.00    +0.012 A 
ENDBRANCH   6   9
BRANCH   5  19
ATOM     19  C   LIG    1        5.944   2.125  -1.129  0.00  0.00    +0.309 C 
ATOM     20  O   LIG    1        5.414   1.470  -0.263  0.00  0.00    -0.251 OA
BRANCH  19  21
ATOM     21  O   LIG    1        6.759   1.532  -2.015  0.00  0.00    -0.468 OA
ATOM     22  C   LIG    1        6.957   0.101  -1.874  0.00  0.00    +0.280 C 
ENDBRANCH  19  21
ENDBRANCH   5  19
TORSDOF 3
