REMARK  Name = ZINC40429742
REMARK                            x       y       z     vdW  Elec       q    Type
REMARK                         _______ _______ _______ _____ _____    ______ ____
ROOT
ATOM      1  C   LIG    1       -0.564   0.118   0.014  0.00  0.00    +0.000 A 
ATOM      2  C   LIG    1        0.556   0.865  -0.304  0.00  0.00    +0.004 A 
ATOM      3  C   LIG    1        1.802   0.274  -0.296  0.00  0.00    +0.046 A 
ATOM      4  C   LIG    1        1.938  -1.071   0.032  0.00  0.00    +0.124 A 
ATOM      5  C   LIG    1        0.816  -1.815   0.353  0.00  0.00    -0.006 A 
ATOM      6  C   LIG    1        0.918  -3.273   0.724  0.00  0.00    +0.042 C 
ATOM      7  C   LIG    1        2.269  -3.829   0.264  0.00  0.00    +0.053 C 
ATOM      8  C   LIG    1        3.366  -2.857   0.711  0.00  0.00    +0.114 C 
ATOM      9  C   LIG    1        3.264  -2.632   2.220  0.00  0.00    +0.067 C 
ATOM     10  C   LIG    1        4.340  -1.634   2.659  0.00  0.00    +0.112 C 
ATOM     11  N   LIG    1        5.650  -2.122   2.207  0.00  0.00    -0.297 N 
ATOM     12  C   LIG    1        6.667  -2.265   3.079  0.00  0.00    +0.247 C 
ATOM     13  O   LIG    1        6.527  -1.924   4.237  0.00  0.00    -0.270 OA
ATOM     14  C   LIG    1        5.830  -2.451   0.786  0.00  0.00    +0.112 C 
ATOM     15  C   LIG    1        4.737  -3.440   0.367  0.00  0.00    +0.067 C 
ATOM     16  O   LIG    1        3.182  -1.618   0.026  0.00  0.00    -0.485 OA
ATOM     17  C   LIG    1       -0.433  -1.217   0.342  0.00  0.00    +0.007 A 
ENDROOT
BRANCH  12  18
ATOM     18  C   LIG    1        7.954  -2.837   2.627  0.00  0.00    +0.037 A 
ATOM     19  C   LIG    1        8.587  -2.326   1.493  0.00  0.00    +0.013 A 
ATOM     20  C   LIG    1        9.787  -2.864   1.076  0.00  0.00    +0.013 A 
ATOM     21  C   LIG    1       10.363  -3.907   1.780  0.00  0.00    +0.055 A 
ATOM     22  C   LIG    1        9.740  -4.417   2.905  0.00  0.00    +0.013 A 
ATOM     23  C   LIG    1        8.543  -3.885   3.336  0.00  0.00    +0.013 A 
BRANCH  21  24
ATOM     24  C   LIG    1       11.675  -4.489   1.319  0.00  0.00    +0.417 C 
ATOM     25  F   LIG    1       11.778  -4.363  -0.071  0.00  0.00    -0.166 F 
ATOM     26  F   LIG    1       11.733  -5.842   1.670  0.00  0.00    -0.166 F 
ATOM     27  F   LIG    1       12.730  -3.803   1.929  0.00  0.00    -0.166 F 
ENDBRANCH  21  24
ENDBRANCH  12  18
TORSDOF 2
