REMARK  Name = ZINC35931820
REMARK                            x       y       z     vdW  Elec       q    Type
REMARK                         _______ _______ _______ _____ _____    ______ ____
ROOT
ATOM      1  C   LIG    1        1.455  -2.521  -2.524  0.00  0.00    +0.013 C 
ENDROOT
BRANCH   1   2
ATOM      2  C   LIG    1        1.584  -4.021  -2.473  0.00  0.00    +0.201 C 
ATOM      3  N   LIG    1        2.559  -4.589  -1.736  0.00  0.00    -0.303 N 
ATOM      4  C   LIG    1        3.557  -3.867  -0.932  0.00  0.00    +0.108 C 
ATOM      5  C   LIG    1        4.479  -4.924  -0.289  0.00  0.00    +0.020 C 
ATOM      6  C   LIG    1        4.299  -6.154  -1.218  0.00  0.00    +0.020 C 
ATOM      7  C   LIG    1        2.799  -6.037  -1.598  0.00  0.00    +0.108 C 
ATOM      8  O   LIG    1        0.810  -4.718  -3.095  0.00  0.00    -0.277 OA
ENDBRANCH   1   2
BRANCH   1   9
ATOM      9  N   LIG    1        0.680  -2.136  -3.711  0.00  0.00    +0.386 N 
ATOM     10  H   LIG    1       -0.238  -2.551  -3.662  0.00  0.00    -0.089 HD
ATOM     11  H   LIG    1        1.152  -2.462  -4.541  0.00  0.00    -0.089 HD
ATOM     12  H   LIG    1        0.593  -1.131  -3.745  0.00  0.00    -0.089 HD
ENDBRANCH   1   9
BRANCH   1  13
ATOM     13  C   LIG    1        0.739  -2.027  -1.265  0.00  0.00    -0.007 C 
BRANCH  13  14
ATOM     14  C   LIG    1        0.718  -0.497  -1.257  0.00  0.00    -0.001 C 
BRANCH  14  16
ATOM     15  C   LIG    1       -0.019   1.526   0.010  0.00  0.00    +0.004 C 
ATOM     16  C   LIG    1        0.002  -0.004   0.002  0.00  0.00    -0.003 C 
ENDBRANCH  14  16
ENDBRANCH  13  14
ENDBRANCH   1  13
TORSDOF 5
