REMARK  Name = ZINC45259884
REMARK                            x       y       z     vdW  Elec       q    Type
REMARK                         _______ _______ _______ _____ _____    ______ ____
ROOT
ATOM      1  C   LIG    1        3.589  -2.468  -1.119  0.00  0.00    -0.011 A 
ATOM      2  C   LIG    1        3.579  -1.505  -2.134  0.00  0.00    +0.028 A 
ATOM      3  C   LIG    1        4.777  -1.078  -2.670  0.00  0.00    +0.112 A 
ATOM      4  N   LIG    1        5.925  -1.563  -2.241  0.00  0.00    -0.255 NA
ATOM      5  C   LIG    1        5.984  -2.478  -1.280  0.00  0.00    +0.072 A 
ATOM      6  C   LIG    1        4.823  -2.956  -0.683  0.00  0.00    +0.037 A 
ENDROOT
BRANCH   1   8
ATOM      7  C   LIG    1        1.267  -2.146  -0.023  0.00  0.00    +0.118 A 
ATOM      8  C   LIG    1        2.324  -2.953  -0.517  0.00  0.00    +0.029 A 
ATOM      9  C   LIG    1        1.963  -4.255  -0.339  0.00  0.00    +0.114 A 
ATOM     10  N   LIG    1        0.744  -4.271   0.237  0.00  0.00    -0.284 N 
ATOM     11  H   LIG    1        0.242  -5.064   0.480  0.00  0.00    +0.188 HD
ATOM     12  N   LIG    1        0.328  -2.948   0.431  0.00  0.00    -0.172 NA
BRANCH   7  17
ATOM     13  C   LIG    1       -0.017   1.379   0.010  0.00  0.00    +0.004 A 
ATOM     14  C   LIG    1        1.194   2.059   0.002  0.00  0.00    +0.020 A 
ATOM     15  C   LIG    1        2.374   1.340  -0.013  0.00  0.00    +0.111 A 
ATOM     16  N   LIG    1        2.365   0.022  -0.021  0.00  0.00    -0.253 NA
ATOM     17  C   LIG    1        1.230  -0.665  -0.014  0.00  0.00    +0.091 A 
ATOM     18  C   LIG    1        0.002  -0.004   0.002  0.00  0.00    +0.030 A 
ENDBRANCH   7  17
ENDBRANCH   1   8
BRANCH   5  19
ATOM     19  C   LIG    1        7.303  -2.990  -0.835  0.00  0.00    +0.000 A 
ATOM     20  C   LIG    1        7.373  -3.955   0.169  0.00  0.00    +0.011 A 
ATOM     21  C   LIG    1        8.596  -4.431   0.584  0.00  0.00    +0.015 A 
ATOM     22  C   LIG    1        9.769  -3.947  -0.003  0.00  0.00    +0.059 A 
ATOM     23  C   LIG    1        9.697  -2.980  -1.010  0.00  0.00    +0.015 A 
ATOM     24  C   LIG    1        8.472  -2.509  -1.426  0.00  0.00    +0.011 A 
BRANCH  22  25
ATOM     25  C   LIG    1       11.080  -4.456   0.440  0.00  0.00    +0.337 C 
ATOM     26  O   LIG    1       11.142  -5.302   1.321  0.00  0.00    -0.245 OA
BRANCH  25  27
ATOM     27  O   LIG    1       12.106  -4.032  -0.074  0.00  0.00    -0.477 OA
ATOM     28  H   LIG    1       12.059  -3.384  -0.749  0.00  0.00    +0.295 HD
ENDBRANCH  25  27
ENDBRANCH  22  25
ENDBRANCH   5  19
TORSDOF 5
