REMARK  Name = ZINC28770699
REMARK                            x       y       z     vdW  Elec       q    Type
REMARK                         _______ _______ _______ _____ _____    ______ ____
ROOT
ATOM      1  C   LIG    1       -0.017   1.383   0.010  0.00  0.00    +0.221 A 
ATOM      2  N   LIG    1       -1.183   2.011   0.019  0.00  0.00    -0.199 NA
ATOM      3  C   LIG    1       -1.238   3.338   0.031  0.00  0.00    +0.136 A 
ATOM      4  C   LIG    1       -0.043   4.068   0.023  0.00  0.00    +0.084 A 
ATOM      5  C   LIG    1        1.156   3.369   0.009  0.00  0.00    +0.149 A 
ATOM      6 CL   LIG    1        2.669   4.219  -0.001  0.00  0.00    -0.061 Cl
ATOM      7  N   LIG    1        1.131   2.042   0.002  0.00  0.00    -0.201 NA
ENDROOT
BRANCH   1  12
ATOM      8  C   LIG    1        0.633  -4.052   1.034  0.00  0.00    +0.105 C 
ATOM      9  N   LIG    1        0.613  -2.583   1.042  0.00  0.00    -0.302 NA
ATOM     10  C   LIG    1        1.358  -2.040  -0.102  0.00  0.00    +0.103 C 
ATOM     11  C   LIG    1        1.381  -0.512  -0.014  0.00  0.00    +0.123 C 
ATOM     12  N   LIG    1        0.002  -0.004   0.002  0.00  0.00    -0.297 N 
ATOM     13  C   LIG    1       -0.743  -0.547   1.146  0.00  0.00    +0.123 C 
ATOM     14  C   LIG    1       -0.766  -2.075   1.058  0.00  0.00    +0.103 C 
ENDBRANCH   1  12
BRANCH   3  15
ATOM     15  N   LIG    1       -2.463   3.992   0.046  0.00  0.00    -0.342 N 
ATOM     16  H   LIG    1       -3.397   3.411   0.047  0.00  0.00    +0.144 HD
ATOM     17  H   LIG    1       -2.499   5.092   0.056  0.00  0.00    +0.144 HD
ENDBRANCH   3  15
BRANCH   4  18
ATOM     18  S   LIG    1       -0.060   5.830   0.033  0.00  0.00    -0.122 S 
ATOM     19  C   LIG    1       -0.080   6.278  -1.725  0.00  0.00    +0.090 C 
ENDBRANCH   4  18
TORSDOF 3
