REMARK  Name = ZINC55562002
REMARK                            x       y       z     vdW  Elec       q    Type
REMARK                         _______ _______ _______ _____ _____    ______ ____
ROOT
ATOM      1  N   LIG    1       -0.203  -6.341   3.416  0.00  0.00    -0.291 NA
ATOM      2  C   LIG    1       -1.455  -6.669   2.721  0.00  0.00    +0.104 C 
ATOM      3  C   LIG    1       -1.424  -8.138   2.286  0.00  0.00    +0.120 C 
ATOM      4  N   LIG    1       -1.129  -8.968   3.464  0.00  0.00    -0.327 N 
ATOM      5  C   LIG    1        0.035  -8.616   4.291  0.00  0.00    +0.120 C 
ATOM      6  C   LIG    1       -0.054  -7.128   4.647  0.00  0.00    +0.104 C 
ENDROOT
BRANCH   4   7
ATOM      7  C   LIG    1       -1.935 -10.063   3.789  0.00  0.00    +0.030 A 
ATOM      8  C   LIG    1       -2.958 -10.453   2.934  0.00  0.00    +0.026 A 
ATOM      9  C   LIG    1       -3.752 -11.536   3.257  0.00  0.00    +0.040 A 
ATOM     10  C   LIG    1       -3.530 -12.232   4.433  0.00  0.00    +0.124 A 
ATOM     11  F   LIG    1       -4.309 -13.291   4.747  0.00  0.00    -0.205 F 
ATOM     12  C   LIG    1       -2.511 -11.846   5.287  0.00  0.00    +0.040 A 
ATOM     13  C   LIG    1       -1.711 -10.767   4.965  0.00  0.00    +0.026 A 
ENDBRANCH   4   7
BRANCH   1  14
ATOM     14  C   LIG    1       -0.119  -4.901   3.698  0.00  0.00    +0.180 C 
BRANCH  14  17
ATOM     15  N   LIG    1        0.057  -2.795   2.414  0.00  0.00    -0.284 N 
ATOM     16  H   LIG    1        0.126  -2.321   3.258  0.00  0.00    +0.155 HD
ATOM     17  C   LIG    1       -0.029  -4.140   2.401  0.00  0.00    +0.231 C 
ATOM     18  O   LIG    1       -0.034  -4.737   1.345  0.00  0.00    -0.274 OA
BRANCH  15  24
ATOM     19  C   LIG    1       -1.250   1.210  -0.122  0.00  0.00    +0.044 C 
ATOM     20  C   LIG    1       -0.580  -0.138  -0.047  0.00  0.00    -0.049 A 
ATOM     21  C   LIG    1        0.026  -0.671  -1.171  0.00  0.00    +0.003 A 
ATOM     22  C   LIG    1        0.642  -1.907  -1.106  0.00  0.00    +0.002 A 
ATOM     23  C   LIG    1        0.654  -2.614   0.081  0.00  0.00    +0.023 A 
ATOM     24  C   LIG    1        0.047  -2.081   1.210  0.00  0.00    +0.034 A 
ATOM     25  C   LIG    1       -0.567  -0.837   1.144  0.00  0.00    +0.026 A 
ENDBRANCH  15  24
ENDBRANCH  14  17
ENDBRANCH   1  14
TORSDOF 4
