REMARK  Name = ZINC16319438
REMARK                            x       y       z     vdW  Elec       q    Type
REMARK                         _______ _______ _______ _____ _____    ______ ____
ROOT
ATOM      1  S   LIG    1        0.235  -2.964  -0.016  0.00  0.00    +0.076 S 
ATOM      2  O   LIG    1       -0.149  -4.332  -0.047  0.00  0.00    -0.150 OA
ATOM      3  O   LIG    1        1.066  -2.429   1.004  0.00  0.00    -0.150 OA
ENDROOT
BRANCH   1  10
ATOM      4  C   LIG    1       -1.201  -0.638   0.010  0.00  0.00    +0.147 A 
ATOM      5  C   LIG    1       -2.375   0.101   0.019  0.00  0.00    +0.050 A 
ATOM      6  C   LIG    1       -3.596  -0.544   0.028  0.00  0.00    +0.042 A 
ATOM      7  C   LIG    1       -3.649  -1.927   0.027  0.00  0.00    +0.125 A 
ATOM      8  F   LIG    1       -4.844  -2.557   0.035  0.00  0.00    -0.205 F 
ATOM      9  C   LIG    1       -2.478  -2.666   0.018  0.00  0.00    +0.070 A 
ATOM     10  C   LIG    1       -1.255  -2.023   0.003  0.00  0.00    +0.153 A 
BRANCH   4  12
ATOM     11  C   LIG    1       -0.017   1.425   0.010  0.00  0.00    +0.277 C 
ATOM     12  O   LIG    1        0.002  -0.004   0.002  0.00  0.00    -0.493 OA
ENDBRANCH   4  12
ENDBRANCH   1  10
BRANCH   1  13
ATOM     13  N   LIG    1        0.992  -2.652  -1.456  0.00  0.00    -0.215 N 
ATOM     14  H   LIG    1        1.106  -3.362  -2.107  0.00  0.00    +0.174 HD
BRANCH  13  15
ATOM     15  C   LIG    1        1.466  -1.368  -1.732  0.00  0.00    +0.066 A 
ATOM     16  C   LIG    1        1.236  -0.781  -2.974  0.00  0.00    +0.027 A 
ATOM     17  C   LIG    1        1.726   0.495  -3.200  0.00  0.00    +0.022 A 
ATOM     18  C   LIG    1        2.421   1.139  -2.194  0.00  0.00    +0.111 A 
ATOM     19  N   LIG    1        2.623   0.556  -1.029  0.00  0.00    -0.261 NA
ATOM     20  C   LIG    1        2.169  -0.654  -0.770  0.00  0.00    +0.135 A 
ENDBRANCH  13  15
ENDBRANCH   1  13
TORSDOF 4
