REMARK  Name = ZINC36087979
REMARK                            x       y       z     vdW  Elec       q    Type
REMARK                         _______ _______ _______ _____ _____    ______ ____
ROOT
ATOM      1  C   LIG    1       -0.019   1.526   0.010  0.00  0.00    +0.015 C 
ATOM      2  C   LIG    1        0.002  -0.004   0.002  0.00  0.00    +0.010 C 
ATOM      3  C   LIG    1        0.744  -0.669  -1.197  0.00  0.00    +0.011 C 
ATOM      4  C   LIG    1        1.062  -2.103  -0.714  0.00  0.00    +0.005 C 
ATOM      5  C   LIG    1        0.481  -2.169   0.732  0.00  0.00    -0.001 C 
ATOM      6  C   LIG    1       -1.065  -2.175   0.532  0.00  0.00    +0.049 C 
ATOM      7  C   LIG    1       -1.389  -0.705   0.062  0.00  0.00    +0.183 C 
ATOM      8  C   LIG    1        0.727  -0.695   1.211  0.00  0.00    -0.023 C 
ATOM      9  C   LIG    1        2.216  -0.348   1.260  0.00  0.00    +0.012 C 
ATOM     10  C   LIG    1        0.031  -0.400   2.541  0.00  0.00    +0.012 C 
ENDROOT
BRANCH   7  11
ATOM     11  O   LIG    1       -2.246  -0.034   0.988  0.00  0.00    -0.461 OA
BRANCH  11  12
ATOM     12  C   LIG    1       -3.564  -0.071   0.737  0.00  0.00    +0.312 C 
ATOM     13  O   LIG    1       -3.977  -0.654  -0.238  0.00  0.00    -0.250 OA
BRANCH  12  14
ATOM     14  C   LIG    1       -4.529   0.615   1.669  0.00  0.00    +0.155 C 
BRANCH  14  15
ATOM     15  C   LIG    1       -5.936   0.425   1.165  0.00  0.00    -0.034 A 
ATOM     16  C   LIG    1       -6.503   1.333   0.284  0.00  0.00    +0.024 A 
ATOM     17  C   LIG    1       -7.796   1.126  -0.157  0.00  0.00    +0.111 A 
ATOM     18  N   LIG    1       -8.489   0.081   0.251  0.00  0.00    -0.263 NA
ATOM     19  C   LIG    1       -7.982  -0.803   1.088  0.00  0.00    +0.111 A 
ATOM     20  C   LIG    1       -6.693  -0.665   1.566  0.00  0.00    +0.024 A 
ENDBRANCH  14  15
ENDBRANCH  12  14
ENDBRANCH  11  12
ENDBRANCH   7  11
TORSDOF 4
