REMARK  Name = ZINC38149326
REMARK                            x       y       z     vdW  Elec       q    Type
REMARK                         _______ _______ _______ _____ _____    ______ ____
ROOT
ATOM      1  O   LIG    1       -5.283  -7.618   1.861  0.00  0.00    -0.393 OA
ENDROOT
BRANCH   1   2
ATOM      2  C   LIG    1       -4.014  -7.301   1.547  0.00  0.00    +0.321 C 
ATOM      3  O   LIG    1       -3.257  -6.917   2.408  0.00  0.00    -0.250 OA
BRANCH   2  14
ATOM      4  C   LIG    1       -2.814 -13.577   0.171  0.00  0.00    +0.132 A 
ATOM      5  C   LIG    1       -3.959 -13.879  -0.552  0.00  0.00    +0.046 A 
ATOM      6  C   LIG    1       -4.810 -12.866  -0.941  0.00  0.00    +0.007 A 
ATOM      7  C   LIG    1       -4.534 -11.544  -0.614  0.00  0.00    -0.043 A 
ATOM      8  C   LIG    1       -3.400 -11.244   0.112  0.00  0.00    -0.035 A 
ATOM      9  C   LIG    1       -3.065  -9.837   0.515  0.00  0.00    -0.003 C 
ATOM     10  C   LIG    1       -3.511  -9.617   1.962  0.00  0.00    +0.016 C 
ATOM     11  C   LIG    1       -1.562  -9.579   0.433  0.00  0.00    +0.011 C 
ATOM     12  C   LIG    1       -1.276  -8.156   0.923  0.00  0.00    +0.002 C 
ATOM     13  C   LIG    1       -2.031  -7.144   0.061  0.00  0.00    +0.018 C 
ATOM     14  C   LIG    1       -3.536  -7.423   0.123  0.00  0.00    +0.069 C 
ATOM     15  C   LIG    1       -4.281  -6.419  -0.758  0.00  0.00    +0.023 C 
ATOM     16  C   LIG    1       -3.796  -8.841  -0.384  0.00  0.00    +0.016 C 
ATOM     17  C   LIG    1       -5.289  -9.170  -0.348  0.00  0.00    +0.010 C 
ATOM     18  C   LIG    1       -5.503 -10.492  -1.086  0.00  0.00    +0.036 C 
ATOM     19  C   LIG    1       -2.543 -12.261   0.504  0.00  0.00    +0.050 A 
BRANCH   4  20
ATOM     20  O   LIG    1       -1.967 -14.569   0.554  0.00  0.00    -0.426 OA
BRANCH  20  22
ATOM     21  C   LIG    1       -0.119 -16.118   0.024  0.00  0.00    +0.136 C 
ATOM     22  C   LIG    1       -1.154 -15.097  -0.374  0.00  0.00    +0.309 C 
ATOM     23  O   LIG    1       -1.251 -14.754  -1.528  0.00  0.00    -0.251 OA
ENDBRANCH  20  22
ENDBRANCH   4  20
ENDBRANCH   2  14
ENDBRANCH   1   2
BRANCH   1  24
ATOM     24  C   LIG    1       -5.667  -7.494   3.144  0.00  0.00    +0.321 C 
ATOM     25  O   LIG    1       -4.880  -7.106   3.975  0.00  0.00    -0.250 OA
BRANCH  24  26
ATOM     26  C   LIG    1       -7.078  -7.838   3.545  0.00  0.00    +0.069 C 
ATOM     27  C   LIG    1       -7.319  -9.335   3.343  0.00  0.00    +0.023 C 
ATOM     28  C   LIG    1       -7.296  -7.474   5.018  0.00  0.00    +0.018 C 
ATOM     29  C   LIG    1       -7.077  -5.976   5.224  0.00  0.00    +0.002 C 
ATOM     30  C   LIG    1       -8.043  -5.178   4.342  0.00  0.00    +0.011 C 
ATOM     31  C   LIG    1       -7.797  -5.549   2.881  0.00  0.00    -0.003 C 
ATOM     32  C   LIG    1       -6.330  -5.277   2.543  0.00  0.00    +0.016 C 
ATOM     33  C   LIG    1       -8.665  -4.742   1.958  0.00  0.00    -0.035 A 
ATOM     34  C   LIG    1       -8.885  -3.407   2.263  0.00  0.00    +0.050 A 
ATOM     35  C   LIG    1       -9.670  -2.618   1.440  0.00  0.00    +0.132 A 
ATOM     36  C   LIG    1      -10.239  -3.170   0.301  0.00  0.00    +0.046 A 
ATOM     37  C   LIG    1      -10.021  -4.498   0.002  0.00  0.00    +0.007 A 
ATOM     38  C   LIG    1       -9.236  -5.292   0.829  0.00  0.00    -0.043 A 
ATOM     39  C   LIG    1       -9.052  -6.736   0.441  0.00  0.00    +0.036 C 
ATOM     40  C   LIG    1       -7.892  -7.371   1.207  0.00  0.00    +0.010 C 
ATOM     41  C   LIG    1       -8.062  -7.041   2.690  0.00  0.00    +0.016 C 
BRANCH  35  42
ATOM     42  O   LIG    1       -9.882  -1.311   1.746  0.00  0.00    -0.426 OA
BRANCH  42  43
ATOM     43  C   LIG    1      -11.076  -0.969   2.255  0.00  0.00    +0.309 C 
ATOM     44  C   LIG    1      -11.402   0.482   2.503  0.00  0.00    +0.136 C 
ATOM     45  O   LIG    1      -11.890  -1.823   2.514  0.00  0.00    -0.251 OA
ENDBRANCH  42  43
ENDBRANCH  35  42
ENDBRANCH  24  26
ENDBRANCH   1  24
TORSDOF 8
