REMARK  Name = ZINC00066019
REMARK                            x       y       z     vdW  Elec       q    Type
REMARK                         _______ _______ _______ _____ _____    ______ ____
ROOT
ATOM      1  N   LIG    1        1.161   3.484   0.009  0.00  0.00    -0.333 N 
ATOM      2  C   LIG    1        0.403   3.996   1.159  0.00  0.00    +0.086 C 
ATOM      3  C   LIG    1        0.342   5.523   1.087  0.00  0.00    -0.063 C 
ATOM      4  N   LIG    1        1.711   6.072   1.084  0.00  0.00    +0.381 N 
ATOM      5  H   LIG    1        1.666   7.096   1.028  0.00  0.00    -0.086 HD
ATOM      6  H   LIG    1        2.188   5.798   1.950  0.00  0.00    -0.086 HD
ATOM      7  C   LIG    1        2.466   5.554  -0.073  0.00  0.00    -0.063 C 
ATOM      8  C   LIG    1        2.527   4.026  -0.001  0.00  0.00    +0.086 C 
ENDROOT
BRANCH   1  15
ATOM      9  C   LIG    1       -0.017   1.377   0.010  0.00  0.00    +0.024 A 
ATOM     10  C   LIG    1        0.002  -0.004   0.002  0.00  0.00    +0.022 A 
ATOM     11  C   LIG    1        1.209  -0.681  -0.013  0.00  0.00    +0.041 A 
ATOM     12 CL   LIG    1        1.229  -2.417  -0.021  0.00  0.00    -0.084 Cl
ATOM     13  C   LIG    1        2.400   0.023  -0.020  0.00  0.00    +0.022 A 
ATOM     14  C   LIG    1        2.387   1.404  -0.013  0.00  0.00    +0.024 A 
ATOM     15  C   LIG    1        1.177   2.086   0.002  0.00  0.00    +0.030 A 
ENDBRANCH   1  15
TORSDOF 1
