REMARK  Name = ZINC00002376
REMARK                            x       y       z     vdW  Elec       q    Type
REMARK                         _______ _______ _______ _____ _____    ______ ____
ROOT
ATOM      1  C   LIG    1       -0.902   2.585   1.645  0.00  0.00    +0.001 A 
ATOM      2  C   LIG    1       -1.048   1.484   0.811  0.00  0.00    +0.001 A 
ATOM      3  C   LIG    1       -0.017   1.083  -0.012  0.00  0.00    +0.012 A 
ATOM      4  C   LIG    1        1.177   1.798  -0.014  0.00  0.00    +0.022 A 
ATOM      5  C   LIG    1        1.327   2.920   0.828  0.00  0.00    -0.013 A 
ATOM      6  C   LIG    1        2.592   3.652   0.805  0.00  0.00    +0.035 A 
ATOM      7  C   LIG    1        3.585   3.242  -0.016  0.00  0.00    +0.051 A 
ATOM      8  N   LIG    1        3.457   2.146  -0.846  0.00  0.00    -0.325 N 
ATOM      9  C   LIG    1        4.428   1.565  -1.793  0.00  0.00    +0.144 C 
ATOM     10  C   LIG    1        3.671   0.369  -2.396  0.00  0.00    +0.135 C 
ATOM     11  N   LIG    1        2.360   0.398  -1.732  0.00  0.00    -0.369 N 
ATOM     12  H   LIG    1        1.599  -0.270  -1.903  0.00  0.00    +0.161 HD
ATOM     13  C   LIG    1        2.305   1.402  -0.889  0.00  0.00    +0.116 A 
ATOM     14  C   LIG    1        0.272   3.306   1.659  0.00  0.00    +0.009 A 
ENDROOT
BRANCH   7  15
ATOM     15  C   LIG    1        4.857   3.996  -0.024  0.00  0.00    -0.001 A 
ATOM     16  C   LIG    1        6.074   3.318   0.071  0.00  0.00    +0.010 A 
ATOM     17  C   LIG    1        7.257   4.027   0.057  0.00  0.00    +0.002 A 
ATOM     18  C   LIG    1        7.240   5.407  -0.040  0.00  0.00    -0.064 A 
ATOM     19  C   LIG    1        6.037   6.085  -0.130  0.00  0.00    +0.002 A 
ATOM     20  C   LIG    1        4.846   5.388  -0.122  0.00  0.00    +0.010 A 
BRANCH  18  21
ATOM     21  C   LIG    1        8.536   6.175  -0.048  0.00  0.00    -0.043 C 
BRANCH  21  22
ATOM     22  N   LIG    1        8.908   6.496   1.346  0.00  0.00    +0.382 N 
ATOM     23  H   LIG    1        8.885   5.634   1.903  0.00  0.00    -0.081 HD
ATOM     24  C   LIG    1       10.274   7.059   1.387  0.00  0.00    -0.078 C 
ATOM     25  C   LIG    1       10.680   7.271   2.848  0.00  0.00    -0.019 C 
ATOM     26  C   LIG    1        9.700   8.245   3.508  0.00  0.00    -0.004 C 
ATOM     27  C   LIG    1        8.280   7.684   3.392  0.00  0.00    -0.019 C 
ATOM     28  C   LIG    1        7.944   7.460   1.916  0.00  0.00    -0.078 C 
ENDBRANCH  21  22
ENDBRANCH  18  21
ENDBRANCH   7  15
TORSDOF 3
