REMARK  Name = ZINC00056577
REMARK                            x       y       z     vdW  Elec       q    Type
REMARK                         _______ _______ _______ _____ _____    ______ ____
ROOT
ATOM      1  C   LIG    1        0.605  -0.606  -1.054  0.00  0.00    +0.124 A 
ATOM      2  C   LIG    1        1.173   0.172  -2.062  0.00  0.00    +0.046 A 
ATOM      3  C   LIG    1        1.782  -0.419  -3.131  0.00  0.00    +0.015 A 
ATOM      4  C   LIG    1        1.838  -1.815  -3.216  0.00  0.00    +0.022 A 
ATOM      5  C   LIG    1        2.486  -2.476  -4.350  0.00  0.00    -0.019 A 
ATOM      6  C   LIG    1        2.508  -3.834  -4.375  0.00  0.00    +0.096 A 
ATOM      7  C   LIG    1        1.916  -4.564  -3.324  0.00  0.00    +0.338 A 
ATOM      8  O   LIG    1        1.324  -3.952  -2.286  0.00  0.00    -0.422 OA
ATOM      9  O   LIG    1        1.943  -5.781  -3.358  0.00  0.00    -0.245 OA
ATOM     10  C   LIG    1        1.267  -2.606  -2.201  0.00  0.00    +0.143 A 
ATOM     11  C   LIG    1        0.656  -1.989  -1.119  0.00  0.00    +0.092 A 
ENDROOT
BRANCH   1  13
ATOM     12  C   LIG    1       -0.017   1.425   0.010  0.00  0.00    +0.277 C 
ATOM     13  O   LIG    1        0.002  -0.004   0.002  0.00  0.00    -0.495 OA
ENDBRANCH   1  13
BRANCH   5  14
ATOM     14  C   LIG    1        3.111  -1.672  -5.461  0.00  0.00    +0.156 C 
BRANCH  14  15
ATOM     15  C   LIG    1        2.055  -1.307  -6.472  0.00  0.00    +0.309 C 
ATOM     16  O   LIG    1        0.902  -1.667  -6.307  0.00  0.00    -0.251 OA
BRANCH  15  17
ATOM     17  O   LIG    1        2.354  -0.652  -7.456  0.00  0.00    -0.480 OA
ATOM     18  H   LIG    1        3.240  -0.375  -7.584  0.00  0.00    +0.295 HD
ENDBRANCH  15  17
ENDBRANCH  14  15
ENDBRANCH   5  14
TORSDOF 4
