REMARK  Name = ZINC15894339
REMARK                            x       y       z     vdW  Elec       q    Type
REMARK                         _______ _______ _______ _____ _____    ______ ____
ROOT
ATOM      1  C   LIG    1        0.451   0.084  -0.820  0.00  0.00    +0.189 C 
ATOM      2  C   LIG    1        0.174   0.071   0.695  0.00  0.00    +0.039 C 
ATOM      3  C   LIG    1       -0.157   1.484   1.180  0.00  0.00    +0.012 C 
ATOM      4  C   LIG    1        1.468  -0.433   1.375  0.00  0.00    +0.012 C 
ATOM      5  C   LIG    1        2.177  -1.224   0.260  0.00  0.00    +0.006 C 
ATOM      6  C   LIG    1        3.641  -1.439   0.542  0.00  0.00    +0.037 C 
ATOM      7  C   LIG    1        4.263  -2.388  -0.491  0.00  0.00    +0.048 C 
ATOM      8  C   LIG    1        5.585  -2.896   0.087  0.00  0.00    +0.194 C 
ATOM      9  F   LIG    1        5.321  -3.781   1.137  0.00  0.00    -0.241 F 
ATOM     10  C   LIG    1        6.408  -1.750   0.599  0.00  0.00    -0.020 C 
ATOM     11  C   LIG    1        7.702  -1.984   0.918  0.00  0.00    +0.054 C 
ATOM     12  C   LIG    1        8.431  -0.809   1.469  0.00  0.00    +0.179 C 
ATOM     13  C   LIG    1        7.652   0.012   2.437  0.00  0.00    +0.047 C 
ATOM     14  C   LIG    1        6.362   0.224   2.097  0.00  0.00    -0.009 C 
ATOM     15  O   LIG    1        9.575  -0.540   1.153  0.00  0.00    -0.288 OA
ATOM     16  C   LIG    1        5.897  -0.363   0.794  0.00  0.00    +0.047 C 
ATOM     17  C   LIG    1        6.609   0.468  -0.276  0.00  0.00    +0.023 C 
ATOM     18  C   LIG    1        4.433  -0.137   0.530  0.00  0.00    +0.153 C 
ATOM     19  F   LIG    1        3.922   0.709   1.520  0.00  0.00    -0.238 F 
ATOM     20  C   LIG    1        4.235   0.546  -0.828  0.00  0.00    +0.154 C 
ATOM     21  C   LIG    1        2.757   0.888  -0.993  0.00  0.00    +0.046 C 
ATOM     22  C   LIG    1        1.922  -0.375  -0.999  0.00  0.00    +0.022 C 
ATOM     23  C   LIG    1        2.131  -1.181  -2.282  0.00  0.00    +0.016 C 
ENDROOT
BRANCH   1  24
ATOM     24  C   LIG    1       -0.478  -0.870  -1.524  0.00  0.00    +0.236 C 
ATOM     25  O   LIG    1       -0.165  -2.035  -1.656  0.00  0.00    -0.281 OA
BRANCH  24  26
ATOM     26  S   LIG    1       -1.976  -0.311  -2.138  0.00  0.00    -0.051 S 
BRANCH  26  27
ATOM     27  C   LIG    1       -2.620  -1.849  -2.843  0.00  0.00    +0.290 C 
ATOM     28  F   LIG    1       -3.062  -2.685  -1.813  0.00  0.00    -0.237 F 
ENDBRANCH  26  27
ENDBRANCH  24  26
ENDBRANCH   1  24
BRANCH  20  29
ATOM     29  O   LIG    1        4.642  -0.338  -1.873  0.00  0.00    -0.389 OA
ATOM     30  H   LIG    1        4.544   0.031  -2.762  0.00  0.00    +0.210 HD
ENDBRANCH  20  29
BRANCH   1  31
ATOM     31  O   LIG    1        0.280   1.427  -1.346  0.00  0.00    -0.449 OA
BRANCH  31  32
ATOM     32  C   LIG    1        0.337   1.571  -2.679  0.00  0.00    +0.308 C 
ATOM     33  O   LIG    1        0.406   0.596  -3.390  0.00  0.00    -0.251 OA
BRANCH  32  35
ATOM     34  C   LIG    1        0.392   2.832  -4.814  0.00  0.00    +0.015 C 
ATOM     35  C   LIG    1        0.316   2.948  -3.290  0.00  0.00    +0.117 C 
ENDBRANCH  32  35
ENDBRANCH  31  32
ENDBRANCH   1  31
TORSDOF 7
