REMARK  Name = ZINC14951858
REMARK                            x       y       z     vdW  Elec       q    Type
REMARK                         _______ _______ _______ _____ _____    ______ ____
ROOT
ATOM      1  C   LIG    1       -0.018   1.503   0.010  0.00  0.00    +0.070 C 
ATOM      2  C   LIG    1        0.002  -0.004   0.002  0.00  0.00    +0.094 C 
ATOM      3  N   LIG    1        0.022  -0.662   1.127  0.00  0.00    -0.115 NA
ENDROOT
BRANCH   2   4
ATOM      4  C   LIG    1        0.000  -0.705  -1.227  0.00  0.00    +0.178 C 
ATOM      5  N   LIG    1        0.018  -2.014  -1.234  0.00  0.00    -0.077 NA
BRANCH   5   6
ATOM      6  N   LIG    1        0.016  -2.653  -2.355  0.00  0.00    +0.044 NA
ATOM      7  C   LIG    1        0.034  -3.972  -2.362  0.00  0.00    +0.404 C 
BRANCH   7   8
ATOM      8  N   LIG    1        0.032  -4.651  -3.553  0.00  0.00    -0.287 N 
ATOM      9  H   LIG    1        0.045  -5.621  -3.559  0.00  0.00    +0.255 HD
ATOM     10  H   LIG    1        0.017  -4.161  -4.391  0.00  0.00    +0.255 HD
ENDBRANCH   7   8
BRANCH   7  11
ATOM     11  N   LIG    1        0.054  -4.664  -1.178  0.00  0.00    -0.287 N 
ATOM     12  H   LIG    1        0.068  -5.633  -1.184  0.00  0.00    +0.255 HD
ATOM     13  H   LIG    1        0.056  -4.183  -0.336  0.00  0.00    +0.255 HD
ENDBRANCH   7  11
ENDBRANCH   5   6
ENDBRANCH   2   4
BRANCH   3  14
ATOM     14  N   LIG    1        0.024   0.032   2.344  0.00  0.00    -0.155 N 
ATOM     15  H   LIG    1        0.011   1.002   2.350  0.00  0.00    +0.292 HD
BRANCH  14  16
ATOM     16  C   LIG    1        0.044  -0.662   3.532  0.00  0.00    +0.400 C 
ATOM     17  N   LIG    1        0.062  -1.966   3.525  0.00  0.00    -0.128 NA
ATOM     18  H   LIG    1        0.061  -2.446   2.682  0.00  0.00    +0.306 HD
BRANCH  16  19
ATOM     19  N   LIG    1        0.046   0.019   4.727  0.00  0.00    -0.288 N 
ATOM     20  H   LIG    1        0.061  -0.470   5.564  0.00  0.00    +0.255 HD
ATOM     21  H   LIG    1        0.033   0.989   4.732  0.00  0.00    +0.255 HD
ENDBRANCH  16  19
ENDBRANCH  14  16
ENDBRANCH   3  14
TORSDOF 7
