REMARK  Name = ZINC21982226
REMARK                            x       y       z     vdW  Elec       q    Type
REMARK                         _______ _______ _______ _____ _____    ______ ____
ROOT
ATOM      1  C   LIG    1        1.422   2.062  -0.142  0.00  0.00    +0.196 C 
ENDROOT
BRANCH   1   2
ATOM      2  N   LIG    1        1.398   3.525  -0.059  0.00  0.00    -0.274 N 
ATOM      3  H   LIG    1        0.551   3.995  -0.018  0.00  0.00    +0.258 HD
BRANCH   2   4
ATOM      4  C   LIG    1        2.555   4.218  -0.040  0.00  0.00    +0.411 C 
ATOM      5  N   LIG    1        2.534   5.563   0.036  0.00  0.00    +0.094 NA
BRANCH   4   6
ATOM      6  N   LIG    1        3.734   3.565  -0.097  0.00  0.00    -0.287 N 
ATOM      7  H   LIG    1        4.562   4.064  -0.177  0.00  0.00    +0.255 HD
ATOM      8  H   LIG    1        3.754   2.596  -0.059  0.00  0.00    +0.255 HD
ENDBRANCH   4   6
BRANCH   5   9
ATOM      9  N   LIG    1        3.634   6.231  -0.041  0.00  0.00    +0.176 N 
ATOM     10  O   LIG    1        4.048   6.685  -1.206  0.00  0.00    -0.095 OA
BRANCH   9  11
ATOM     11  O   LIG    1        4.344   6.459   1.045  0.00  0.00    -0.370 OA
ATOM     12  H   LIG    1        4.049   6.136   1.873  0.00  0.00    +0.332 HD
ENDBRANCH   9  11
ENDBRANCH   5   9
ENDBRANCH   2   4
ENDBRANCH   1   2
BRANCH   1  13
ATOM     13  C   LIG    1       -0.012   1.529  -0.147  0.00  0.00    +0.036 C 
BRANCH  13  14
ATOM     14  C   LIG    1        0.013   0.001  -0.233  0.00  0.00    -0.002 C 
BRANCH  14  15
ATOM     15  CA  LIG    1       -1.421  -0.532  -0.238  0.00  0.00    +0.036 C 
BRANCH  15  16
ATOM     16  N   LIG    1       -2.106  -0.085  -1.458  0.00  0.00    +0.387 N 
ATOM     17  H1  LIG    1       -2.122   0.923  -1.484  0.00  0.00    -0.089 HD
ATOM     18  H2  LIG    1       -3.051  -0.437  -1.462  0.00  0.00    -0.089 HD
ATOM     19  H3  LIG    1       -1.614  -0.434  -2.267  0.00  0.00    -0.089 HD
ENDBRANCH  15  16
BRANCH  15  20
ATOM     20  C   LIG    1       -1.396  -2.039  -0.199  0.00  0.00    +0.290 C 
ATOM     21  O   LIG    1       -1.400  -2.621   0.872  0.00  0.00    -0.253 OA
BRANCH  20  22
ATOM     22  OXT LIG    1       -1.373  -2.675  -1.239  0.00  0.00    -0.482 OA
ATOM     23  HXT LIG    1       -1.370  -2.227  -2.062  0.00  0.00    +0.295 HD
ENDBRANCH  20  22
ENDBRANCH  15  20
ENDBRANCH  14  15
ENDBRANCH  13  14
ENDBRANCH   1  13
TORSDOF 11
