REMARK  Name = ZINC21981303
REMARK                            x       y       z     vdW  Elec       q    Type
REMARK                         _______ _______ _______ _____ _____    ______ ____
ROOT
ATOM      1  C   LIG    1       -0.016   1.310   0.009  0.00  0.00    +0.001 A 
ATOM      2  C   LIG    1        1.250   2.063   0.001  0.00  0.00    +0.002 A 
ATOM      3  C   LIG    1        2.396   1.417  -0.024  0.00  0.00    +0.024 A 
ATOM      4  C   LIG    1        2.415  -0.057  -0.044  0.00  0.00    +0.041 A 
ATOM      5  C   LIG    1        1.287  -0.730  -0.014  0.00  0.00    -0.004 A 
ATOM      6  C   LIG    1        1.285  -2.196   0.040  0.00  0.00    +0.010 C 
ATOM      7  C   LIG    1        2.100  -2.972  -0.598  0.00  0.00    +0.010 C 
ATOM      8  C   LIG    1        3.172  -2.525  -1.494  0.00  0.00    -0.004 A 
ATOM      9  C   LIG    1        3.448  -3.286  -2.728  0.00  0.00    +0.010 A 
ATOM     10  C   LIG    1        4.423  -2.917  -3.529  0.00  0.00    +0.001 A 
ATOM     11  C   LIG    1        5.244  -1.740  -3.194  0.00  0.00    +0.002 A 
ATOM     12  C   LIG    1        4.991  -1.055  -2.101  0.00  0.00    +0.024 A 
ATOM     13  C   LIG    1        3.887  -1.461  -1.209  0.00  0.00    +0.041 A 
ATOM     14  N   LIG    1        3.600  -0.702  -0.130  0.00  0.00    -0.299 N 
ATOM     15  C   LIG    1        0.002  -0.004   0.002  0.00  0.00    +0.010 A 
ENDROOT
BRANCH  14  16
ATOM     16  C   LIG    1        4.578  -0.577   0.953  0.00  0.00    +0.112 C 
BRANCH  16  17
ATOM     17  C   LIG    1        4.341  -1.682   1.984  0.00  0.00    +0.035 C 
BRANCH  17  18
ATOM     18  C   LIG    1        5.362  -1.551   3.116  0.00  0.00    +0.086 C 
BRANCH  18  19
ATOM     19  N   LIG    1        5.135  -2.612   4.106  0.00  0.00    -0.300 NA
ATOM     20  C   LIG    1        3.843  -2.432   4.783  0.00  0.00    +0.100 C 
ATOM     21  C   LIG    1        3.608  -3.598   5.747  0.00  0.00    +0.100 C 
ATOM     22  N   LIG    1        4.707  -3.653   6.721  0.00  0.00    -0.298 NA
ATOM     23  C   LIG    1        5.999  -3.833   6.044  0.00  0.00    +0.100 C 
ATOM     24  C   LIG    1        6.234  -2.667   5.080  0.00  0.00    +0.100 C 
BRANCH  22  25
ATOM     25  C   LIG    1        4.480  -4.714   7.711  0.00  0.00    +0.112 C 
BRANCH  25  26
ATOM     26  C   LIG    1        5.501  -4.583   8.843  0.00  0.00    +0.171 C 
BRANCH  26  27
ATOM     27  O   LIG    1        5.281  -3.358   9.544  0.00  0.00    -0.394 OA
ATOM     28  H   LIG    1        5.894  -3.208  10.277  0.00  0.00    +0.209 HD
ENDBRANCH  26  27
ENDBRANCH  25  26
ENDBRANCH  22  25
ENDBRANCH  18  19
ENDBRANCH  17  18
ENDBRANCH  16  17
ENDBRANCH  14  16
TORSDOF 7
