REMARK  Name = ZINC39160105
REMARK                            x       y       z     vdW  Elec       q    Type
REMARK                         _______ _______ _______ _____ _____    ______ ____
ROOT
ATOM      1  C   UNK    1        3.669  -1.021  -0.084  0.00  0.00    +0.091 C 
ENDROOT
BRANCH   1   5
ATOM      2  C   UNK    1        0.673   1.976   0.450  0.00  0.00    +0.000 A 
ATOM      3  C   UNK    1        2.008   2.332   0.414  0.00  0.00    +0.000 A 
ATOM      4  C   UNK    1        2.978   1.362   0.241  0.00  0.00    +0.005 A 
ATOM      5  C   UNK    1        2.612   0.036   0.105  0.00  0.00    -0.023 A 
ATOM      6  C   UNK    1        1.277  -0.320   0.142  0.00  0.00    +0.005 A 
ATOM      7  C   UNK    1        0.307   0.650   0.314  0.00  0.00    +0.000 A 
ENDBRANCH   1   5
BRANCH   1   8
ATOM      8  C   UNK    1        4.436  -0.744  -1.351  0.00  0.00    -0.023 A 
ATOM      9  C   UNK    1        3.827  -0.072  -2.394  0.00  0.00    +0.005 A 
ATOM     10  C   UNK    1        4.530   0.183  -3.557  0.00  0.00    +0.000 A 
ATOM     11  C   UNK    1        5.843  -0.234  -3.676  0.00  0.00    +0.000 A 
ATOM     12  C   UNK    1        6.452  -0.905  -2.632  0.00  0.00    +0.000 A 
ATOM     13  C   UNK    1        5.750  -1.156  -1.468  0.00  0.00    +0.005 A 
ENDBRANCH   1   8
BRANCH   1  14
ATOM     14  C   UNK    1        3.014  -2.375  -0.179  0.00  0.00    -0.023 A 
ATOM     15  C   UNK    1        2.140  -2.649  -1.215  0.00  0.00    +0.005 A 
ATOM     16  C   UNK    1        1.539  -3.890  -1.302  0.00  0.00    +0.000 A 
ATOM     17  C   UNK    1        1.812  -4.859  -0.354  0.00  0.00    +0.000 A 
ATOM     18  C   UNK    1        2.687  -4.585   0.681  0.00  0.00    +0.000 A 
ATOM     19  C   UNK    1        3.291  -3.345   0.766  0.00  0.00    +0.005 A 
ENDBRANCH   1  14
BRANCH   1  20
ATOM     20  S   UNK    1        4.807  -0.998   1.329  0.00  0.00    -0.141 S 
BRANCH  20  21
ATOM     21  C   UNK    1        3.718  -1.150   2.772  0.00  0.00    +0.057 C 
BRANCH  21  22
ATOM     22  C   UNK    1        4.566  -1.280   4.039  0.00  0.00    -0.039 C 
BRANCH  22  23
ATOM     23  N   UNK    1        5.416  -2.474   3.939  0.00  0.00    +0.382 N 
ATOM     24  H   UNK    1        4.835  -3.293   3.837  0.00  0.00    -0.090 HD
ATOM     25  H   UNK    1        5.975  -2.560   4.774  0.00  0.00    -0.090 HD
ATOM     26  H   UNK    1        6.021  -2.390   3.136  0.00  0.00    -0.090 HD
ENDBRANCH  22  23
BRANCH  22  27
ATOM     27  C   UNK    1        3.648  -1.409   5.256  0.00  0.00    +0.140 C 
BRANCH  27  28
ATOM     28  O   UNK    1        4.435  -1.413   6.448  0.00  0.00    -0.397 OA
ATOM     29  H   UNK    1        3.917  -1.492   7.261  0.00  0.00    +0.209 HD
ENDBRANCH  27  28
ENDBRANCH  22  27
ENDBRANCH  21  22
ENDBRANCH  20  21
ENDBRANCH   1  20
TORSDOF 9
