REMARK  Name = ZINC40828817
REMARK                            x       y       z     vdW  Elec       q    Type
REMARK                         _______ _______ _______ _____ _____    ______ ____
ROOT
ATOM      1  C   LIG    1        0.024   1.355   0.656  0.00  0.00    +0.002 A 
ATOM      2  C   LIG    1        1.171   2.068   0.374  0.00  0.00    +0.014 A 
ATOM      3  C   LIG    1        2.370   1.390   0.154  0.00  0.00    +0.050 A 
ATOM      4  C   LIG    1        2.414  -0.012   0.219  0.00  0.00    +0.066 A 
ATOM      5  N   LIG    1        3.712  -0.451  -0.035  0.00  0.00    -0.258 N 
ATOM      6  C   LIG    1        4.543   0.580  -0.267  0.00  0.00    +0.292 C 
ATOM      7  O   LIG    1        5.728   0.504  -0.517  0.00  0.00    -0.266 OA
ATOM      8  C   LIG    1        1.248  -0.710   0.505  0.00  0.00    +0.063 A 
ATOM      9 CL   LIG    1        1.275  -2.444   0.590  0.00  0.00    -0.082 Cl
ATOM     10  C   LIG    1        3.738   1.841  -0.162  0.00  0.00    +0.250 C 
ATOM     11  O   LIG    1        4.127   2.982  -0.305  0.00  0.00    -0.282 OA
ATOM     12  C   LIG    1        0.064  -0.027   0.720  0.00  0.00    +0.022 A 
ENDROOT
BRANCH   5  13
ATOM     13  C   LIG    1        4.120  -1.858  -0.048  0.00  0.00    +0.149 C 
BRANCH  13  14
ATOM     14  C   LIG    1        4.121  -2.368  -1.466  0.00  0.00    -0.030 A 
ATOM     15  C   LIG    1        2.947  -2.823  -2.038  0.00  0.00    +0.006 A 
ATOM     16  C   LIG    1        2.949  -3.291  -3.339  0.00  0.00    +0.013 A 
ATOM     17  C   LIG    1        4.123  -3.303  -4.068  0.00  0.00    +0.055 A 
ATOM     18  C   LIG    1        5.296  -2.848  -3.496  0.00  0.00    +0.013 A 
ATOM     19  C   LIG    1        5.294  -2.376  -2.196  0.00  0.00    +0.006 A 
BRANCH  17  20
ATOM     20  C   LIG    1        4.125  -3.814  -5.485  0.00  0.00    +0.417 C 
ATOM     21  F   LIG    1        3.134  -4.792  -5.630  0.00  0.00    -0.166 F 
ATOM     22  F   LIG    1        5.375  -4.369  -5.780  0.00  0.00    -0.166 F 
ATOM     23  F   LIG    1        3.866  -2.756  -6.363  0.00  0.00    -0.166 F 
ENDBRANCH  17  20
ENDBRANCH  13  14
ENDBRANCH   5  13
TORSDOF 3
