REMARK  Name = ZINC19796084
REMARK                            x       y       z     vdW  Elec       q    Type
REMARK                         _______ _______ _______ _____ _____    ______ ____
ROOT
ATOM      1  C   LIG    1        4.344  -1.604   3.230  0.00  0.00    +0.089 C 
ATOM      2  C   LIG    1        4.462  -2.107   1.789  0.00  0.00    +0.006 C 
ATOM      3  C   LIG    1        5.794  -1.639   1.198  0.00  0.00    -0.077 C 
ATOM      4  N   LIG    1        6.903  -2.175   1.997  0.00  0.00    +0.380 N 
ATOM      5  H   LIG    1        6.838  -3.181   2.029  0.00  0.00    -0.082 HD
ATOM      6  C   LIG    1        6.837  -1.639   3.362  0.00  0.00    -0.077 C 
ATOM      7  C   LIG    1        5.545  -2.107   4.036  0.00  0.00    +0.006 C 
ENDROOT
BRANCH   1  17
ATOM      8  C   LIG    1       -0.266  -0.362   5.464  0.00  0.00    +0.002 A 
ATOM      9  C   LIG    1        0.699   0.515   5.000  0.00  0.00    +0.002 A 
ATOM     10  C   LIG    1        1.864   0.033   4.435  0.00  0.00    +0.028 A 
ATOM     11  C   LIG    1        2.066  -1.335   4.332  0.00  0.00    +0.070 A 
ATOM     12  C   LIG    1        1.092  -2.219   4.800  0.00  0.00    +0.067 A 
ATOM     13  N   LIG    1        1.571  -3.506   4.564  0.00  0.00    -0.306 N 
ATOM     14  C   LIG    1        2.780  -3.409   3.980  0.00  0.00    +0.328 A 
ATOM     15  O   LIG    1        3.472  -4.350   3.642  0.00  0.00    -0.247 OA
ATOM     16  H   LIG    1        1.111  -4.331   4.783  0.00  0.00    +0.170 HD
ATOM     17  N   LIG    1        3.106  -2.111   3.827  0.00  0.00    -0.289 N 
ATOM     18  C   LIG    1       -0.073  -1.726   5.365  0.00  0.00    +0.028 A 
ENDBRANCH   1  17
BRANCH   4  19
ATOM     19  C   LIG    1        8.179  -1.788   1.382  0.00  0.00    -0.079 C 
BRANCH  19  20
ATOM     20  C   LIG    1        9.332  -2.448   2.142  0.00  0.00    -0.018 C 
BRANCH  20  21
ATOM     21  C   LIG    1       10.662  -2.045   1.501  0.00  0.00    +0.011 C 
BRANCH  21  22
ATOM     22  C   LIG    1       11.815  -2.705   2.260  0.00  0.00    +0.049 C 
BRANCH  22  23
ATOM     23  C   LIG    1       13.127  -2.212   1.708  0.00  0.00    -0.040 A 
ATOM     24  C   LIG    1       13.368  -2.267   0.347  0.00  0.00    +0.007 A 
ATOM     25  C   LIG    1       14.571  -1.815  -0.160  0.00  0.00    +0.038 A 
ATOM     26  C   LIG    1       15.536  -1.307   0.694  0.00  0.00    +0.123 A 
ATOM     27  F   LIG    1       16.713  -0.866   0.199  0.00  0.00    -0.205 F 
ATOM     28  C   LIG    1       15.293  -1.253   2.056  0.00  0.00    +0.038 A 
ATOM     29  C   LIG    1       14.087  -1.701   2.561  0.00  0.00    +0.007 A 
ENDBRANCH  22  23
BRANCH  22  30
ATOM     30  C   LIG    1       11.731  -4.201   2.098  0.00  0.00    -0.040 A 
ATOM     31  C   LIG    1       11.641  -4.755   0.835  0.00  0.00    +0.007 A 
ATOM     32  C   LIG    1       11.565  -6.127   0.686  0.00  0.00    +0.038 A 
ATOM     33  C   LIG    1       11.579  -6.946   1.802  0.00  0.00    +0.123 A 
ATOM     34  F   LIG    1       11.505  -8.287   1.657  0.00  0.00    -0.205 F 
ATOM     35  C   LIG    1       11.670  -6.390   3.066  0.00  0.00    +0.038 A 
ATOM     36  C   LIG    1       11.751  -5.018   3.213  0.00  0.00    +0.007 A 
ENDBRANCH  22  30
ENDBRANCH  21  22
ENDBRANCH  20  21
ENDBRANCH  19  20
ENDBRANCH   4  19
TORSDOF 7
