REMARK  Name = ZINC13779558
REMARK                            x       y       z     vdW  Elec       q    Type
REMARK                         _______ _______ _______ _____ _____    ______ ____
ROOT
ATOM      1  C   LIG    1       -0.664   0.891   2.642  0.00  0.00    +0.008 C 
ATOM      2  C   LIG    1       -1.147   1.593   1.371  0.00  0.00    -0.009 C 
ATOM      3  C   LIG    1       -0.426   1.005   0.157  0.00  0.00    +0.004 C 
ATOM      4  C   LIG    1       -0.910   1.708  -1.113  0.00  0.00    +0.000 C 
ATOM      5  C   LIG    1       -0.606   3.204  -1.015  0.00  0.00    +0.000 C 
ATOM      6  C   LIG    1       -1.327   3.792   0.199  0.00  0.00    +0.006 C 
ATOM      7  C   LIG    1       -0.844   3.090   1.469  0.00  0.00    -0.032 C 
ENDROOT
BRANCH   7   8
ATOM      8  C   LIG    1       -1.565   3.678   2.684  0.00  0.00    -0.079 C 
BRANCH   8   9
ATOM      9  N   LIG    1       -2.994   3.326   2.610  0.00  0.00    +0.378 N 
ATOM     10  H   LIG    1       -3.090   2.304   2.603  0.00  0.00    -0.090 HD
ATOM     11  H   LIG    1       -3.403   3.704   1.757  0.00  0.00    -0.090 HD
ATOM     12  H   LIG    1       -3.488   3.701   3.418  0.00  0.00    -0.090 HD
ENDBRANCH   8   9
ENDBRANCH   7   8
BRANCH   7  13
ATOM     13  C   LIG    1        0.665   3.295   1.623  0.00  0.00    +0.125 C 
BRANCH  13  14
ATOM     14  C   LIG    1        0.959   4.765   1.774  0.00  0.00    +0.305 C 
ATOM     15  O   LIG    1        0.068   5.574   1.664  0.00  0.00    -0.251 OA
BRANCH  14  16
ATOM     16  O   LIG    1        2.211   5.177   2.029  0.00  0.00    -0.481 OA
ATOM     17  H   LIG    1        2.902   4.550   2.114  0.00  0.00    +0.295 HD
ENDBRANCH  14  16
ENDBRANCH  13  14
ENDBRANCH   7  13
TORSDOF 5
