REMARK  Name = ZINC13998530
REMARK                            x       y       z     vdW  Elec       q    Type
REMARK                         _______ _______ _______ _____ _____    ______ ____
ROOT
ATOM      1  N   LIG    1       -0.485   1.316   0.783  0.00  0.00    -0.324 N 
ATOM      2  C   LIG    1       -0.422   2.454   1.550  0.00  0.00    +0.071 A 
ATOM      3  C   LIG    1        0.281   3.652   1.479  0.00  0.00    -0.021 A 
ATOM      4  C   LIG    1        0.083   4.598   2.462  0.00  0.00    +0.114 A 
ATOM      5  N   LIG    1       -0.757   4.385   3.461  0.00  0.00    -0.261 NA
ATOM      6  C   LIG    1       -1.453   3.273   3.573  0.00  0.00    +0.138 A 
ATOM      7  C   LIG    1       -1.313   2.257   2.625  0.00  0.00    +0.083 A 
ATOM      8  N   LIG    1       -1.859   1.029   2.470  0.00  0.00    -0.337 N 
ATOM      9  H   LIG    1       -2.546   0.601   3.102  0.00  0.00    +0.167 HD
ATOM     10  C   LIG    1       -1.377   0.468   1.387  0.00  0.00    +0.145 A 
ENDROOT
BRANCH  10  11
ATOM     11  C   LIG    1       -1.740  -0.878   0.892  0.00  0.00    +0.189 A 
ATOM     12  C   LIG    1       -2.683  -1.859   1.480  0.00  0.00    +0.191 A 
ATOM     13  N   LIG    1       -2.615  -2.861   0.634  0.00  0.00    -0.033 NA
ATOM     14  O   LIG    1       -1.833  -2.592  -0.247  0.00  0.00    -0.240 OA
ATOM     15  N   LIG    1       -1.303  -1.508  -0.177  0.00  0.00    -0.044 NA
BRANCH  12  16
ATOM     16  N   LIG    1       -3.447  -1.746   2.633  0.00  0.00    -0.339 N 
ATOM     17  H   LIG    1       -4.028  -2.474   2.903  0.00  0.00    +0.144 HD
ATOM     18  H   LIG    1       -3.401  -0.938   3.169  0.00  0.00    +0.144 HD
ENDBRANCH  12  16
ENDBRANCH  10  11
BRANCH   1  20
ATOM     19  C   LIG    1        1.559   0.311  -0.108  0.00  0.00    +0.027 C 
ATOM     20  C   LIG    1        0.265   1.054  -0.448  0.00  0.00    +0.120 C 
ENDBRANCH   1  20
BRANCH   3  21
ATOM     21  C   LIG    1        1.241   3.912   0.347  0.00  0.00    -0.043 C 
BRANCH  21  22
ATOM     22  N   LIG    1        0.482   4.347  -0.841  0.00  0.00    +0.384 N 
ATOM     23  H   LIG    1       -0.242   3.651  -1.054  0.00  0.00    -0.085 HD
ATOM     24  H   LIG    1        0.039   5.253  -0.647  0.00  0.00    -0.085 HD
BRANCH  22  25
ATOM     25  C   LIG    1        1.382   4.484  -2.002  0.00  0.00    -0.075 C 
ATOM     26  C   LIG    1        2.025   5.874  -1.990  0.00  0.00    -0.035 C 
ATOM     27  C   LIG    1        2.902   6.035  -3.233  0.00  0.00    -0.084 C 
ATOM     28  N   LIG    1        2.079   5.874  -4.447  0.00  0.00    +0.379 N 
ATOM     29  H   LIG    1        1.325   6.571  -4.439  0.00  0.00    -0.086 HD
ATOM     30  H   LIG    1        2.668   6.017  -5.276  0.00  0.00    -0.086 HD
ATOM     31  C   LIG    1        1.492   4.522  -4.495  0.00  0.00    -0.084 C 
ATOM     32  C   LIG    1        0.572   4.316  -3.290  0.00  0.00    -0.035 C 
ENDBRANCH  22  25
ENDBRANCH  21  22
ENDBRANCH   3  21
TORSDOF 6
