REMARK  Name = ZINC36410989
REMARK                            x       y       z     vdW  Elec       q    Type
REMARK                         _______ _______ _______ _____ _____    ______ ____
ROOT
ATOM      1  C   LIG    1        3.398  -8.349   1.114  0.00  0.00    +0.190 C 
ENDROOT
BRANCH   1   6
ATOM      2  N   LIG    1        1.087  -4.455  -0.908  0.00  0.00    -0.297 NA
ATOM      3  C   LIG    1        1.826  -5.127  -1.985  0.00  0.00    +0.103 C 
ATOM      4  C   LIG    1        1.653  -6.644  -1.849  0.00  0.00    +0.123 C 
ATOM      5  N   LIG    1        2.043  -7.039  -0.487  0.00  0.00    -0.297 N 
ATOM      6  C   LIG    1        2.924  -8.038  -0.282  0.00  0.00    +0.241 C 
ATOM      7  O   LIG    1        3.336  -8.685  -1.221  0.00  0.00    -0.273 OA
ATOM      8  C   LIG    1        1.446  -6.315   0.645  0.00  0.00    +0.123 C 
ATOM      9  C   LIG    1        1.627  -4.811   0.411  0.00  0.00    +0.103 C 
BRANCH   2  15
ATOM     10  C   LIG    1       -0.560   0.867  -1.816  0.00  0.00    -0.096 C 
ATOM     11  N   LIG    1       -0.429  -0.582  -1.608  0.00  0.00    +0.378 N 
ATOM     12  H   LIG    1       -1.340  -1.012  -1.666  0.00  0.00    -0.082 HD
ATOM     13  C   LIG    1        0.442  -1.147  -2.646  0.00  0.00    -0.078 C 
ATOM     14  C   LIG    1        0.516  -2.666  -2.483  0.00  0.00    +0.000 C 
ATOM     15  C   LIG    1        1.084  -2.999  -1.100  0.00  0.00    +0.053 C 
ATOM     16  C   LIG    1        0.209  -2.342  -0.028  0.00  0.00    +0.000 C 
ATOM     17  C   LIG    1        0.146  -0.835  -0.282  0.00  0.00    -0.078 C 
ENDBRANCH   2  15
ENDBRANCH   1   6
BRANCH   1  18
ATOM     18  C   LIG    1        2.422  -9.286   1.778  0.00  0.00    -0.018 A 
ATOM     19  C   LIG    1        2.368 -10.613   1.395  0.00  0.00    +0.006 A 
ATOM     20  C   LIG    1        1.472 -11.472   2.004  0.00  0.00    +0.000 A 
ATOM     21  C   LIG    1        0.632 -11.005   2.997  0.00  0.00    +0.000 A 
ATOM     22  C   LIG    1        0.688  -9.678   3.382  0.00  0.00    +0.000 A 
ATOM     23  C   LIG    1        1.586  -8.820   2.775  0.00  0.00    +0.006 A 
ENDBRANCH   1  18
BRANCH   1  24
ATOM     24  N   LIG    1        4.718  -8.983   1.052  0.00  0.00    -0.296 N 
ATOM     25  H   LIG    1        4.989  -9.461   0.253  0.00  0.00    +0.150 HD
ATOM     26  C   LIG    1        5.555  -8.901   2.105  0.00  0.00    +0.245 C 
ATOM     27  O   LIG    1        5.215  -8.302   3.107  0.00  0.00    -0.270 OA
BRANCH  26  28
ATOM     28  C   LIG    1        6.884  -9.539   2.042  0.00  0.00    +0.039 A 
ATOM     29  C   LIG    1        7.275 -10.224   0.883  0.00  0.00    +0.014 A 
ATOM     30  C   LIG    1        8.499 -10.818   0.813  0.00  0.00    +0.011 A 
ATOM     31  C   LIG    1        9.374 -10.744   1.903  0.00  0.00    -0.000 A 
ATOM     32  C   LIG    1       10.722 -11.253   2.155  0.00  0.00    +0.027 A 
ATOM     33  C   LIG    1       11.062 -10.867   3.397  0.00  0.00    +0.083 A 
ATOM     34  N   LIG    1       10.043 -10.153   3.960  0.00  0.00    -0.361 N 
ATOM     35  H   LIG    1       10.056  -9.769   4.851  0.00  0.00    +0.165 HD
ATOM     36  C   LIG    1        8.993 -10.058   3.072  0.00  0.00    +0.047 A 
ATOM     37  C   LIG    1        7.747  -9.452   3.133  0.00  0.00    +0.039 A 
ENDBRANCH  26  28
ENDBRANCH   1  24
TORSDOF 5
