REMARK  Name = ZINC19458662
REMARK                            x       y       z     vdW  Elec       q    Type
REMARK                         _______ _______ _______ _____ _____    ______ ____
ROOT
ATOM      1  N   LIG    1       -1.145   3.613  -0.119  0.00  0.00    -0.305 N 
ATOM      2  H   LIG    1       -0.170   4.114  -0.025  0.00  0.00    +0.150 HD
ATOM      3  C   LIG    1       -1.210   2.267  -0.159  0.00  0.00    +0.245 C 
ATOM      4  O   LIG    1       -2.287   1.713  -0.263  0.00  0.00    -0.270 OA
ENDROOT
BRANCH   3   5
ATOM      5  C   LIG    1        0.029   1.465  -0.077  0.00  0.00    +0.042 A 
ATOM      6  C   LIG    1        1.275   2.096  -0.075  0.00  0.00    +0.013 A 
ATOM      7  C   LIG    1        2.427   1.341  -0.004  0.00  0.00    +0.001 A 
ATOM      8  C   LIG    1        2.351  -0.039   0.066  0.00  0.00    +0.000 A 
ATOM      9  C   LIG    1        1.120  -0.671   0.064  0.00  0.00    +0.006 A 
ATOM     10  C   LIG    1       -0.040   0.072  -0.007  0.00  0.00    -0.014 A 
BRANCH  10  11
ATOM     11  C   LIG    1       -1.380  -0.617  -0.008  0.00  0.00    +0.181 C 
BRANCH  11  12
ATOM     12  N   LIG    1       -1.981  -0.519   1.324  0.00  0.00    -0.248 N 
ATOM     13  C   LIG    1       -3.194  -0.023   1.626  0.00  0.00    +0.219 A 
ATOM     14  N   LIG    1       -3.358  -0.114   2.921  0.00  0.00    -0.223 NA
ATOM     15  C   LIG    1       -2.277  -0.659   3.477  0.00  0.00    +0.245 A 
ATOM     16  N   LIG    1       -1.408  -0.930   2.538  0.00  0.00    -0.158 NA
ENDBRANCH  11  12
ENDBRANCH  10  11
ENDBRANCH   3   5
BRANCH   1  18
ATOM     17  C   LIG    1       -2.987   4.542   1.195  0.00  0.00    +0.033 C 
ATOM     18  C   LIG    1       -2.373   4.408  -0.200  0.00  0.00    +0.100 C 
BRANCH  18  19
ATOM     19  C   LIG    1       -2.050   5.777  -0.741  0.00  0.00    -0.025 A 
ATOM     20  C   LIG    1       -2.905   6.382  -1.643  0.00  0.00    +0.009 A 
ATOM     21  C   LIG    1       -2.612   7.638  -2.140  0.00  0.00    +0.049 A 
ATOM     22  C   LIG    1       -1.459   8.292  -1.734  0.00  0.00    +0.155 A 
ATOM     23  C   LIG    1       -0.601   7.683  -0.828  0.00  0.00    +0.165 A 
ATOM     24  F   LIG    1        0.524   8.317  -0.429  0.00  0.00    -0.202 F 
ATOM     25  C   LIG    1       -0.901   6.428  -0.329  0.00  0.00    +0.047 A 
BRANCH  22  26
ATOM     26  O   LIG    1       -1.169   9.527  -2.222  0.00  0.00    -0.492 OA
ATOM     27  C   LIG    1       -2.097  10.092  -3.150  0.00  0.00    +0.277 C 
ENDBRANCH  22  26
ENDBRANCH  18  19
ENDBRANCH   1  18
TORSDOF 6
