REMARK  Name = ZINC27440858
REMARK                            x       y       z     vdW  Elec       q    Type
REMARK                         _______ _______ _______ _____ _____    ______ ____
ROOT
ATOM      1  C   LIG    1        0.528  -2.046  -1.241  0.00  0.00    +0.272 C 
ATOM      2  C   LIG    1        0.466  -0.517  -1.296  0.00  0.00    +0.144 C 
ATOM      3  N   LIG    1        0.002  -0.004   0.002  0.00  0.00    -0.283 NA
ATOM      4  C   LIG    1       -1.322  -0.550   0.335  0.00  0.00    +0.113 C 
ATOM      5  C   LIG    1       -1.242  -2.078   0.373  0.00  0.00    +0.178 C 
ATOM      6  O   LIG    1       -0.759  -2.557  -0.885  0.00  0.00    -0.348 OA
ENDROOT
BRANCH   2   7
ATOM      7  C   LIG    1        1.837   0.033  -1.593  0.00  0.00    -0.025 A 
ATOM      8  C   LIG    1        2.772   0.144  -0.580  0.00  0.00    +0.008 A 
ATOM      9  C   LIG    1        4.031   0.643  -0.852  0.00  0.00    +0.038 A 
ATOM     10  C   LIG    1        4.354   1.043  -2.138  0.00  0.00    +0.123 A 
ATOM     11  F   LIG    1        5.583   1.536  -2.404  0.00  0.00    -0.205 F 
ATOM     12  C   LIG    1        3.416   0.936  -3.151  0.00  0.00    +0.038 A 
ATOM     13  C   LIG    1        2.159   0.431  -2.877  0.00  0.00    +0.008 A 
ENDBRANCH   2   7
BRANCH   1  14
ATOM     14  O   LIG    1        1.489  -2.449  -0.263  0.00  0.00    -0.342 OA
BRANCH  14  16
ATOM     15  C   LIG    1        0.835  -4.590   0.648  0.00  0.00    +0.043 C 
ATOM     16  C   LIG    1        1.790  -3.846  -0.287  0.00  0.00    +0.148 C 
BRANCH  16  17
ATOM     17  C   LIG    1        3.210  -4.061   0.171  0.00  0.00    -0.018 A 
ATOM     18  C   LIG    1        3.719  -3.317   1.219  0.00  0.00    +0.018 A 
ATOM     19  C   LIG    1        5.019  -3.518   1.641  0.00  0.00    +0.056 A 
ATOM     20  C   LIG    1        5.815  -4.456   1.010  0.00  0.00    +0.024 A 
ATOM     21  C   LIG    1        5.308  -5.196  -0.041  0.00  0.00    +0.056 A 
ATOM     22  C   LIG    1        4.005  -4.999  -0.461  0.00  0.00    +0.018 A 
BRANCH  19  23
ATOM     23  C   LIG    1        5.572  -2.710   2.788  0.00  0.00    +0.417 C 
ATOM     24  F   LIG    1        4.808  -2.945   3.935  0.00  0.00    -0.166 F 
ATOM     25  F   LIG    1        5.524  -1.349   2.465  0.00  0.00    -0.166 F 
ATOM     26  F   LIG    1        6.899  -3.085   3.026  0.00  0.00    -0.166 F 
ENDBRANCH  19  23
BRANCH  21  27
ATOM     27  C   LIG    1        6.175  -6.219  -0.730  0.00  0.00    +0.417 C 
ATOM     28  F   LIG    1        5.373  -7.255  -1.220  0.00  0.00    -0.166 F 
ATOM     29  F   LIG    1        7.100  -6.736   0.183  0.00  0.00    -0.166 F 
ATOM     30  F   LIG    1        6.856  -5.614  -1.792  0.00  0.00    -0.166 F 
ENDBRANCH  21  27
ENDBRANCH  16  17
ENDBRANCH  14  16
ENDBRANCH   1  14
BRANCH   3  31
ATOM     31  C   LIG    1       -0.018   1.465   0.010  0.00  0.00    +0.144 C 
BRANCH  31  32
ATOM     32  C   LIG    1       -0.723   1.951   1.250  0.00  0.00    +0.098 A 
ATOM     33  N   LIG    1       -2.006   2.203   1.384  0.00  0.00    -0.158 NA
ATOM     34  N   LIG    1       -2.226   2.595   2.589  0.00  0.00    -0.196 N 
ATOM     35  H   LIG    1       -3.174   2.891   3.062  0.00  0.00    +0.213 HD
ATOM     36  N   LIG    1       -1.134   2.615   3.268  0.00  0.00    -0.161 NA
ATOM     37  C   LIG    1       -0.147   2.227   2.492  0.00  0.00    +0.071 A 
BRANCH  37  38
ATOM     38  C   LIG    1        1.307   2.103   2.866  0.00  0.00    -0.019 C 
BRANCH  38  39
ATOM     39  N   LIG    1        1.991   3.376   2.599  0.00  0.00    +0.380 N 
ATOM     40  H   LIG    1        1.769   3.667   1.561  0.00  0.00    -0.082 HD
ATOM     41  C   LIG    1        3.447   3.227   2.725  0.00  0.00    -0.096 C 
ATOM     42  C   LIG    1        1.492   4.438   3.482  0.00  0.00    -0.096 C 
ENDBRANCH  38  39
ENDBRANCH  37  38
ENDBRANCH  31  32
ENDBRANCH   3  31
TORSDOF 10
