REMARK  Name = ZINC13820623
REMARK                            x       y       z     vdW  Elec       q    Type
REMARK                         _______ _______ _______ _____ _____    ______ ____
ROOT
ATOM      1  C   LIG    1       -0.421   1.932  -3.638  0.00  0.00    +0.248 C 
ATOM      2  N   LIG    1        0.013   1.444  -2.459  0.00  0.00    -0.313 N 
ATOM      3  H   LIG    1        0.848   0.953  -2.415  0.00  0.00    +0.149 HD
ATOM      4  O   LIG    1       -1.468   2.548  -3.693  0.00  0.00    -0.270 OA
ENDROOT
BRANCH   1  10
ATOM      5  C   LIG    1        0.687   2.021  -7.236  0.00  0.00    +0.163 A 
ATOM      6  C   LIG    1        1.878   1.319  -7.162  0.00  0.00    +0.064 A 
ATOM      7  C   LIG    1        2.321   0.818  -5.948  0.00  0.00    +0.022 A 
ATOM      8 BR   LIG    1        3.950  -0.138  -5.863  0.00  0.00    -0.050 Br
ATOM      9  C   LIG    1        1.582   1.018  -4.801  0.00  0.00    +0.032 A 
ATOM     10  C   LIG    1        0.375   1.720  -4.862  0.00  0.00    +0.083 A 
ATOM     11  C   LIG    1       -0.072   2.226  -6.088  0.00  0.00    +0.174 A 
BRANCH   5  13
ATOM     12  C   LIG    1        1.087   2.260  -9.568  0.00  0.00    +0.277 C 
ATOM     13  O   LIG    1        0.258   2.509  -8.431  0.00  0.00    -0.491 OA
ENDBRANCH   5  13
BRANCH  11  14
ATOM     14  O   LIG    1       -1.241   2.913  -6.157  0.00  0.00    -0.491 OA
ATOM     15  C   LIG    1       -1.174   4.328  -5.970  0.00  0.00    +0.277 C 
ENDBRANCH  11  14
ENDBRANCH   1  10
BRANCH   2  16
ATOM     16  C   LIG    1       -0.778   1.655  -1.243  0.00  0.00    +0.089 C 
BRANCH  16  17
ATOM     17  C   LIG    1       -0.010   1.114  -0.036  0.00  0.00    -0.051 C 
ATOM     18  N   LIG    1       -0.736   1.405   1.212  0.00  0.00    +0.385 N 
ATOM     19  H   LIG    1       -0.127   1.941   1.841  0.00  0.00    -0.081 HD
ATOM     20  C   LIG    1       -1.105   0.129   1.857  0.00  0.00    -0.078 C 
ATOM     21  C   LIG    1       -0.057  -0.884   1.333  0.00  0.00    -0.020 C 
ATOM     22  C   LIG    1        0.121  -0.420  -0.137  0.00  0.00    -0.016 C 
BRANCH  18  23
ATOM     23  C   LIG    1       -1.955   2.204   0.921  0.00  0.00    -0.043 C 
BRANCH  23  24
ATOM     24  C   LIG    1       -2.736   2.405   2.194  0.00  0.00    -0.064 A 
ATOM     25  C   LIG    1       -3.711   1.495   2.558  0.00  0.00    +0.004 A 
ATOM     26  C   LIG    1       -4.423   1.676   3.728  0.00  0.00    +0.038 A 
ATOM     27  C   LIG    1       -4.168   2.775   4.531  0.00  0.00    +0.123 A 
ATOM     28  F   LIG    1       -4.868   2.956   5.672  0.00  0.00    -0.205 F 
ATOM     29  C   LIG    1       -3.195   3.688   4.162  0.00  0.00    +0.038 A 
ATOM     30  C   LIG    1       -2.479   3.502   2.995  0.00  0.00    +0.004 A 
ENDBRANCH  23  24
ENDBRANCH  18  23
ENDBRANCH  16  17
ENDBRANCH   2  16
TORSDOF 7
