REMARK  Name = ZINC41891012
REMARK                            x       y       z     vdW  Elec       q    Type
REMARK                         _______ _______ _______ _____ _____    ______ ____
ROOT
ATOM      1  C   LIG    1       -2.465  -2.820  -0.203  0.00  0.00    +0.299 C 
ATOM      2  N   LIG    1       -2.449  -4.163  -0.312  0.00  0.00    -0.307 N 
ATOM      3  H   LIG    1       -1.604  -4.639  -0.323  0.00  0.00    +0.149 HD
ATOM      4  O   LIG    1       -3.523  -2.225  -0.189  0.00  0.00    -0.265 OA
ENDROOT
BRANCH   1   7
ATOM      5  N   LIG    1       -1.198  -0.720   0.010  0.00  0.00    -0.278 N 
ATOM      6  H   LIG    1       -2.043  -0.250   0.089  0.00  0.00    +0.155 HD
ATOM      7  C   LIG    1       -1.182  -2.064  -0.099  0.00  0.00    +0.303 C 
ATOM      8  O   LIG    1       -0.124  -2.659  -0.113  0.00  0.00    -0.265 OA
BRANCH   5  16
ATOM      9  C   LIG    1        0.065   1.248  -0.586  0.00  0.00    +0.025 A 
ATOM     10  C   LIG    1        1.252   1.954  -0.585  0.00  0.00    +0.025 A 
ATOM     11  C   LIG    1        2.379   1.416   0.009  0.00  0.00    +0.076 A 
ATOM     12 CL   LIG    1        3.870   2.306   0.008  0.00  0.00    -0.081 Cl
ATOM     13  C   LIG    1        2.321   0.166   0.606  0.00  0.00    +0.143 A 
ATOM     14  F   LIG    1        3.423  -0.358   1.186  0.00  0.00    -0.204 F 
ATOM     15  C   LIG    1        1.135  -0.545   0.607  0.00  0.00    +0.063 A 
ATOM     16  C   LIG    1        0.003  -0.005   0.010  0.00  0.00    +0.037 A 
ENDBRANCH   5  16
ENDBRANCH   1   7
BRANCH   2  17
ATOM     17  C   LIG    1       -3.708  -4.905  -0.414  0.00  0.00    +0.106 C 
BRANCH  17  18
ATOM     18  C   LIG    1       -3.411  -6.402  -0.526  0.00  0.00    -0.012 C 
ATOM     19  C   LIG    1       -2.762  -6.738  -1.895  0.00  0.00    -0.015 C 
ATOM     20  C   LIG    1       -3.156  -8.214  -2.112  0.00  0.00    -0.078 C 
ATOM     21  N   LIG    1       -4.349  -8.475  -1.286  0.00  0.00    +0.382 N 
ATOM     22  H   LIG    1       -4.142  -9.192  -0.608  0.00  0.00    -0.081 HD
ATOM     23  C   LIG    1       -4.722  -7.225  -0.589  0.00  0.00    -0.074 C 
BRANCH  21  24
ATOM     24  C   LIG    1       -5.458  -8.913  -2.144  0.00  0.00    -0.069 C 
ATOM     25  C   LIG    1       -6.208 -10.182  -1.736  0.00  0.00    -0.017 C 
ATOM     26  C   LIG    1       -5.267 -10.204  -2.942  0.00  0.00    -0.017 C 
ENDBRANCH  21  24
ENDBRANCH  17  18
ENDBRANCH   2  17
TORSDOF 5
