REMARK  Name = ZINC27720852
REMARK                            x       y       z     vdW  Elec       q    Type
REMARK                         _______ _______ _______ _____ _____    ______ ____
ROOT
ATOM      1  C   LIG    1        0.375  -1.758  -1.630  0.00  0.00    +0.285 C 
ATOM      2  C   LIG    1        1.203  -2.291  -2.593  0.00  0.00    +0.065 C 
ATOM      3  C   LIG    1        1.387  -3.792  -2.737  0.00  0.00    +0.096 C 
ATOM      4  C   LIG    1        2.328  -4.240  -3.840  0.00  0.00    +0.071 C 
ATOM      5  C   LIG    1        2.920  -3.271  -4.598  0.00  0.00    +0.072 C 
ATOM      6  N   LIG    1        2.699  -1.980  -4.400  0.00  0.00    -0.254 NA
ATOM      7  C   LIG    1        1.905  -1.476  -3.483  0.00  0.00    +0.049 C 
ATOM      8  C   LIG    1        1.751   0.019  -3.386  0.00  0.00    +0.066 C 
ENDROOT
BRANCH   3   9
ATOM      9  C   LIG    1        1.911  -4.329  -1.430  0.00  0.00    -0.033 A 
ATOM     10  C   LIG    1        3.113  -3.868  -0.924  0.00  0.00    +0.005 A 
ATOM     11  C   LIG    1        3.593  -4.361   0.274  0.00  0.00    +0.003 A 
ATOM     12  C   LIG    1        2.871  -5.315   0.968  0.00  0.00    +0.032 A 
ATOM     13  C   LIG    1        1.670  -5.775   0.463  0.00  0.00    +0.122 A 
ATOM     14  C   LIG    1        1.187  -5.279  -0.734  0.00  0.00    +0.037 A 
BRANCH  13  15
ATOM     15  N   LIG    1        0.897  -6.796   1.206  0.00  0.00    +0.006 N 
ATOM     16  O   LIG    1        1.318  -7.228   2.254  0.00  0.00    -0.130 OA
BRANCH  15  17
ATOM     17  O   LIG    1       -0.154  -7.199   0.764  0.00  0.00    -0.396 OA
ATOM     18  H   LIG    1       -0.479  -6.864  -0.048  0.00  0.00    +0.329 HD
ENDBRANCH  15  17
ENDBRANCH  13  15
ENDBRANCH   3   9
BRANCH   1  19
ATOM     19  O   LIG    1       -0.375  -2.571  -0.861  0.00  0.00    -0.480 OA
ATOM     20  H   LIG    1       -0.938  -2.208  -0.206  0.00  0.00    +0.295 HD
ENDBRANCH   1  19
BRANCH   4  21
ATOM     21  C   LIG    1        2.581  -5.603  -4.073  0.00  0.00    +0.338 C 
ATOM     22  O   LIG    1        1.762  -6.282  -4.665  0.00  0.00    -0.245 OA
BRANCH  21  23
ATOM     23  O   LIG    1        3.734  -6.159  -3.640  0.00  0.00    -0.465 OA
ATOM     24  C   LIG    1        3.925  -7.549  -3.911  0.00  0.00    +0.280 C 
ENDBRANCH  21  23
ENDBRANCH   4  21
BRANCH   1  25
ATOM     25  O   LIG    1        0.316  -0.423  -1.456  0.00  0.00    -0.464 OA
BRANCH  25  27
ATOM     26  C   LIG    1       -0.496   1.589  -0.391  0.00  0.00    +0.048 C 
ATOM     27  C   LIG    1       -0.563   0.061  -0.439  0.00  0.00    +0.229 C 
ENDBRANCH  25  27
ENDBRANCH   1  25
BRANCH   5  28
ATOM     28  C   LIG    1        3.859  -3.685  -5.702  0.00  0.00    +0.178 C 
BRANCH  28  29
ATOM     29  N   LIG    1        3.153  -3.648  -6.984  0.00  0.00    -0.331 N 
ATOM     30  C   LIG    1        2.454  -4.676  -7.556  0.00  0.00    +0.107 A 
ATOM     31  C   LIG    1        1.967  -4.215  -8.724  0.00  0.00    +0.130 A 
ATOM     32  N   LIG    1        2.358  -2.939  -8.861  0.00  0.00    -0.244 NA
ATOM     33  C   LIG    1        3.065  -2.591  -7.821  0.00  0.00    +0.199 A 
ENDBRANCH  28  29
ENDBRANCH   5  28
TORSDOF 10
