REMARK  Name = ZINC40935805
REMARK                            x       y       z     vdW  Elec       q    Type
REMARK                         _______ _______ _______ _____ _____    ______ ____
ROOT
ATOM      1  N   LIG    1       -5.168  -2.254  -0.162  0.00  0.00    -0.324 N 
ATOM      2  C   LIG    1       -5.895  -1.808   0.923  0.00  0.00    +0.069 A 
ATOM      3  C   LIG    1       -5.622  -0.960   1.988  0.00  0.00    +0.028 A 
ATOM      4  C   LIG    1       -6.596  -0.715   2.933  0.00  0.00    +0.002 A 
ATOM      5  C   LIG    1       -7.845  -1.310   2.826  0.00  0.00    +0.002 A 
ATOM      6  C   LIG    1       -8.132  -2.147   1.786  0.00  0.00    +0.030 A 
ATOM      7  C   LIG    1       -7.160  -2.410   0.816  0.00  0.00    +0.089 A 
ATOM      8  N   LIG    1       -7.140  -3.175  -0.306  0.00  0.00    -0.232 NA
ATOM      9  C   LIG    1       -5.977  -3.079  -0.880  0.00  0.00    +0.112 A 
ENDROOT
BRANCH   9  10
ATOM     10  C   LIG    1       -5.582  -3.781  -2.154  0.00  0.00    +0.038 C 
ATOM     11  C   LIG    1       -5.699  -5.296  -1.960  0.00  0.00    +0.007 C 
ATOM     12  C   LIG    1       -5.372  -5.997  -3.281  0.00  0.00    -0.018 C 
ATOM     13  C   LIG    1       -6.309  -5.477  -4.374  0.00  0.00    -0.083 C 
ATOM     14  N   LIG    1       -6.130  -4.029  -4.529  0.00  0.00    +0.380 N 
ATOM     15  H   LIG    1       -6.710  -3.698  -5.286  0.00  0.00    -0.086 HD
ATOM     16  H   LIG    1       -5.163  -3.831  -4.738  0.00  0.00    -0.086 HD
ATOM     17  C   LIG    1       -6.510  -3.343  -3.288  0.00  0.00    -0.071 C 
ENDBRANCH   9  10
BRANCH   1  22
ATOM     18  N   LIG    1       -1.386  -0.432   0.219  0.00  0.00    +0.383 N 
ATOM     19  H   LIG    1       -1.740  -0.008   1.063  0.00  0.00    -0.081 HD
ATOM     20  C   LIG    1       -1.431  -1.893   0.352  0.00  0.00    -0.076 C 
ATOM     21  C   LIG    1       -2.863  -2.337   0.658  0.00  0.00    +0.006 C 
ATOM     22  C   LIG    1       -3.784  -1.899  -0.484  0.00  0.00    +0.086 C 
ATOM     23  C   LIG    1       -3.672  -0.382  -0.663  0.00  0.00    +0.006 C 
ATOM     24  C   LIG    1       -2.210  -0.010  -0.920  0.00  0.00    -0.076 C 
BRANCH  18  26
ATOM     25  C   LIG    1       -0.036   1.514  -0.114  0.00  0.00    -0.010 C 
ATOM     26  C   LIG    1        0.002  -0.004   0.002  0.00  0.00    -0.068 C 
ATOM     27  C   LIG    1        0.449  -0.661  -1.299  0.00  0.00    -0.012 C 
ATOM     28  C   LIG    1        1.907  -0.356  -1.675  0.00  0.00    -0.001 C 
ATOM     29  C   LIG    1        2.808  -1.231  -0.779  0.00  0.00    -0.000 C 
ATOM     30  C   LIG    1        3.702  -0.311   0.086  0.00  0.00    -0.000 C 
ATOM     31  C   LIG    1        2.865   0.871   0.604  0.00  0.00    -0.000 C 
ATOM     32  C   LIG    1        1.898   0.411   1.690  0.00  0.00    -0.001 C 
ATOM     33  C   LIG    1        0.796  -0.499   1.194  0.00  0.00    -0.012 C 
ENDBRANCH  18  26
ENDBRANCH   1  22
TORSDOF 3
