REMARK  Name = ZINC29340932
REMARK                            x       y       z     vdW  Elec       q    Type
REMARK                         _______ _______ _______ _____ _____    ______ ____
ROOT
ATOM      1  C   LIG    1       -1.341   5.958  -0.081  0.00  0.00    +0.248 C 
ATOM      2  N   LIG    1       -0.068   5.242   0.028  0.00  0.00    -0.235 N 
ENDROOT
BRANCH   2   3
ATOM      3  C   LIG    1       -0.051   3.843   0.035  0.00  0.00    +0.104 A 
ATOM      4  C   LIG    1        0.533   3.149  -1.017  0.00  0.00    +0.042 A 
ATOM      5  C   LIG    1        0.549   1.768  -1.008  0.00  0.00    +0.005 A 
ATOM      6  C   LIG    1       -0.018   1.076   0.047  0.00  0.00    +0.020 A 
ATOM      7  C   LIG    1       -0.606   1.764   1.094  0.00  0.00    +0.044 A 
ATOM      8 CL   LIG    1       -1.321   0.890   2.412  0.00  0.00    -0.083 Cl
ATOM      9  C   LIG    1       -0.619   3.146   1.093  0.00  0.00    +0.062 A 
ENDBRANCH   2   3
BRANCH   2  10
ATOM     10  C   LIG    1        1.112   5.945   0.124  0.00  0.00    +0.348 C 
ATOM     11  N   LIG    1        2.251   5.312   0.110  0.00  0.00    -0.291 N 
ATOM     12  H   LIG    1        2.269   4.215   0.022  0.00  0.00    +0.255 HD
ATOM     13  H   LIG    1        3.193   5.873   0.186  0.00  0.00    +0.255 HD
BRANCH  10  14
ATOM     14  N   LIG    1        1.088   7.316   0.233  0.00  0.00    -0.291 N 
ATOM     15  H   LIG    1        0.127   7.850   0.245  0.00  0.00    +0.255 HD
ATOM     16  H   LIG    1        2.031   7.877   0.310  0.00  0.00    +0.255 HD
ENDBRANCH  10  14
ENDBRANCH   2  10
TORSDOF 3
