REMARK  Name = ZINC49114528
REMARK                            x       y       z     vdW  Elec       q    Type
REMARK                         _______ _______ _______ _____ _____    ______ ____
ROOT
ATOM      1  C   LIG    1       -0.195   1.541   1.093  0.00  0.00    +0.044 C 
ATOM      2  C   LIG    1       -0.141   0.038   0.997  0.00  0.00    -0.047 A 
ATOM      3  C   LIG    1        0.079  -0.565  -0.223  0.00  0.00    +0.018 A 
ATOM      4  C   LIG    1        0.129  -1.958  -0.304  0.00  0.00    +0.059 A 
ATOM      5  C   LIG    1       -0.040  -2.740   0.850  0.00  0.00    +0.132 A 
ATOM      6  O   LIG    1        0.018  -4.091   0.786  0.00  0.00    -0.484 OA
ATOM      7  C   LIG    1       -0.236  -4.728  -0.465  0.00  0.00    +0.120 C 
ATOM      8  C   LIG    1        0.669  -4.114  -1.543  0.00  0.00    +0.127 C 
ATOM      9  C   LIG    1       -1.700  -4.521  -0.859  0.00  0.00    +0.067 C 
ATOM     10  C   LIG    1       -2.605  -5.110   0.229  0.00  0.00    +0.112 C 
ATOM     11  N   LIG    1       -2.231  -6.514   0.446  0.00  0.00    -0.297 N 
ATOM     12  C   LIG    1       -3.157  -7.490   0.374  0.00  0.00    +0.249 C 
ATOM     13  O   LIG    1       -4.327  -7.207   0.203  0.00  0.00    -0.270 OA
ATOM     14  C   LIG    1       -0.828  -6.833   0.742  0.00  0.00    +0.112 C 
ATOM     15  C   LIG    1        0.058  -6.225  -0.350  0.00  0.00    +0.067 C 
ATOM     16  C   LIG    1       -0.264  -2.112   2.067  0.00  0.00    +0.050 A 
ATOM     17  C   LIG    1        0.357  -2.629  -1.596  0.00  0.00    +0.170 C 
ATOM     18  O   LIG    1        0.297  -2.027  -2.647  0.00  0.00    -0.292 OA
ATOM     19  C   LIG    1       -0.307  -0.733   2.136  0.00  0.00    -0.044 A 
ATOM     20  C   LIG    1       -0.544  -0.061   3.464  0.00  0.00    +0.044 C 
ENDROOT
BRANCH  12  21
ATOM     21  C   LIG    1       -2.751  -8.902   0.503  0.00  0.00    +0.062 A 
ATOM     22  C   LIG    1       -2.017  -9.322   1.609  0.00  0.00    +0.015 A 
ATOM     23  C   LIG    1       -1.633 -10.647   1.736  0.00  0.00    +0.001 A 
ATOM     24  C   LIG    1       -1.970 -11.571   0.773  0.00  0.00    +0.011 A 
ATOM     25  C   LIG    1       -2.708 -11.177  -0.348  0.00  0.00    +0.020 A 
ATOM     26  C   LIG    1       -3.218 -11.879  -1.522  0.00  0.00    +0.142 A 
ATOM     27  N   LIG    1       -3.860 -11.013  -2.253  0.00  0.00    -0.181 NA
ATOM     28  N   LIG    1       -3.808  -9.750  -1.656  0.00  0.00    -0.276 N 
ATOM     29  H   LIG    1       -4.205  -8.941  -2.015  0.00  0.00    +0.189 HD
ATOM     30  C   LIG    1       -3.108  -9.835  -0.486  0.00  0.00    +0.078 A 
ENDBRANCH  12  21
TORSDOF 1
