REMARK  Name = ZINC19632614
REMARK                            x       y       z     vdW  Elec       q    Type
REMARK                         _______ _______ _______ _____ _____    ______ ____
ROOT
ATOM      1  C   LIG    1       -0.886  -1.181  -0.688  0.00  0.00    +0.163 A 
ATOM      2  C   LIG    1       -1.970  -0.396  -1.045  0.00  0.00    +0.075 A 
ATOM      3  C   LIG    1       -3.252  -0.916  -0.960  0.00  0.00    +0.055 A 
ATOM      4  C   LIG    1       -3.443  -2.236  -0.511  0.00  0.00    +0.044 A 
ATOM      5  C   LIG    1       -4.825  -2.746  -0.436  0.00  0.00    +0.142 A 
ATOM      6  N   LIG    1       -5.832  -1.920  -0.801  0.00  0.00    -0.220 NA
ATOM      7  C   LIG    1       -5.608  -0.705  -1.211  0.00  0.00    +0.199 A 
ATOM      8  N   LIG    1       -5.072  -3.977  -0.022  0.00  0.00    -0.339 N 
ATOM      9  H   LIG    1       -5.873  -4.437  -0.320  0.00  0.00    +0.167 HD
ATOM     10  C   LIG    1       -2.348  -3.019  -0.153  0.00  0.00    +0.063 A 
ATOM     11  N   LIG    1       -4.367  -0.170  -1.305  0.00  0.00    -0.345 N 
ATOM     12  H   LIG    1       -4.259   0.743  -1.617  0.00  0.00    +0.167 HD
ATOM     13  C   LIG    1       -1.075  -2.492  -0.247  0.00  0.00    +0.163 A 
ENDROOT
BRANCH   8  14
ATOM     14  C   LIG    1       -4.201  -4.601   0.825  0.00  0.00    +0.042 A 
ATOM     15  C   LIG    1       -3.727  -3.936   1.959  0.00  0.00    +0.028 A 
ATOM     16  C   LIG    1       -2.848  -4.571   2.811  0.00  0.00    +0.042 A 
ATOM     17  C   LIG    1       -2.434  -5.867   2.545  0.00  0.00    +0.142 A 
ATOM     18  F   LIG    1       -1.573  -6.483   3.383  0.00  0.00    -0.204 F 
ATOM     19  C   LIG    1       -2.900  -6.532   1.421  0.00  0.00    +0.078 A 
ATOM     20 CL   LIG    1       -2.375  -8.155   1.096  0.00  0.00    -0.081 Cl
ATOM     21  C   LIG    1       -3.785  -5.909   0.564  0.00  0.00    +0.048 A 
ENDBRANCH   8  14
BRANCH   1  23
ATOM     22  C   LIG    1        0.496   0.676  -1.229  0.00  0.00    +0.277 C 
ATOM     23  O   LIG    1        0.371  -0.672  -0.772  0.00  0.00    -0.491 OA
ENDBRANCH   1  23
BRANCH  13  24
ATOM     24  O   LIG    1       -0.000  -3.253   0.095  0.00  0.00    -0.488 OA
BRANCH  24  25
ATOM     25  C   LIG    1       -0.252  -4.621   0.422  0.00  0.00    +0.227 C 
BRANCH  25  26
ATOM     26  C   LIG    1        1.078  -5.347   0.633  0.00  0.00    +0.022 C 
BRANCH  26  27
ATOM     27  C   LIG    1        0.815  -6.837   0.864  0.00  0.00    -0.075 C 
BRANCH  27  28
ATOM     28  N   LIG    1        2.095  -7.546   0.993  0.00  0.00    +0.383 N 
ATOM     29  H   LIG    1        2.645  -7.117   1.722  0.00  0.00    -0.082 HD
ATOM     30  C   LIG    1        2.825  -7.474  -0.280  0.00  0.00    -0.050 C 
ATOM     31  C   LIG    1        4.158  -8.214  -0.143  0.00  0.00    +0.141 C 
ATOM     32  O   LIG    1        3.909  -9.568   0.243  0.00  0.00    -0.383 OA
ATOM     33  C   LIG    1        3.178  -9.691   1.467  0.00  0.00    +0.141 C 
ATOM     34  C   LIG    1        1.843  -8.954   1.333  0.00  0.00    -0.050 C 
ENDBRANCH  27  28
ENDBRANCH  26  27
ENDBRANCH  25  26
ENDBRANCH  24  25
ENDBRANCH  13  24
TORSDOF 7
