REMARK  Name = ZINC38146017
REMARK                            x       y       z     vdW  Elec       q    Type
REMARK                         _______ _______ _______ _____ _____    ______ ____
ROOT
ATOM      1  N   LIG    1        2.886  -0.467   2.418  0.00  0.00    -0.297 N 
ATOM      2  H   LIG    1        2.934   0.086   3.213  0.00  0.00    +0.151 HD
ATOM      3  C   LIG    1        3.471  -1.681   2.404  0.00  0.00    +0.300 C 
ATOM      4  N   LIG    1        4.123  -2.127   3.495  0.00  0.00    -0.296 N 
ATOM      5  H   LIG    1        4.171  -1.575   4.291  0.00  0.00    +0.151 HD
ATOM      6  O   LIG    1        3.411  -2.373   1.406  0.00  0.00    -0.253 OA
ENDROOT
BRANCH   4   7
ATOM      7  C   LIG    1        4.759  -3.447   3.480  0.00  0.00    +0.081 C 
ATOM      8  C   LIG    1        3.725  -4.515   3.841  0.00  0.00    +0.010 C 
ATOM      9  C   LIG    1        4.389  -5.894   3.825  0.00  0.00    +0.009 C 
ATOM     10  C   LIG    1        5.529  -5.922   4.845  0.00  0.00    -0.010 C 
ATOM     11  C   LIG    1        4.971  -5.641   6.242  0.00  0.00    +0.007 C 
ATOM     12  C   LIG    1        4.307  -4.263   6.258  0.00  0.00    -0.010 C 
ATOM     13  C   LIG    1        5.341  -3.194   5.897  0.00  0.00    +0.009 C 
ATOM     14  C   LIG    1        6.563  -4.854   4.485  0.00  0.00    +0.009 C 
ATOM     15  C   LIG    1        3.167  -4.234   5.238  0.00  0.00    +0.009 C 
ATOM     16  C   LIG    1        5.899  -3.475   4.500  0.00  0.00    +0.010 C 
ENDBRANCH   4   7
BRANCH   1  20
ATOM     17  C   LIG    1       -0.019   1.526   0.010  0.00  0.00    +0.000 C 
ATOM     18  C   LIG    1        1.417   2.055  -0.000  0.00  0.00    +0.002 C 
ATOM     19  C   LIG    1        2.157   1.548   1.239  0.00  0.00    +0.022 C 
ATOM     20  C   LIG    1        2.178   0.019   1.231  0.00  0.00    +0.074 C 
ATOM     21  C   LIG    1        0.742  -0.511   1.242  0.00  0.00    +0.022 C 
ATOM     22  C   LIG    1        0.002  -0.004   0.002  0.00  0.00    +0.002 C 
ENDBRANCH   1  20
TORSDOF 2
