REMARK  Name = ZINC13778426
REMARK                            x       y       z     vdW  Elec       q    Type
REMARK                         _______ _______ _______ _____ _____    ______ ____
ROOT
ATOM      1  C   LIG    1        1.922   1.756   3.379  0.00  0.00    +0.105 A 
ATOM      2  C   LIG    1        3.189   1.571   2.855  0.00  0.00    +0.029 A 
ATOM      3  C   LIG    1        3.969   2.661   2.527  0.00  0.00    +0.010 A 
ATOM      4  C   LIG    1        3.479   3.950   2.725  0.00  0.00    -0.018 A 
ATOM      5  C   LIG    1        2.202   4.131   3.253  0.00  0.00    +0.010 A 
ATOM      6  C   LIG    1        1.428   3.034   3.573  0.00  0.00    +0.029 A 
ENDROOT
BRANCH   4   7
ATOM      7  C   LIG    1        4.313   5.126   2.375  0.00  0.00    -0.018 A 
ATOM      8  C   LIG    1        5.588   4.944   1.841  0.00  0.00    +0.012 A 
ATOM      9  C   LIG    1        6.361   6.039   1.516  0.00  0.00    +0.046 A 
ATOM     10  C   LIG    1        5.870   7.322   1.720  0.00  0.00    +0.120 A 
ATOM     11  C   LIG    1        4.601   7.506   2.251  0.00  0.00    +0.046 A 
ATOM     12  C   LIG    1        3.821   6.415   2.573  0.00  0.00    +0.012 A 
BRANCH  10  13
ATOM     13  O   LIG    1        6.635   8.399   1.400  0.00  0.00    -0.495 OA
ATOM     14  C   LIG    1        6.068   9.689   1.636  0.00  0.00    +0.277 C 
ENDBRANCH  10  13
ENDBRANCH   4   7
BRANCH   1  15
ATOM     15  S   LIG    1        0.932   0.360   3.795  0.00  0.00    +0.059 S 
ATOM     16  O   LIG    1        1.827  -0.718   4.031  0.00  0.00    -0.153 OA
ATOM     17  O   LIG    1       -0.003   0.801   4.770  0.00  0.00    -0.153 OA
BRANCH  15  18
ATOM     18  N   LIG    1        0.056  -0.038   2.447  0.00  0.00    -0.176 NA
ATOM     19  H   LIG    1       -0.910   0.041   2.455  0.00  0.00    +0.149 HD
BRANCH  18  20
ATOM     20  C   LIG    1        0.742  -0.511   1.242  0.00  0.00    +0.187 C 
BRANCH  20  22
ATOM     21  C   LIG    1       -0.019   1.526   0.010  0.00  0.00    +0.009 C 
ATOM     22  C   LIG    1        0.002  -0.004   0.002  0.00  0.00    +0.012 C 
ATOM     23  C   LIG    1        0.718  -0.497  -1.257  0.00  0.00    +0.009 C 
ENDBRANCH  20  22
BRANCH  20  24
ATOM     24  C   LIG    1        0.762  -2.018   1.233  0.00  0.00    +0.324 C 
ATOM     25  O   LIG    1        1.680  -2.612   0.693  0.00  0.00    -0.249 OA
BRANCH  24  26
ATOM     26  O   LIG    1       -0.139  -2.643   1.766  0.00  0.00    -0.479 OA
ATOM     27  H   LIG    1       -0.844  -2.186   2.182  0.00  0.00    +0.295 HD
ENDBRANCH  24  26
ENDBRANCH  20  24
ENDBRANCH  18  20
ENDBRANCH  15  18
ENDBRANCH   1  15
TORSDOF 8
