REMARK  Name = ZINC25421991
REMARK                            x       y       z     vdW  Elec       q    Type
REMARK                         _______ _______ _______ _____ _____    ______ ____
ROOT
ATOM      1  O   LIG    1        4.852  -0.296  -3.716  0.00  0.00    -0.487 OA
ENDROOT
BRANCH   1   2
ATOM      2  C   LIG    1        6.141   0.101  -3.887  0.00  0.00    +0.146 A 
ATOM      3  C   LIG    1        6.786   0.819  -2.893  0.00  0.00    +0.048 A 
ATOM      4  C   LIG    1        8.098   1.224  -3.066  0.00  0.00    +0.006 A 
ATOM      5  C   LIG    1        8.775   0.916  -4.229  0.00  0.00    +0.028 A 
ATOM      6  C   LIG    1        8.139   0.198  -5.232  0.00  0.00    +0.070 A 
ATOM      7  N   LIG    1        8.543  -0.255  -6.486  0.00  0.00    -0.306 N 
ATOM      8  H   LIG    1        9.418  -0.120  -6.883  0.00  0.00    +0.170 HD
ATOM      9  C   LIG    1        7.518  -0.924  -7.047  0.00  0.00    +0.325 A 
ATOM     10  O   LIG    1        7.541  -1.449  -8.144  0.00  0.00    -0.247 OA
ATOM     11  N   LIG    1        6.460  -0.913  -6.214  0.00  0.00    -0.303 N 
ATOM     12  H   LIG    1        5.596  -1.319  -6.387  0.00  0.00    +0.171 HD
ATOM     13  C   LIG    1        6.819  -0.217  -5.059  0.00  0.00    +0.109 A 
ENDBRANCH   1   2
BRANCH   1  14
ATOM     14  C   LIG    1        4.219   0.067  -2.487  0.00  0.00    +0.258 C 
BRANCH  14  15
ATOM     15  C   LIG    1        2.784  -0.463  -2.476  0.00  0.00    +0.135 C 
BRANCH  15  16
ATOM     16  O   LIG    1        2.803  -1.892  -2.484  0.00  0.00    -0.390 OA
ATOM     17  H   LIG    1        3.258  -2.283  -1.725  0.00  0.00    +0.210 HD
ENDBRANCH  15  16
BRANCH  15  18
ATOM     18  C   LIG    1        2.068   0.031  -1.217  0.00  0.00    -0.047 C 
BRANCH  18  19
ATOM     19  N   LIG    1        0.690  -0.478  -1.207  0.00  0.00    +0.384 N 
ATOM     20  H   LIG    1        0.202  -0.144  -2.024  0.00  0.00    -0.085 HD
ATOM     21  H   LIG    1        0.703  -1.487  -1.212  0.00  0.00    -0.085 HD
BRANCH  19  23
ATOM     22  C   LIG    1       -0.019   1.526   0.010  0.00  0.00    -0.011 C 
ATOM     23  C   LIG    1        0.002  -0.004   0.002  0.00  0.00    -0.077 C 
ATOM     24  C   LIG    1       -1.433  -0.534   0.013  0.00  0.00    -0.011 C 
ATOM     25  C   LIG    1        0.742  -0.511   1.242  0.00  0.00    -0.011 C 
ENDBRANCH  19  23
ENDBRANCH  18  19
ENDBRANCH  15  18
ENDBRANCH  14  15
ENDBRANCH   1  14
TORSDOF 7
