REMARK  Name = ZINC13761969
REMARK                            x       y       z     vdW  Elec       q    Type
REMARK                         _______ _______ _______ _____ _____    ______ ____
ROOT
ATOM      1  C   LIG    1       -2.680  -4.493   1.757  0.00  0.00    +0.162 C 
ENDROOT
BRANCH   1   7
ATOM      2  C   LIG    1       -0.843   1.476   1.562  0.00  0.00    +0.007 C 
ATOM      3  C   LIG    1       -0.528  -0.007   1.362  0.00  0.00    -0.010 C 
ATOM      4  C   LIG    1       -1.770  -0.724   0.826  0.00  0.00    +0.022 C 
ATOM      5  C   LIG    1       -1.442  -2.202   0.594  0.00  0.00    +0.109 C 
ATOM      6  N   LIG    1       -0.908  -2.769   1.840  0.00  0.00    -0.287 N 
ATOM      7  C   LIG    1       -1.452  -3.878   2.378  0.00  0.00    +0.235 C 
ATOM      8  O   LIG    1       -0.954  -4.382   3.363  0.00  0.00    -0.274 OA
ATOM      9  C   LIG    1        0.231  -2.104   2.489  0.00  0.00    +0.185 C 
ATOM     10  C   LIG    1       -0.117  -0.627   2.700  0.00  0.00    +0.037 C 
BRANCH   9  11
ATOM     11  C   LIG    1        0.506  -2.756   3.819  0.00  0.00    +0.325 C 
ATOM     12  O   LIG    1        1.571  -3.316   4.014  0.00  0.00    -0.249 OA
BRANCH  11  13
ATOM     13  O   LIG    1       -0.336  -2.723   4.700  0.00  0.00    -0.479 OA
ATOM     14  H   LIG    1       -1.154  -2.292   4.550  0.00  0.00    +0.295 HD
ENDBRANCH  11  13
ENDBRANCH   9  11
ENDBRANCH   1   7
BRANCH   1  15
ATOM     15  N   LIG    1       -2.983  -5.761   2.426  0.00  0.00    -0.178 NA
ATOM     16  H   LIG    1       -3.481  -5.764   3.258  0.00  0.00    +0.149 HD
BRANCH  15  17
ATOM     17  S   LIG    1       -2.475  -7.190   1.760  0.00  0.00    +0.061 S 
ATOM     18  O   LIG    1       -2.828  -7.145   0.384  0.00  0.00    -0.153 OA
ATOM     19  O   LIG    1       -2.921  -8.223   2.627  0.00  0.00    -0.153 OA
BRANCH  17  20
ATOM     20  C   LIG    1       -0.714  -7.199   1.828  0.00  0.00    +0.126 A 
ATOM     21  C   LIG    1        0.021  -7.190   0.659  0.00  0.00    +0.030 A 
ATOM     22  C   LIG    1        1.403  -7.197   0.714  0.00  0.00    +0.002 A 
ATOM     23  C   LIG    1        2.049  -7.213   1.935  0.00  0.00    +0.005 A 
ATOM     24  C   LIG    1        1.319  -7.222   3.112  0.00  0.00    -0.024 A 
ATOM     25  C   LIG    1        2.055  -7.234   4.426  0.00  0.00    +0.041 C 
ATOM     26  C   LIG    1        1.146  -7.726   5.546  0.00  0.00    +0.007 C 
ATOM     27  C   LIG    1        1.831  -7.519   6.899  0.00  0.00    +0.009 C 
ATOM     28  C   LIG    1       -0.170  -6.938   5.511  0.00  0.00    +0.105 C 
ATOM     29  N   LIG    1       -0.830  -7.223   4.230  0.00  0.00    -0.342 N 
ATOM     30  H   LIG    1       -1.780  -7.417   4.197  0.00  0.00    +0.146 HD
ATOM     31  C   LIG    1       -0.067  -7.211   3.058  0.00  0.00    +0.057 A 
ENDBRANCH  17  20
ENDBRANCH  15  17
ENDBRANCH   1  15
BRANCH   1  32
ATOM     32  C   LIG    1       -3.864  -3.537   1.916  0.00  0.00    +0.033 C 
BRANCH  32  33
ATOM     33  C   LIG    1       -5.092  -4.127   1.220  0.00  0.00    +0.039 C 
BRANCH  33  34
ATOM     34  C   LIG    1       -6.277  -3.172   1.379  0.00  0.00    +0.196 C 
BRANCH  34  35
ATOM     35  N   LIG    1       -7.453  -3.737   0.712  0.00  0.00    -0.279 N 
ATOM     36  H   LIG    1       -7.391  -4.595   0.264  0.00  0.00    +0.258 HD
ATOM     37  C   LIG    1       -8.582  -3.086   0.721  0.00  0.00    +0.341 C 
BRANCH  37  38
ATOM     38  N   LIG    1       -9.686  -3.616   0.096  0.00  0.00    -0.292 N 
ATOM     39  H   LIG    1      -10.526  -3.132   0.103  0.00  0.00    +0.255 HD
ATOM     40  H   LIG    1       -9.624  -4.474  -0.352  0.00  0.00    +0.255 HD
ENDBRANCH  37  38
BRANCH  37  41
ATOM     41  N   LIG    1       -8.670  -1.870   1.356  0.00  0.00    -0.292 N 
ATOM     42  H   LIG    1       -9.511  -1.386   1.363  0.00  0.00    +0.255 HD
ATOM     43  H   LIG    1       -7.891  -1.496   1.798  0.00  0.00    +0.255 HD
ENDBRANCH  37  41
ENDBRANCH  34  35
ENDBRANCH  33  34
ENDBRANCH  32  33
ENDBRANCH   1  32
TORSDOF 12
