REMARK  Name = ZINC13803827
REMARK                            x       y       z     vdW  Elec       q    Type
REMARK                         _______ _______ _______ _____ _____    ______ ____
ROOT
ATOM      1  C   LIG    1        0.059  -4.256  -0.021  0.00  0.00    -0.018 A 
ATOM      2  C   LIG    1        0.068  -4.949  -1.230  0.00  0.00    +0.010 A 
ATOM      3  C   LIG    1        0.087  -6.329  -1.232  0.00  0.00    +0.029 A 
ATOM      4  C   LIG    1        0.096  -7.024  -0.037  0.00  0.00    +0.105 A 
ATOM      5  C   LIG    1        0.087  -6.342   1.167  0.00  0.00    +0.029 A 
ATOM      6  C   LIG    1        0.074  -4.962   1.180  0.00  0.00    +0.010 A 
ENDROOT
BRANCH   1  11
ATOM      7  C   LIG    1       -0.018   1.503   0.010  0.00  0.00    +0.044 C 
ATOM      8  C   LIG    1        0.002  -0.004   0.002  0.00  0.00    -0.050 A 
ATOM      9  C   LIG    1        0.006  -0.686  -1.201  0.00  0.00    +0.004 A 
ATOM     10  C   LIG    1        0.024  -2.067  -1.215  0.00  0.00    +0.009 A 
ATOM     11  C   LIG    1        0.040  -2.772  -0.013  0.00  0.00    -0.018 A 
ATOM     12  C   LIG    1        0.036  -2.080   1.196  0.00  0.00    +0.009 A 
ATOM     13  C   LIG    1        0.023  -0.700   1.198  0.00  0.00    +0.004 A 
ENDBRANCH   1  11
BRANCH   4  14
ATOM     14  S   LIG    1        0.120  -8.786  -0.046  0.00  0.00    +0.059 S 
ATOM     15  O   LIG    1       -0.426  -9.193  -1.294  0.00  0.00    -0.153 OA
ATOM     16  O   LIG    1       -0.425  -9.206   1.197  0.00  0.00    -0.153 OA
BRANCH  14  17
ATOM     17  N   LIG    1        1.708  -9.255  -0.049  0.00  0.00    -0.176 NA
ATOM     18  H   LIG    1        2.073  -9.728  -0.813  0.00  0.00    +0.149 HD
BRANCH  17  19
ATOM     19  C   LIG    1        2.562  -8.954   1.102  0.00  0.00    +0.187 C 
BRANCH  19  20
ATOM     20  C   LIG    1        3.559 -10.097   1.310  0.00  0.00    +0.012 C 
ATOM     21  C   LIG    1        4.367  -9.843   2.584  0.00  0.00    +0.009 C 
ATOM     22  C   LIG    1        4.506 -10.171   0.112  0.00  0.00    +0.009 C 
ENDBRANCH  19  20
BRANCH  19  23
ATOM     23  C   LIG    1        3.314  -7.672   0.849  0.00  0.00    +0.324 C 
ATOM     24  O   LIG    1        3.629  -6.955   1.784  0.00  0.00    -0.249 OA
BRANCH  23  25
ATOM     25  O   LIG    1        3.607  -7.352  -0.290  0.00  0.00    -0.479 OA
ATOM     26  H   LIG    1        3.365  -7.903  -1.009  0.00  0.00    +0.295 HD
ENDBRANCH  23  25
ENDBRANCH  19  23
ENDBRANCH  17  19
ENDBRANCH  14  17
ENDBRANCH   4  14
TORSDOF 7
