REMARK  Name = ZINC19770127
REMARK                            x       y       z     vdW  Elec       q    Type
REMARK                         _______ _______ _______ _____ _____    ______ ____
ROOT
ATOM      1  C   LIG    1       -1.242   1.764   0.018  0.00  0.00    +0.020 C 
ATOM      2  C   LIG    1       -2.414   1.066   0.019  0.00  0.00    +0.079 C 
ATOM      3  C   LIG    1       -3.803   1.561   0.035  0.00  0.00    +0.261 C 
ATOM      4  N   LIG    1       -4.759   0.647   0.028  0.00  0.00    -0.218 N 
ATOM      5  C   LIG    1       -4.474  -0.671   0.020  0.00  0.00    +0.286 C 
ATOM      6  O   LIG    1       -5.245  -1.611   0.018  0.00  0.00    -0.262 OA
ATOM      7  O   LIG    1       -4.057   2.751   0.048  0.00  0.00    -0.269 OA
ATOM      8  S   LIG    1       -2.688  -0.701   0.012  0.00  0.00    -0.026 S 
ENDROOT
BRANCH   1  10
ATOM      9  C   LIG    1        1.151   1.769   0.001  0.00  0.00    +0.008 C 
ATOM     10  C   LIG    1       -0.013   1.076   0.008  0.00  0.00    +0.002 C 
BRANCH   9  14
ATOM     11  C   LIG    1        4.851  -0.301  -0.045  0.00  0.00    +0.000 A 
ATOM     12  C   LIG    1        4.837   1.083  -0.038  0.00  0.00    +0.001 A 
ATOM     13  C   LIG    1        3.638   1.763  -0.023  0.00  0.00    +0.008 A 
ATOM     14  C   LIG    1        2.434   1.051  -0.015  0.00  0.00    -0.025 A 
ATOM     15  C   LIG    1        2.457  -0.348  -0.017  0.00  0.00    +0.008 A 
ATOM     16  C   LIG    1        3.664  -1.014  -0.037  0.00  0.00    +0.001 A 
ENDBRANCH   9  14
ENDBRANCH   1  10
BRANCH   4  17
ATOM     17  C   LIG    1       -6.160   1.077   0.036  0.00  0.00    +0.237 C 
BRANCH  17  18
ATOM     18  C   LIG    1       -6.634   1.217   1.459  0.00  0.00    +0.323 C 
ATOM     19  O   LIG    1       -5.880   0.983   2.373  0.00  0.00    -0.249 OA
BRANCH  18  20
ATOM     20  O   LIG    1       -7.895   1.603   1.712  0.00  0.00    -0.480 OA
ATOM     21  H   LIG    1       -8.480   1.784   1.003  0.00  0.00    +0.295 HD
ENDBRANCH  18  20
ENDBRANCH  17  18
ENDBRANCH   4  17
TORSDOF 5
