REMARK  Name = ZINC22056928
REMARK                            x       y       z     vdW  Elec       q    Type
REMARK                         _______ _______ _______ _____ _____    ______ ____
ROOT
ATOM      1  C   LIG    1        1.396   1.982  -0.001  0.00  0.00    +0.234 C 
ATOM      2  N   LIG    1        1.624   3.311   0.004  0.00  0.00    -0.299 N 
ATOM      3  H   LIG    1        0.779   4.014   0.016  0.00  0.00    +0.150 HD
ATOM      4  O   LIG    1        2.328   1.207  -0.014  0.00  0.00    -0.274 OA
ENDROOT
BRANCH   2   5
ATOM      5  C   LIG    1        2.999   3.818  -0.006  0.00  0.00    +0.191 C 
ATOM      6  C   LIG    1        3.019   5.207  -0.588  0.00  0.00    -0.011 A 
ATOM      7  C   LIG    1        3.817   5.455  -1.692  0.00  0.00    +0.006 A 
ATOM      8  C   LIG    1        3.866   6.720  -2.246  0.00  0.00    +0.000 A 
ATOM      9  C   LIG    1        3.117   7.745  -1.696  0.00  0.00    +0.001 A 
ATOM     10  C   LIG    1        2.318   7.506  -0.600  0.00  0.00    +0.009 A 
ATOM     11  C   LIG    1        2.261   6.224  -0.036  0.00  0.00    -0.011 A 
ATOM     12  C   LIG    1        1.378   6.022   1.137  0.00  0.00    +0.004 A 
ATOM     13  C   LIG    1        0.141   6.683   1.111  0.00  0.00    +0.010 A 
ATOM     14  C   LIG    1       -0.748   6.547   2.154  0.00  0.00    +0.001 A 
ATOM     15  C   LIG    1       -0.422   5.753   3.240  0.00  0.00    +0.002 A 
ATOM     16  C   LIG    1        0.791   5.102   3.278  0.00  0.00    +0.024 A 
ATOM     17  C   LIG    1        1.706   5.231   2.228  0.00  0.00    +0.044 A 
ATOM     18  N   LIG    1        2.904   4.544   2.360  0.00  0.00    -0.272 N 
ATOM     19  C   LIG    1        3.541   4.565   3.679  0.00  0.00    +0.138 C 
ATOM     20  C   LIG    1        3.526   3.868   1.400  0.00  0.00    +0.244 C 
ATOM     21  O   LIG    1        4.550   3.275   1.666  0.00  0.00    -0.273 OA
ENDBRANCH   2   5
BRANCH   1  23
ATOM     22  C   LIG    1       -0.734   1.954   1.269  0.00  0.00    +0.038 C 
ATOM     23  C   LIG    1       -0.018   1.461   0.010  0.00  0.00    +0.156 C 
BRANCH  23  24
ATOM     24  N   LIG    1        0.002  -0.004   0.002  0.00  0.00    -0.304 N 
ATOM     25  H   LIG    1        0.877  -0.544   0.393  0.00  0.00    +0.149 HD
ATOM     26  C   LIG    1       -1.051  -0.690  -0.485  0.00  0.00    +0.218 C 
ATOM     27  O   LIG    1       -2.015  -0.094  -0.916  0.00  0.00    -0.275 OA
BRANCH  26  28
ATOM     28  C   LIG    1       -1.031  -2.196  -0.493  0.00  0.00    +0.131 C 
BRANCH  28  29
ATOM     29  C   LIG    1       -2.317  -2.713  -1.084  0.00  0.00    -0.033 A 
ATOM     30  C   LIG    1       -3.400  -2.968  -0.265  0.00  0.00    +0.042 A 
ATOM     31  C   LIG    1       -4.585  -3.437  -0.807  0.00  0.00    +0.126 A 
ATOM     32  F   LIG    1       -5.645  -3.680  -0.006  0.00  0.00    -0.205 F 
ATOM     33  C   LIG    1       -4.680  -3.662  -2.170  0.00  0.00    +0.076 A 
ATOM     34  C   LIG    1       -3.593  -3.412  -2.989  0.00  0.00    +0.126 A 
ATOM     35  F   LIG    1       -3.684  -3.630  -4.319  0.00  0.00    -0.205 F 
ATOM     36  C   LIG    1       -2.411  -2.937  -2.445  0.00  0.00    +0.042 A 
ENDBRANCH  28  29
ENDBRANCH  26  28
ENDBRANCH  23  24
ENDBRANCH   1  23
TORSDOF 5
