REMARK  Name = ZINC34271593
REMARK                            x       y       z     vdW  Elec       q    Type
REMARK                         _______ _______ _______ _____ _____    ______ ____
ROOT
ATOM      1  N   LIG    1       -4.988  -2.801  -2.974  0.00  0.00    -0.277 N 
ATOM      2  H   LIG    1       -5.488  -2.983  -2.163  0.00  0.00    +0.258 HD
ENDROOT
BRANCH   1   3
ATOM      3  C   LIG    1       -5.495  -3.170  -4.185  0.00  0.00    +0.377 C 
ATOM      4  N   LIG    1       -6.670  -3.776  -4.254  0.00  0.00    +0.002 NA
BRANCH   3   5
ATOM      5  N   LIG    1       -4.792  -2.914  -5.325  0.00  0.00    -0.291 N 
ATOM      6  H   LIG    1       -5.185  -3.106  -6.191  0.00  0.00    +0.254 HD
ATOM      7  H   LIG    1       -3.898  -2.540  -5.271  0.00  0.00    +0.254 HD
ENDBRANCH   3   5
BRANCH   4   8
ATOM      8  C   LIG    1       -7.210  -4.056  -5.449  0.00  0.00    +0.362 C 
ATOM      9  O   LIG    1       -6.603  -4.751  -6.245  0.00  0.00    -0.247 OA
BRANCH   8  10
ATOM     10  C   LIG    1       -8.542  -3.523  -5.800  0.00  0.00    +0.186 A 
ATOM     11  C   LIG    1       -9.057  -3.713  -7.092  0.00  0.00    +0.151 A 
ATOM     12  N   LIG    1      -10.255  -3.232  -7.402  0.00  0.00    -0.213 NA
ATOM     13  C   LIG    1      -10.960  -2.573  -6.492  0.00  0.00    +0.156 A 
ATOM     14  C   LIG    1      -10.443  -2.384  -5.205  0.00  0.00    +0.170 A 
ATOM     15 CL   LIG    1      -11.370  -1.521  -4.018  0.00  0.00    -0.058 Cl
ATOM     16  N   LIG    1       -9.259  -2.864  -4.891  0.00  0.00    -0.222 NA
BRANCH  13  17
ATOM     17  N   LIG    1      -12.209  -2.070  -6.815  0.00  0.00    -0.341 N 
ATOM     18  H   LIG    1      -12.725  -1.588  -6.150  0.00  0.00    +0.144 HD
ATOM     19  H   LIG    1      -12.568  -2.200  -7.707  0.00  0.00    +0.144 HD
ENDBRANCH  13  17
BRANCH  11  20
ATOM     20  N   LIG    1       -8.319  -4.401  -8.039  0.00  0.00    -0.341 N 
ATOM     21  H   LIG    1       -8.640  -4.464  -8.952  0.00  0.00    +0.144 HD
ATOM     22  H   LIG    1       -7.481  -4.821  -7.789  0.00  0.00    +0.144 HD
ENDBRANCH  11  20
ENDBRANCH   8  10
ENDBRANCH   4   8
ENDBRANCH   1   3
BRANCH   1  23
ATOM     23  C   LIG    1       -3.687  -2.131  -2.897  0.00  0.00    +0.195 C 
BRANCH  23  24
ATOM     24  C   LIG    1       -3.354  -1.829  -1.435  0.00  0.00    +0.037 C 
BRANCH  24  25
ATOM     25  C   LIG    1       -1.996  -1.129  -1.355  0.00  0.00    +0.008 C 
BRANCH  25  26
ATOM     26  C   LIG    1       -1.663  -0.827   0.107  0.00  0.00    +0.035 C 
BRANCH  26  32
ATOM     27  C   LIG    1       -0.256   1.242   0.126  0.00  0.00    +0.007 A 
ATOM     28  C   LIG    1        0.969   1.877   0.198  0.00  0.00    +0.046 A 
ATOM     29  C   LIG    1        2.130   1.129   0.331  0.00  0.00    +0.121 A 
ATOM     30  C   LIG    1        2.057  -0.255   0.391  0.00  0.00    +0.046 A 
ATOM     31  C   LIG    1        0.830  -0.885   0.319  0.00  0.00    +0.007 A 
ATOM     32  C   LIG    1       -0.326  -0.137   0.186  0.00  0.00    -0.047 A 
BRANCH  29  33
ATOM     33  O   LIG    1        3.336   1.751   0.402  0.00  0.00    -0.489 OA
BRANCH  33  34
ATOM     34  C   LIG    1        4.489   0.917   0.538  0.00  0.00    +0.262 C 
BRANCH  34  35
ATOM     35  C   LIG    1        5.744   1.789   0.601  0.00  0.00    +0.177 C 
BRANCH  35  36
ATOM     36  O   LIG    1        5.915   2.469  -0.644  0.00  0.00    -0.386 OA
ATOM     37  H   LIG    1        6.015   1.880  -1.404  0.00  0.00    +0.210 HD
ENDBRANCH  35  36
BRANCH  35  38
ATOM     38  C   LIG    1        6.965   0.907   0.872  0.00  0.00    +0.190 C 
BRANCH  38  39
ATOM     39  O   LIG    1        8.119   1.732   1.046  0.00  0.00    -0.392 OA
ATOM     40  H   LIG    1        8.932   1.238   1.222  0.00  0.00    +0.210 HD
ENDBRANCH  38  39
ENDBRANCH  35  38
ENDBRANCH  34  35
ENDBRANCH  33  34
ENDBRANCH  29  33
ENDBRANCH  26  32
ENDBRANCH  25  26
ENDBRANCH  24  25
ENDBRANCH  23  24
ENDBRANCH   1  23
TORSDOF 17
