REMARK  Name = ZINC17836932
REMARK                            x       y       z     vdW  Elec       q    Type
REMARK                         _______ _______ _______ _____ _____    ______ ____
ROOT
ATOM      1  C   LIG    1       -0.017   1.398   0.010  0.00  0.00    +0.028 A 
ATOM      2  C   LIG    1        1.270   1.821  -0.000  0.00  0.00    +0.084 A 
ATOM      3  N   LIG    1        2.103   0.742  -0.004  0.00  0.00    -0.357 N 
ATOM      4  C   LIG    1        1.353  -0.388   0.029  0.00  0.00    +0.109 A 
ATOM      5  C   LIG    1        1.735  -1.803   0.127  0.00  0.00    +0.261 C 
ATOM      6  O   LIG    1        2.629  -2.167   0.869  0.00  0.00    -0.269 OA
ATOM      7  N   LIG    1        1.053  -2.691  -0.642  0.00  0.00    -0.310 N 
ATOM      8  H   LIG    1        1.111  -3.639  -0.447  0.00  0.00    +0.149 HD
ATOM      9  C   LIG    1        0.235  -2.235  -1.756  0.00  0.00    +0.109 C 
ATOM     10  C   LIG    1       -1.177  -1.815  -1.338  0.00  0.00    +0.058 C 
ATOM     11  C   LIG    1       -1.094  -0.974  -0.079  0.00  0.00    +0.007 C 
ATOM     12  C   LIG    1       -1.997  -1.113   0.929  0.00  0.00    +0.175 C 
ATOM     13  C   LIG    1       -3.133  -2.041   0.986  0.00  0.00    +0.329 C 
ATOM     14  N   LIG    1       -3.742  -1.843   2.135  0.00  0.00    -0.030 NA
ATOM     15  C   LIG    1       -3.123  -0.881   2.837  0.00  0.00    +0.419 C 
ATOM     16  N   LIG    1       -3.494  -0.459   4.022  0.00  0.00    -0.128 NA
ATOM     17  H   LIG    1       -2.992   0.243   4.466  0.00  0.00    +0.306 HD
ATOM     18  N   LIG    1       -2.037  -0.406   2.134  0.00  0.00    -0.196 N 
ATOM     19  H   LIG    1       -1.420   0.286   2.420  0.00  0.00    +0.252 HD
ATOM     20  H   LIG    1        3.072   0.777  -0.026  0.00  0.00    +0.165 HD
ATOM     21  C   LIG    1        0.002  -0.004   0.002  0.00  0.00    +0.011 A 
ENDROOT
BRANCH  13  22
ATOM     22  O   LIG    1       -3.488  -2.933   0.034  0.00  0.00    -0.478 OA
ATOM     23  H   LIG    1       -2.988  -3.000  -0.756  0.00  0.00    +0.295 HD
ENDBRANCH  13  22
TORSDOF 1
