REMARK  Name = ZINC18710085
REMARK                            x       y       z     vdW  Elec       q    Type
REMARK                         _______ _______ _______ _____ _____    ______ ____
ROOT
ATOM      1  C   LIG    1        0.089   1.331   0.487  0.00  0.00    +0.152 C 
ATOM      2  N   LIG    1        0.408  -0.053   0.128  0.00  0.00    -0.315 N 
ATOM      3  C   LIG    1        0.353  -0.608  -1.142  0.00  0.00    +0.070 A 
ATOM      4  C   LIG    1        0.014  -0.112  -2.392  0.00  0.00    +0.031 A 
ATOM      5  C   LIG    1        0.059  -0.939  -3.495  0.00  0.00    +0.048 A 
ATOM      6  C   LIG    1        0.444  -2.270  -3.362  0.00  0.00    +0.131 A 
ATOM      7  C   LIG    1        0.784  -2.778  -2.123  0.00  0.00    +0.076 A 
ATOM      8  C   LIG    1        0.742  -1.950  -0.999  0.00  0.00    +0.094 A 
ATOM      9  N   LIG    1        1.011  -2.150   0.318  0.00  0.00    -0.214 NA
ATOM     10  C   LIG    1        0.821  -1.037   0.981  0.00  0.00    +0.201 A 
ENDROOT
BRANCH  10  11
ATOM     11  N   LIG    1        1.007  -0.881   2.340  0.00  0.00    -0.285 N 
ATOM     12  H   LIG    1        0.773  -0.043   2.769  0.00  0.00    +0.155 HD
BRANCH  11  13
ATOM     13  C   LIG    1        1.533  -1.932   3.098  0.00  0.00    +0.034 A 
ATOM     14  C   LIG    1        2.400  -2.846   2.514  0.00  0.00    +0.024 A 
ATOM     15  C   LIG    1        2.918  -3.883   3.265  0.00  0.00    +0.014 A 
ATOM     16  C   LIG    1        2.574  -4.011   4.599  0.00  0.00    +0.055 A 
ATOM     17  C   LIG    1        1.711  -3.102   5.184  0.00  0.00    +0.014 A 
ATOM     18  C   LIG    1        1.194  -2.060   4.439  0.00  0.00    +0.024 A 
BRANCH  16  19
ATOM     19  C   LIG    1        3.140  -5.143   5.416  0.00  0.00    +0.417 C 
ATOM     20  F   LIG    1        3.377  -6.244   4.586  0.00  0.00    -0.166 F 
ATOM     21  F   LIG    1        2.227  -5.500   6.414  0.00  0.00    -0.166 F 
ATOM     22  F   LIG    1        4.341  -4.737   6.006  0.00  0.00    -0.166 F 
ENDBRANCH  16  19
ENDBRANCH  11  13
ENDBRANCH  10  11
BRANCH   6  23
ATOM     23  O   LIG    1        0.484  -3.074  -4.457  0.00  0.00    -0.456 OA
BRANCH  23  24
ATOM     24  C   LIG    1       -0.520  -3.973  -4.625  0.00  0.00    +0.132 A 
ATOM     25  C   LIG    1       -1.552  -4.072  -3.693  0.00  0.00    +0.066 A 
ATOM     26  C   LIG    1       -2.558  -4.997  -3.894  0.00  0.00    +0.115 A 
ATOM     27  N   LIG    1       -2.555  -5.783  -4.952  0.00  0.00    -0.252 NA
ATOM     28  C   LIG    1       -1.592  -5.722  -5.865  0.00  0.00    +0.109 A 
ATOM     29  C   LIG    1       -0.546  -4.811  -5.733  0.00  0.00    +0.077 A 
BRANCH  28  30
ATOM     30  C   LIG    1       -1.633  -6.626  -7.035  0.00  0.00    +0.157 A 
ATOM     31  N   LIG    1       -2.599  -7.555  -7.294  0.00  0.00    -0.334 N 
ATOM     32  C   LIG    1       -2.259  -8.170  -8.466  0.00  0.00    +0.140 A 
ATOM     33  C   LIG    1       -1.107  -7.608  -8.888  0.00  0.00    +0.143 A 
ATOM     34  H   LIG    1       -3.380  -7.742  -6.749  0.00  0.00    +0.167 HD
ATOM     35  N   LIG    1       -0.749  -6.669  -8.007  0.00  0.00    -0.234 NA
BRANCH  32  36
ATOM     36  C   LIG    1       -3.026  -9.269  -9.156  0.00  0.00    +0.434 C 
ATOM     37  F   LIG    1       -3.702 -10.036  -8.202  0.00  0.00    -0.164 F 
ATOM     38  F   LIG    1       -2.136 -10.084  -9.865  0.00  0.00    -0.164 F 
ATOM     39  F   LIG    1       -3.950  -8.707 -10.043  0.00  0.00    -0.164 F 
ENDBRANCH  32  36
ENDBRANCH  28  30
ENDBRANCH  23  24
ENDBRANCH   6  23
TORSDOF 7
