REMARK  Name = ZINC13981793
REMARK                            x       y       z     vdW  Elec       q    Type
REMARK                         _______ _______ _______ _____ _____    ______ ____
ROOT
ATOM      1  N   LIG    1        5.942   4.821  -0.583  0.00  0.00    +0.382 N 
ATOM      2  H   LIG    1        5.094   4.448  -1.026  0.00  0.00    -0.081 HD
ATOM      3  C   LIG    1        5.680   5.022   0.859  0.00  0.00    -0.076 C 
ATOM      4  C   LIG    1        5.199   3.700   1.464  0.00  0.00    +0.017 C 
ATOM      5  C   LIG    1        6.271   2.632   1.262  0.00  0.00    +0.109 C 
ATOM      6  C   LIG    1        7.509   2.974   2.055  0.00  0.00    +0.238 C 
ATOM      7  N   LIG    1        7.530   2.202   3.162  0.00  0.00    -0.298 N 
ATOM      8  H   LIG    1        8.225   2.215   3.839  0.00  0.00    +0.150 HD
ATOM      9  C   LIG    1        6.341   1.341   3.185  0.00  0.00    +0.214 C 
ATOM     10  O   LIG    1        8.342   3.800   1.749  0.00  0.00    -0.273 OA
ATOM     11  N   LIG    1        5.807   1.338   1.803  0.00  0.00    -0.300 N 
ATOM     12  C   LIG    1        6.608   2.493  -0.219  0.00  0.00    +0.017 C 
ATOM     13  C   LIG    1        7.045   3.853  -0.770  0.00  0.00    -0.076 C 
ENDROOT
BRANCH   1  19
ATOM     14  C   LIG    1        4.997   6.890  -1.473  0.00  0.00    +0.005 C 
ATOM     15  C   LIG    1        4.079   6.072  -2.384  0.00  0.00    +0.006 C 
ATOM     16  C   LIG    1        4.787   5.806  -3.715  0.00  0.00    +0.000 C 
ATOM     17  C   LIG    1        6.077   5.026  -3.459  0.00  0.00    -0.002 C 
ATOM     18  C   LIG    1        6.995   5.843  -2.547  0.00  0.00    -0.015 C 
ATOM     19  C   LIG    1        6.288   6.109  -1.217  0.00  0.00    -0.061 C 
BRANCH  14  23
ATOM     20  C   LIG    1        3.023   7.633   2.241  0.00  0.00    +0.000 A 
ATOM     21  C   LIG    1        3.951   8.536   1.759  0.00  0.00    +0.000 A 
ATOM     22  C   LIG    1        4.591   8.296   0.558  0.00  0.00    +0.004 A 
ATOM     23  C   LIG    1        4.301   7.152  -0.163  0.00  0.00    -0.046 A 
ATOM     24  C   LIG    1        3.368   6.251   0.317  0.00  0.00    +0.004 A 
ATOM     25  C   LIG    1        2.732   6.489   1.521  0.00  0.00    +0.000 A 
ENDBRANCH  14  23
ENDBRANCH   1  19
BRANCH  11  26
ATOM     26  C   LIG    1        4.412   1.267   1.806  0.00  0.00    +0.032 A 
ATOM     27  C   LIG    1        3.705   1.416   0.619  0.00  0.00    +0.023 A 
ATOM     28  C   LIG    1        2.326   1.351   0.626  0.00  0.00    +0.002 A 
ATOM     29  C   LIG    1        1.649   1.127   1.810  0.00  0.00    +0.000 A 
ATOM     30  C   LIG    1        2.349   0.979   2.994  0.00  0.00    +0.002 A 
ATOM     31  C   LIG    1        3.728   1.048   2.995  0.00  0.00    +0.023 A 
ENDBRANCH  11  26
TORSDOF 3
