REMARK  Name = ZINC18115268
REMARK                            x       y       z     vdW  Elec       q    Type
REMARK                         _______ _______ _______ _____ _____    ______ ____
ROOT
ATOM      1  C   LIG    1        3.373   0.085  -3.818  0.00  0.00    +0.106 C 
ENDROOT
BRANCH   1   2
ATOM      2  S   LIG    1        1.602   0.099  -3.426  0.00  0.00    -0.151 S 
BRANCH   2   3
ATOM      3  C   LIG    1        1.306   1.773  -2.792  0.00  0.00    +0.124 C 
BRANCH   3   6
ATOM      4  C   LIG    1        0.024   1.161  -0.003  0.00  0.00    +0.067 C 
ATOM      5  C   LIG    1       -0.703   1.659  -1.225  0.00  0.00    +0.060 A 
ATOM      6  C   LIG    1       -0.148   1.921  -2.424  0.00  0.00    +0.048 A 
ATOM      7  N   LIG    1       -1.158   2.347  -3.243  0.00  0.00    -0.347 N 
ATOM      8  H   LIG    1       -1.073   2.611  -4.173  0.00  0.00    +0.167 HD
ATOM      9  C   LIG    1       -2.296   2.331  -2.516  0.00  0.00    +0.196 A 
ATOM     10  N   LIG    1       -2.017   1.914  -1.312  0.00  0.00    -0.241 NA
ENDBRANCH   3   6
ENDBRANCH   2   3
ENDBRANCH   1   2
BRANCH   1  11
ATOM     11  C   LIG    1        3.762  -1.288  -4.370  0.00  0.00    +0.206 C 
BRANCH  11  12
ATOM     12  N   LIG    1        5.192  -1.299  -4.687  0.00  0.00    -0.274 N 
ATOM     13  H   LIG    1        5.729  -0.506  -4.535  0.00  0.00    +0.258 HD
BRANCH  12  14
ATOM     14  C   LIG    1        5.774  -2.434  -5.199  0.00  0.00    +0.395 C 
ATOM     15  N   LIG    1        5.053  -3.500  -5.403  0.00  0.00    -0.116 NA
ATOM     16  C   LIG    1        5.646  -4.672  -6.053  0.00  0.00    +0.291 C 
BRANCH  14  17
ATOM     17  N   LIG    1        7.121  -2.445  -5.498  0.00  0.00    -0.178 N 
ATOM     18  H   LIG    1        7.516  -3.219  -5.929  0.00  0.00    +0.278 HD
BRANCH  17  19
ATOM     19  C   LIG    1        7.891  -1.374  -5.189  0.00  0.00    +0.255 C 
ATOM     20  N   LIG    1        8.538  -0.476  -4.931  0.00  0.00    -0.154 NA
ENDBRANCH  17  19
ENDBRANCH  14  17
ENDBRANCH  12  14
ENDBRANCH  11  12
ENDBRANCH   1  11
TORSDOF 8
