REMARK  Name = ZINC25989966
REMARK                            x       y       z     vdW  Elec       q    Type
REMARK                         _______ _______ _______ _____ _____    ______ ____
ROOT
ATOM      1  C   LIG    1       -0.292   1.272  -4.907  0.00  0.00    +0.260 C 
ATOM      2  N   LIG    1       -0.745   1.585  -3.677  0.00  0.00    -0.310 N 
ATOM      3  H   LIG    1       -1.647   2.204  -3.564  0.00  0.00    +0.149 HD
ATOM      4  O   LIG    1        0.705   0.587  -5.032  0.00  0.00    -0.269 OA
ENDROOT
BRANCH   1  11
ATOM      5  C   LIG    1       -2.763   2.963 -10.147  0.00  0.00    +0.001 A 
ATOM      6  C   LIG    1       -3.683   3.595  -9.320  0.00  0.00    +0.002 A 
ATOM      7  C   LIG    1       -3.566   3.516  -7.950  0.00  0.00    +0.026 A 
ATOM      8  C   LIG    1       -2.516   2.797  -7.386  0.00  0.00    +0.047 A 
ATOM      9  C   LIG    1       -1.585   2.156  -8.226  0.00  0.00    +0.000 A 
ATOM     10  C   LIG    1       -0.642   1.516  -7.386  0.00  0.00    +0.040 A 
ATOM     11  C   LIG    1       -1.003   1.759  -6.099  0.00  0.00    +0.103 A 
ATOM     12  N   LIG    1       -2.142   2.541  -6.088  0.00  0.00    -0.351 N 
ATOM     13  H   LIG    1       -2.733   2.948  -5.254  0.00  0.00    +0.166 HD
ATOM     14  C   LIG    1       -1.726   2.251  -9.617  0.00  0.00    +0.010 A 
ENDBRANCH   1  11
BRANCH   2  15
ATOM     15  C   LIG    1       -0.037   1.099  -2.490  0.00  0.00    +0.104 C 
BRANCH  15  16
ATOM     16  C   LIG    1       -0.753   1.593  -1.232  0.00  0.00    +0.020 C 
BRANCH  16  17
ATOM     17  C   LIG    1       -0.013   1.086   0.008  0.00  0.00    +0.023 C 
BRANCH  17  18
ATOM     18  C   LIG    1       -0.729   1.579   1.267  0.00  0.00    +0.123 C 
BRANCH  18  19
ATOM     19  N   LIG    1       -0.020   1.094   2.454  0.00  0.00    -0.338 N 
ATOM     20  C   LIG    1       -0.255  -0.081   3.116  0.00  0.00    +0.104 A 
ATOM     21  C   LIG    1        0.618  -0.132   4.140  0.00  0.00    +0.101 A 
ATOM     22  N   LIG    1        1.359   0.986   4.110  0.00  0.00    -0.352 N 
ATOM     23  H   LIG    1        2.138   1.150   4.869  0.00  0.00    +0.166 HD
ATOM     24  C   LIG    1        0.982   1.725   3.102  0.00  0.00    +0.173 A 
ENDBRANCH  18  19
ENDBRANCH  17  18
ENDBRANCH  16  17
ENDBRANCH  15  16
ENDBRANCH   2  15
TORSDOF 6
