REMARK  Name = ZINC16957895
REMARK                            x       y       z     vdW  Elec       q    Type
REMARK                         _______ _______ _______ _____ _____    ______ ____
ROOT
ATOM      1  C   LIG    1       -4.282  -1.401   1.912  0.00  0.00    +0.106 C 
ATOM      2  C   LIG    1       -5.649  -1.246   1.796  0.00  0.00    +0.215 C 
ENDROOT
BRANCH   1   3
ATOM      3  C   LIG    1       -3.688  -2.753   1.895  0.00  0.00    +0.140 A 
ATOM      4  C   LIG    1       -3.388  -3.406   3.115  0.00  0.00    +0.240 A 
ATOM      5  N   LIG    1       -2.859  -4.611   3.113  0.00  0.00    -0.210 NA
ATOM      6  C   LIG    1       -2.602  -5.224   1.949  0.00  0.00    +0.093 A 
ATOM      7  C   LIG    1       -2.038  -6.510   1.922  0.00  0.00    +0.030 A 
ATOM      8  C   LIG    1       -1.786  -7.112   0.727  0.00  0.00    +0.002 A 
ATOM      9  C   LIG    1       -2.080  -6.471  -0.475  0.00  0.00    +0.002 A 
ATOM     10  C   LIG    1       -2.627  -5.225  -0.488  0.00  0.00    +0.030 A 
ATOM     11  C   LIG    1       -2.901  -4.571   0.727  0.00  0.00    +0.090 A 
ATOM     12  N   LIG    1       -3.444  -3.350   0.741  0.00  0.00    -0.240 NA
BRANCH   4  13
ATOM     13  O   LIG    1       -3.648  -2.787   4.291  0.00  0.00    -0.491 OA
ATOM     14  H   LIG    1       -4.024  -1.929   4.296  0.00  0.00    +0.294 HD
ENDBRANCH   4  13
ENDBRANCH   1   3
BRANCH   1  15
ATOM     15  C   LIG    1       -3.419  -0.220   2.052  0.00  0.00    +0.253 C 
ATOM     16  O   LIG    1       -3.912   0.884   2.155  0.00  0.00    -0.282 OA
BRANCH  15  19
ATOM     17  N   LIG    1       -1.276  -0.423   3.242  0.00  0.00    -0.278 N 
ATOM     18  H   LIG    1       -1.763  -0.339   4.076  0.00  0.00    +0.155 HD
ATOM     19  C   LIG    1       -1.936  -0.379   2.068  0.00  0.00    +0.289 C 
ATOM     20  O   LIG    1       -1.324  -0.468   1.023  0.00  0.00    -0.266 OA
BRANCH  17  26
ATOM     21  C   LIG    1        0.700  -1.597   2.501  0.00  0.00    -0.026 A 
ATOM     22  C   LIG    1        2.072  -1.755   2.514  0.00  0.00    +0.005 A 
ATOM     23  C   LIG    1        2.859  -0.917   3.282  0.00  0.00    +0.001 A 
ATOM     24  C   LIG    1        2.276   0.083   4.039  0.00  0.00    +0.006 A 
ATOM     25  C   LIG    1        0.905   0.247   4.031  0.00  0.00    -0.023 A 
ATOM     26  C   LIG    1        0.112  -0.590   3.257  0.00  0.00    +0.040 A 
BRANCH  25  27
ATOM     27  C   LIG    1        0.271   1.337   4.857  0.00  0.00    +0.015 C 
ATOM     28  C   LIG    1        0.808   2.696   4.405  0.00  0.00    +0.012 C 
ATOM     29  C   LIG    1        0.608   1.120   6.333  0.00  0.00    +0.012 C 
ENDBRANCH  25  27
BRANCH  21  31
ATOM     30  C   LIG    1        0.581  -2.859   0.370  0.00  0.00    +0.009 C 
ATOM     31  C   LIG    1       -0.157  -2.511   1.664  0.00  0.00    +0.033 C 
ENDBRANCH  21  31
ENDBRANCH  17  26
ENDBRANCH  15  19
ENDBRANCH   1  15
BRANCH   2  32
ATOM     32  C   LIG    1       -6.529  -2.435   1.776  0.00  0.00    +0.375 C 
ATOM     33  O   LIG    1       -6.063  -3.539   1.972  0.00  0.00    -0.241 OA
BRANCH  32  34
ATOM     34  O   LIG    1       -7.848  -2.293   1.541  0.00  0.00    -0.462 OA
ATOM     35  C   LIG    1       -8.639  -3.484   1.536  0.00  0.00    +0.280 C 
ENDBRANCH  32  34
ENDBRANCH   2  32
BRANCH   2  36
ATOM     36  O   LIG    1       -6.183  -0.009   1.700  0.00  0.00    -0.501 OA
ATOM     37  H   LIG    1       -5.626   0.744   1.712  0.00  0.00    +0.292 HD
ENDBRANCH   2  36
TORSDOF 10
