REMARK  Name = ZINC44136098
REMARK                            x       y       z     vdW  Elec       q    Type
REMARK                         _______ _______ _______ _____ _____    ______ ____
ROOT
ATOM      1  C   LIG    1        4.458   1.933   0.096  0.00  0.00    +0.088 A 
ATOM      2  C   LIG    1        5.715   1.370   0.402  0.00  0.00    +0.060 A 
ATOM      3  C   LIG    1        6.804   2.232   0.553  0.00  0.00    +0.128 A 
ATOM      4  N   LIG    1        6.621   3.532   0.404  0.00  0.00    -0.222 NA
ATOM      5  C   LIG    1        5.425   4.027   0.115  0.00  0.00    +0.216 A 
ATOM      6  N   LIG    1        4.364   3.252  -0.043  0.00  0.00    -0.214 NA
ENDROOT
BRANCH   1   9
ATOM      7  C   LIG    1        2.187  -0.799  -1.127  0.00  0.00    +0.021 A 
ATOM      8  C   LIG    1        3.300   0.002  -0.972  0.00  0.00    +0.013 A 
ATOM      9  C   LIG    1        3.267   1.070  -0.076  0.00  0.00    +0.020 A 
ATOM     10  C   LIG    1        2.107   1.322   0.660  0.00  0.00    +0.052 A 
ATOM     11 CL   LIG    1        2.058   2.649   1.778  0.00  0.00    -0.083 Cl
ATOM     12  C   LIG    1        1.000   0.513   0.496  0.00  0.00    +0.040 A 
ATOM     13  C   LIG    1        1.040  -0.545  -0.395  0.00  0.00    +0.042 A 
ATOM     14 CL   LIG    1       -0.356  -1.558  -0.597  0.00  0.00    -0.083 Cl
ENDBRANCH   1   9
BRANCH   2  15
ATOM     15  C   LIG    1        5.874  -0.089   0.560  0.00  0.00    +0.119 A 
ATOM     16  N   LIG    1        4.981  -0.916   1.105  0.00  0.00    -0.346 N 
ATOM     17  C   LIG    1        5.487  -2.165   1.069  0.00  0.00    +0.102 A 
ATOM     18  C   LIG    1        6.706  -2.095   0.493  0.00  0.00    +0.102 A 
ATOM     19  H   LIG    1        4.116  -0.663   1.465  0.00  0.00    +0.167 HD
ATOM     20  N   LIG    1        6.933  -0.803   0.177  0.00  0.00    -0.346 N 
ATOM     21  H   LIG    1        7.730  -0.454  -0.252  0.00  0.00    +0.167 HD
ENDBRANCH   2  15
BRANCH   5  22
ATOM     22  N   LIG    1        5.284   5.395  -0.030  0.00  0.00    -0.312 N 
ATOM     23  H   LIG    1        4.416   5.773  -0.241  0.00  0.00    +0.149 HD
BRANCH  22  24
ATOM     24  C   LIG    1        6.445   6.273   0.134  0.00  0.00    +0.123 C 
BRANCH  24  25
ATOM     25  C   LIG    1        6.019   7.727  -0.077  0.00  0.00    +0.121 C 
BRANCH  25  26
ATOM     26  N   LIG    1        7.180   8.605   0.087  0.00  0.00    -0.328 N 
ATOM     27  H   LIG    1        8.048   8.227   0.298  0.00  0.00    +0.148 HD
BRANCH  26  28
ATOM     28  C   LIG    1        7.038   9.980  -0.059  0.00  0.00    +0.121 A 
ATOM     29  C   LIG    1        5.790  10.515  -0.356  0.00  0.00    +0.046 A 
ATOM     30  C   LIG    1        5.658  11.886  -0.500  0.00  0.00    +0.039 A 
ATOM     31  C   LIG    1        6.782  12.681  -0.342  0.00  0.00    +0.161 A 
ATOM     32  C   LIG    1        8.001  12.082  -0.045  0.00  0.00    +0.149 A 
ATOM     33  N   LIG    1        8.093  10.768   0.091  0.00  0.00    -0.216 NA
BRANCH  32  34
ATOM     34  N   LIG    1        9.133  12.871   0.115  0.00  0.00    -0.341 N 
ATOM     35  H   LIG    1        9.976  12.465   0.371  0.00  0.00    +0.144 HD
ATOM     36  H   LIG    1        9.082  13.829  -0.031  0.00  0.00    +0.144 HD
ENDBRANCH  32  34
BRANCH  31  37
ATOM     37  N   LIG    1        6.686  14.150  -0.487  0.00  0.00    +0.009 N 
ATOM     38  O   LIG    1        5.705  14.735  -0.087  0.00  0.00    -0.130 OA
BRANCH  37  39
ATOM     39  O   LIG    1        7.587  14.767  -1.006  0.00  0.00    -0.396 OA
ATOM     40  H   LIG    1        8.347  14.314  -1.316  0.00  0.00    +0.329 HD
ENDBRANCH  37  39
ENDBRANCH  31  37
ENDBRANCH  26  28
ENDBRANCH  25  26
ENDBRANCH  24  25
ENDBRANCH  22  24
ENDBRANCH   5  22
TORSDOF 10
