REMARK  Name = ZINC13833081
REMARK                            x       y       z     vdW  Elec       q    Type
REMARK                         _______ _______ _______ _____ _____    ______ ____
ROOT
ATOM      1  C   LIG    1        0.256   0.907   4.905  0.00  0.00    +0.078 C 
ATOM      2  C   LIG    1       -0.023   1.840   6.090  0.00  0.00    +0.027 C 
ATOM      3  C   LIG    1        0.909   1.453   7.236  0.00  0.00    +0.037 C 
ATOM      4  C   LIG    1        0.826  -0.026   7.510  0.00  0.00    -0.044 A 
ATOM      5  C   LIG    1        1.301  -0.485   8.732  0.00  0.00    +0.004 A 
ATOM      6  C   LIG    1        1.258  -1.829   9.040  0.00  0.00    +0.000 A 
ATOM      7  C   LIG    1        0.738  -2.727   8.126  0.00  0.00    +0.000 A 
ATOM      8  C   LIG    1        0.264  -2.273   6.913  0.00  0.00    +0.004 A 
ATOM      9  C   LIG    1        0.304  -0.919   6.602  0.00  0.00    -0.042 A 
ATOM     10  C   LIG    1       -0.242  -0.491   5.265  0.00  0.00    +0.057 C 
ENDROOT
BRANCH   1  12
ATOM     11  C   LIG    1        0.000   1.080   2.488  0.00  0.00    +0.213 C 
ATOM     12  N   LIG    1       -0.453   1.393   3.718  0.00  0.00    -0.312 N 
ATOM     13  H   LIG    1       -1.248   1.939   3.817  0.00  0.00    +0.149 HD
ATOM     14  O   LIG    1        0.994   0.397   2.363  0.00  0.00    -0.276 OA
BRANCH  11  15
ATOM     15  C   LIG    1       -0.729   1.579   1.267  0.00  0.00    +0.095 C 
BRANCH  15  17
ATOM     16  C   LIG    1       -0.753   1.593  -1.232  0.00  0.00    +0.004 C 
ATOM     17  C   LIG    1       -0.013   1.086   0.008  0.00  0.00    +0.006 C 
ENDBRANCH  15  17
ENDBRANCH  11  15
ENDBRANCH   1  12
TORSDOF 3
