REMARK  Name = ZINC40380151
REMARK                            x       y       z     vdW  Elec       q    Type
REMARK                         _______ _______ _______ _____ _____    ______ ____
ROOT
ATOM      1  C   LIG    1        0.002  -0.004   0.002  0.00  0.00    +0.204 A 
ATOM      2  N   LIG    1        0.017  -0.779   1.047  0.00  0.00    -0.111 NA
ATOM      3  N   LIG    1        0.031  -2.009   0.670  0.00  0.00    -0.072 NA
ATOM      4  C   LIG    1        0.026  -2.061  -0.637  0.00  0.00    +0.414 A 
ATOM      5  O   LIG    1        0.003  -0.794  -1.089  0.00  0.00    -0.396 OA
ENDROOT
BRANCH   4   6
ATOM      6  O   LIG    1        0.038  -3.183  -1.396  0.00  0.00    -0.464 OA
ATOM      7  H   LIG    1        0.054  -4.025  -0.986  0.00  0.00    +0.297 HD
ENDBRANCH   4   6
BRANCH   1   8
ATOM      8  C   LIG    1       -0.018   1.503   0.010  0.00  0.00    +0.013 C 
BRANCH   8   9
ATOM      9  N   LIG    1        1.360   2.011  -0.000  0.00  0.00    +0.384 N 
ATOM     10  H   LIG    1        1.832   1.686  -0.830  0.00  0.00    -0.089 HD
ATOM     11  H   LIG    1        1.848   1.677   0.817  0.00  0.00    -0.089 HD
ATOM     12  H   LIG    1        1.346   3.020   0.005  0.00  0.00    -0.089 HD
ENDBRANCH   8   9
ENDBRANCH   1   8
TORSDOF 3
