REMARK  Name = ZINC14512219
REMARK                            x       y       z     vdW  Elec       q    Type
REMARK                         _______ _______ _______ _____ _____    ______ ____
ROOT
ATOM      1  C   LIG    1       -3.487  -2.046  -2.724  0.00  0.00    +0.282 C 
ATOM      2  C   LIG    1       -4.729  -2.931  -2.598  0.00  0.00    +0.201 C 
ATOM      3  C   LIG    1       -5.307  -3.187  -3.994  0.00  0.00    +0.179 C 
ATOM      4  C   LIG    1       -5.615  -1.844  -4.662  0.00  0.00    +0.178 C 
ATOM      5  C   LIG    1       -4.338  -1.000  -4.707  0.00  0.00    +0.190 C 
ATOM      6  O   LIG    1       -3.836  -0.826  -3.381  0.00  0.00    -0.339 OA
ENDROOT
BRANCH   4   7
ATOM      7  O   LIG    1       -6.088  -2.068  -5.991  0.00  0.00    -0.386 OA
ATOM      8  H   LIG    1       -6.894  -2.601  -6.037  0.00  0.00    +0.210 HD
ENDBRANCH   4   7
BRANCH   3   9
ATOM      9  O   LIG    1       -6.508  -3.953  -3.881  0.00  0.00    -0.386 OA
ATOM     10  H   LIG    1       -6.386  -4.816  -3.460  0.00  0.00    +0.210 HD
ENDBRANCH   3   9
BRANCH   2  11
ATOM     11  O   LIG    1       -4.371  -4.175  -1.993  0.00  0.00    -0.384 OA
ATOM     12  H   LIG    1       -3.993  -4.086  -1.107  0.00  0.00    +0.210 HD
ENDBRANCH   2  11
BRANCH   5  13
ATOM     13  C   LIG    1       -4.651   0.367  -5.319  0.00  0.00    +0.266 C 
BRANCH  13  14
ATOM     14  O   LIG    1       -3.440   1.110  -5.469  0.00  0.00    -0.459 OA
BRANCH  14  15
ATOM     15  C   LIG    1       -3.542   2.347  -5.998  0.00  0.00    +0.332 C 
ATOM     16  O   LIG    1       -4.630   2.781  -6.324  0.00  0.00    -0.246 OA
BRANCH  15  17
ATOM     17  C   LIG    1       -2.380   3.140  -6.176  0.00  0.00    +0.092 C 
ATOM     18  C   LIG    1       -2.482   4.378  -6.706  0.00  0.00    +0.015 C 
BRANCH  18  19
ATOM     19  C   LIG    1       -1.277   5.200  -6.890  0.00  0.00    -0.021 A 
ATOM     20  C   LIG    1       -0.023   4.699  -6.522  0.00  0.00    +0.012 A 
ATOM     21  C   LIG    1        1.104   5.472  -6.695  0.00  0.00    +0.050 A 
ATOM     22  C   LIG    1        1.000   6.747  -7.235  0.00  0.00    +0.158 A 
ATOM     23  C   LIG    1       -0.246   7.253  -7.604  0.00  0.00    +0.159 A 
ATOM     24  C   LIG    1       -1.380   6.484  -7.439  0.00  0.00    +0.057 A 
BRANCH  23  25
ATOM     25  O   LIG    1       -0.343   8.503  -8.132  0.00  0.00    -0.503 OA
ATOM     26  H   LIG    1       -0.267   8.530  -9.095  0.00  0.00    +0.292 HD
ENDBRANCH  23  25
BRANCH  22  27
ATOM     27  O   LIG    1        2.115   7.505  -7.403  0.00  0.00    -0.503 OA
ATOM     28  H   LIG    1        2.543   7.389  -8.262  0.00  0.00    +0.292 HD
ENDBRANCH  22  27
ENDBRANCH  18  19
ENDBRANCH  15  17
ENDBRANCH  14  15
ENDBRANCH  13  14
ENDBRANCH   5  13
BRANCH   1  29
ATOM     29  O   LIG    1       -2.974  -1.756  -1.422  0.00  0.00    -0.348 OA
BRANCH  29  30
ATOM     30  C   LIG    1       -1.746  -1.026  -1.429  0.00  0.00    +0.168 C 
BRANCH  30  31
ATOM     31  C   LIG    1       -1.294  -0.774   0.010  0.00  0.00    +0.063 C 
BRANCH  31  37
ATOM     32  C   LIG    1       -0.017   1.378   0.010  0.00  0.00    +0.007 A 
ATOM     33  C   LIG    1        1.170   2.089   0.002  0.00  0.00    +0.049 A 
ATOM     34  C   LIG    1        2.380   1.415  -0.013  0.00  0.00    +0.158 A 
ATOM     35  C   LIG    1        2.399   0.024  -0.021  0.00  0.00    +0.158 A 
ATOM     36  C   LIG    1        1.207  -0.682  -0.013  0.00  0.00    +0.053 A 
ATOM     37  C   LIG    1        0.002  -0.004   0.002  0.00  0.00    -0.042 A 
BRANCH  35  38
ATOM     38  O   LIG    1        3.585  -0.642  -0.036  0.00  0.00    -0.503 OA
ATOM     39  H   LIG    1        3.937  -0.839   0.843  0.00  0.00    +0.292 HD
ENDBRANCH  35  38
BRANCH  34  40
ATOM     40  O   LIG    1        3.548   2.113  -0.021  0.00  0.00    -0.503 OA
ATOM     41  H   LIG    1        3.894   2.310   0.860  0.00  0.00    +0.292 HD
ENDBRANCH  34  40
ENDBRANCH  31  37
ENDBRANCH  30  31
ENDBRANCH  29  30
ENDBRANCH   1  29
TORSDOF 16
