REMARK  Name = ZINC36294324
REMARK                            x       y       z     vdW  Elec       q    Type
REMARK                         _______ _______ _______ _____ _____    ______ ____
ROOT
ATOM      1  C   LIG    1        1.229  -2.186  -0.022  0.00  0.00    +0.048 C 
ENDROOT
BRANCH   1   7
ATOM      2  C   LIG    1       -0.017   1.378   0.010  0.00  0.00    +0.000 A 
ATOM      3  C   LIG    1        1.171   2.086   0.002  0.00  0.00    +0.001 A 
ATOM      4  C   LIG    1        2.377   1.412  -0.013  0.00  0.00    +0.020 A 
ATOM      5  C   LIG    1        2.397   0.029  -0.021  0.00  0.00    +0.044 A 
ATOM      6 CL   LIG    1        3.912  -0.818  -0.041  0.00  0.00    -0.083 Cl
ATOM      7  C   LIG    1        1.208  -0.679  -0.013  0.00  0.00    -0.029 A 
ATOM      8  C   LIG    1        0.002  -0.004   0.002  0.00  0.00    +0.005 A 
ENDBRANCH   1   7
BRANCH   1   9
ATOM      9  C   LIG    1        1.376  -2.702   1.411  0.00  0.00    +0.128 C 
BRANCH   9  10
ATOM     10  C   LIG    1        1.396  -4.209   1.402  0.00  0.00    +0.239 C 
ATOM     11  N   LIG    1        0.303  -4.929   1.500  0.00  0.00    -0.276 N 
ATOM     12  H   LIG    1       -0.596  -4.575   1.586  0.00  0.00    +0.304 HD
ATOM     13  C   LIG    1        0.656  -6.357   1.460  0.00  0.00    +0.276 C 
ATOM     14  C   LIG    1        2.193  -6.336   1.318  0.00  0.00    +0.268 C 
ATOM     15  N   LIG    1        2.507  -4.898   1.291  0.00  0.00    -0.237 N 
ATOM     16  H   LIG    1        3.396  -4.520   1.205  0.00  0.00    +0.291 HD
ENDBRANCH   9  10
ENDBRANCH   1   9
TORSDOF 3
