REMARK  Name = ZINC00025447
REMARK                            x       y       z     vdW  Elec       q    Type
REMARK                         _______ _______ _______ _____ _____    ______ ____
ROOT
ATOM      1  C   LIG    1        3.699  -0.689  -0.037  0.00  0.00    -0.018 A 
ATOM      2  C   LIG    1        4.895   0.026  -0.040  0.00  0.00    +0.012 A 
ATOM      3  C   LIG    1        6.099  -0.648  -0.055  0.00  0.00    +0.046 A 
ATOM      4  C   LIG    1        6.119  -2.036  -0.068  0.00  0.00    +0.120 A 
ATOM      5  C   LIG    1        4.928  -2.750  -0.066  0.00  0.00    +0.046 A 
ATOM      6  C   LIG    1        3.722  -2.082  -0.045  0.00  0.00    +0.012 A 
ENDROOT
BRANCH   1  10
ATOM      7  C   LIG    1       -0.017   1.379   0.010  0.00  0.00    +0.000 A 
ATOM      8  C   LIG    1        1.169   2.092   0.002  0.00  0.00    +0.001 A 
ATOM      9  C   LIG    1        2.377   1.426  -0.013  0.00  0.00    +0.008 A 
ATOM     10  C   LIG    1        2.402   0.033  -0.021  0.00  0.00    -0.018 A 
ATOM     11  C   LIG    1        1.205  -0.680  -0.013  0.00  0.00    +0.008 A 
ATOM     12  C   LIG    1        0.002  -0.004   0.002  0.00  0.00    +0.001 A 
ENDBRANCH   1  10
BRANCH   4  13
ATOM     13  O   LIG    1        7.306  -2.696  -0.084  0.00  0.00    -0.494 OA
BRANCH  13  14
ATOM     14  C   LIG    1        7.254  -4.124  -0.097  0.00  0.00    +0.210 C 
BRANCH  14  15
ATOM     15  C   LIG    1        8.676  -4.687  -0.114  0.00  0.00    -0.037 C 
BRANCH  15  16
ATOM     16  N   LIG    1        9.357  -4.335   1.139  0.00  0.00    +0.382 N 
ATOM     17  H   LIG    1        9.302  -3.340   1.298  0.00  0.00    -0.082 HD
ATOM     18  C   LIG    1        8.748  -5.070   2.277  0.00  0.00    -0.079 C 
ATOM     19  C   LIG    1        9.866  -5.052   3.350  0.00  0.00    -0.020 C 
ATOM     20  C   LIG    1       11.153  -5.222   2.511  0.00  0.00    -0.020 C 
ATOM     21  C   LIG    1       10.771  -4.766   1.091  0.00  0.00    -0.079 C 
ENDBRANCH  15  16
ENDBRANCH  14  15
ENDBRANCH  13  14
ENDBRANCH   4  13
TORSDOF 5
