REMARK  Name = ZINC17967716
REMARK                            x       y       z     vdW  Elec       q    Type
REMARK                         _______ _______ _______ _____ _____    ______ ____
ROOT
ATOM      1  C   LIG    1       -2.139   1.802  -1.163  0.00  0.00    +0.066 C 
ATOM      2  C   LIG    1       -3.042   1.589   0.029  0.00  0.00    +0.144 C 
ATOM      3  N   LIG    1       -4.395   1.947  -0.412  0.00  0.00    -0.283 N 
ATOM      4  C   LIG    1       -4.324   2.328  -1.701  0.00  0.00    +0.282 C 
ATOM      5  O   LIG    1       -5.269   2.689  -2.374  0.00  0.00    -0.267 OA
ATOM      6  C   LIG    1       -2.925   2.246  -2.175  0.00  0.00    +0.188 C 
ENDROOT
BRANCH   2   7
ATOM      7  C   LIG    1       -3.003   0.144   0.457  0.00  0.00    -0.022 A 
ATOM      8  C   LIG    1       -3.722  -0.804  -0.246  0.00  0.00    +0.009 A 
ATOM      9  C   LIG    1       -3.688  -2.128   0.144  0.00  0.00    +0.046 A 
ATOM     10  C   LIG    1       -2.931  -2.507   1.244  0.00  0.00    +0.117 A 
ATOM     11  C   LIG    1       -2.210  -1.554   1.948  0.00  0.00    +0.046 A 
ATOM     12  C   LIG    1       -2.243  -0.231   1.550  0.00  0.00    +0.009 A 
BRANCH  10  13
ATOM     13  O   LIG    1       -2.897  -3.809   1.630  0.00  0.00    -0.507 OA
ATOM     14  H   LIG    1       -2.191  -4.324   1.216  0.00  0.00    +0.292 HD
ENDBRANCH  10  13
ENDBRANCH   2   7
BRANCH   1  16
ATOM     15  C   LIG    1       -0.013   1.086   0.008  0.00  0.00    +0.091 C 
ATOM     16  C   LIG    1       -0.742   1.585  -1.213  0.00  0.00    +0.162 C 
ATOM     17  O   LIG    1       -0.130   1.801  -2.239  0.00  0.00    -0.292 OA
ENDBRANCH   1  16
BRANCH   6  18
ATOM     18  O   LIG    1       -2.499   2.561  -3.418  0.00  0.00    -0.502 OA
ATOM     19  H   LIG    1       -1.592   2.481  -3.637  0.00  0.00    +0.292 HD
ENDBRANCH   6  18
BRANCH   3  20
ATOM     20  C   LIG    1       -5.609   1.899   0.406  0.00  0.00    +0.114 C 
BRANCH  20  21
ATOM     21  C   LIG    1       -5.806   3.245   1.106  0.00  0.00    +0.056 C 
BRANCH  21  22
ATOM     22  C   LIG    1       -7.056   3.195   1.948  0.00  0.00    -0.021 A 
ATOM     23  C   LIG    1       -8.281   3.603   1.583  0.00  0.00    +0.087 A 
ATOM     24  N   LIG    1       -9.164   3.402   2.609  0.00  0.00    -0.360 N 
ATOM     25  C   LIG    1       -8.512   2.847   3.687  0.00  0.00    +0.047 A 
ATOM     26  C   LIG    1       -8.923   2.451   4.955  0.00  0.00    +0.026 A 
ATOM     27  C   LIG    1       -8.011   1.899   5.829  0.00  0.00    +0.002 A 
ATOM     28  C   LIG    1       -6.681   1.747   5.461  0.00  0.00    +0.001 A 
ATOM     29  C   LIG    1       -6.255   2.134   4.222  0.00  0.00    +0.010 A 
ATOM     30  H   LIG    1      -10.109   3.619   2.581  0.00  0.00    +0.165 HD
ATOM     31  C   LIG    1       -7.163   2.687   3.318  0.00  0.00    +0.003 A 
ENDBRANCH  21  22
ENDBRANCH  20  21
ENDBRANCH   3  20
TORSDOF 7
