REMARK  Name = ZINC28604289
REMARK                            x       y       z     vdW  Elec       q    Type
REMARK                         _______ _______ _______ _____ _____    ______ ____
ROOT
ATOM      1  C   LIG    1        2.366   7.818   0.260  0.00  0.00    +0.035 A 
ATOM      2  C   LIG    1        3.585   7.160   0.145  0.00  0.00    +0.024 A 
ATOM      3  C   LIG    1        4.760   7.881   0.129  0.00  0.00    +0.010 A 
ATOM      4  C   LIG    1        4.725   9.271   0.240  0.00  0.00    -0.017 A 
ATOM      5  C   LIG    1        3.501   9.928   0.361  0.00  0.00    +0.010 A 
ATOM      6  C   LIG    1        2.329   9.203   0.371  0.00  0.00    +0.024 A 
ENDROOT
BRANCH   4   7
ATOM      7  C   LIG    1        5.987  10.048   0.230  0.00  0.00    -0.005 A 
ATOM      8  C   LIG    1        6.295  10.896   1.284  0.00  0.00    +0.009 A 
ATOM      9  C   LIG    1        7.478  11.620   1.277  0.00  0.00    +0.003 A 
ATOM     10  C   LIG    1        8.360  11.519   0.224  0.00  0.00    +0.030 A 
ATOM     11  C   LIG    1        8.074  10.680  -0.851  0.00  0.00    +0.095 A 
ATOM     12  N   LIG    1        8.734  10.373  -2.013  0.00  0.00    -0.172 NA
ATOM     13  N   LIG    1        7.975   9.452  -2.742  0.00  0.00    -0.263 N 
ATOM     14  H   LIG    1        8.180   8.980  -3.715  0.00  0.00    +0.190 HD
ATOM     15  C   LIG    1        6.876   9.167  -2.096  0.00  0.00    +0.120 A 
ATOM     16  C   LIG    1        6.880   9.936  -0.853  0.00  0.00    +0.049 A 
BRANCH  15  17
ATOM     17  N   LIG    1        5.875   8.286  -2.517  0.00  0.00    -0.343 N 
ATOM     18  H   LIG    1        4.987   8.122  -1.890  0.00  0.00    +0.144 HD
ATOM     19  H   LIG    1        5.977   7.758  -3.477  0.00  0.00    +0.144 HD
ENDBRANCH  15  17
ENDBRANCH   4   7
BRANCH   1  23
ATOM     20  N   LIG    1       -0.120   5.329  -0.560  0.00  0.00    -0.269 N 
ATOM     21  H   LIG    1       -1.007   5.746  -0.061  0.00  0.00    +0.156 HD
ATOM     22  C   LIG    1        1.059   5.979  -0.492  0.00  0.00    +0.308 C 
ATOM     23  N   LIG    1        1.175   7.085   0.269  0.00  0.00    -0.269 N 
ATOM     24  H   LIG    1        0.334   7.411   0.898  0.00  0.00    +0.156 HD
ATOM     25  O   LIG    1        2.017   5.567  -1.117  0.00  0.00    -0.252 OA
BRANCH  20  31
ATOM     26  C   LIG    1       -2.059   0.835  -1.019  0.00  0.00    +0.044 C 
ATOM     27  C   LIG    1       -1.147   1.929  -1.510  0.00  0.00    -0.049 A 
ATOM     28  C   LIG    1       -0.402   1.742  -2.661  0.00  0.00    +0.003 A 
ATOM     29  C   LIG    1        0.432   2.745  -3.118  0.00  0.00    +0.002 A 
ATOM     30  C   LIG    1        0.528   3.936  -2.424  0.00  0.00    +0.023 A 
ATOM     31  C   LIG    1       -0.215   4.124  -1.266  0.00  0.00    +0.035 A 
ATOM     32  C   LIG    1       -1.052   3.114  -0.809  0.00  0.00    +0.026 A 
ENDBRANCH  20  31
ENDBRANCH   1  23
TORSDOF 4
