REMARK  Name = ZINC28771884
REMARK                            x       y       z     vdW  Elec       q    Type
REMARK                         _______ _______ _______ _____ _____    ______ ____
ROOT
ATOM      1  C   LIG    1       -3.742  -0.424   2.301  0.00  0.00    -0.007 C 
ENDROOT
BRANCH   1   2
ATOM      2  N   LIG    1       -4.402  -1.680   1.923  0.00  0.00    +0.385 N 
ATOM      3  H   LIG    1       -5.137  -1.484   1.128  0.00  0.00    -0.089 HD
ATOM      4  H   LIG    1       -3.649  -2.394   1.558  0.00  0.00    -0.089 HD
ATOM      5  H   LIG    1       -4.914  -2.104   2.799  0.00  0.00    -0.089 HD
ENDBRANCH   1   2
BRANCH   1   6
ATOM      6  C   LIG    1       -3.040   0.156   1.100  0.00  0.00    +0.120 C 
ATOM      7  O   LIG    1       -2.850  -0.527   0.123  0.00  0.00    -0.299 OA
BRANCH   6   8
ATOM      8  C   LIG    1       -2.575   1.590   1.119  0.00  0.00    +0.087 C 
BRANCH   8   9
ATOM      9  C   LIG    1       -1.899   1.924  -0.212  0.00  0.00    +0.109 C 
BRANCH   9  10
ATOM     10  C   LIG    1       -0.646   1.101  -0.360  0.00  0.00    +0.309 C 
ATOM     11  O   LIG    1        0.425   1.647  -0.482  0.00  0.00    -0.251 OA
BRANCH  10  12
ATOM     12  O   LIG    1       -0.719  -0.240  -0.361  0.00  0.00    -0.480 OA
ATOM     13  H   LIG    1       -1.550  -0.663  -0.266  0.00  0.00    +0.295 HD
ENDBRANCH  10  12
ENDBRANCH   9  10
BRANCH   9  14
ATOM     14  C   LIG    1       -1.539   3.411  -0.242  0.00  0.00    +0.050 C 
BRANCH  14  18
ATOM     15  C   LIG    1        0.030   4.419  -4.085  0.00  0.00    +0.000 A 
ATOM     16  C   LIG    1       -1.328   4.516  -3.846  0.00  0.00    +0.000 A 
ATOM     17  C   LIG    1       -1.836   4.189  -2.603  0.00  0.00    +0.003 A 
ATOM     18  C   LIG    1       -0.986   3.766  -1.598  0.00  0.00    -0.047 A 
ATOM     19  C   LIG    1        0.373   3.675  -1.836  0.00  0.00    +0.003 A 
ATOM     20  C   LIG    1        0.880   3.997  -3.081  0.00  0.00    +0.000 A 
ENDBRANCH  14  18
ENDBRANCH   9  14
ENDBRANCH   8   9
ENDBRANCH   6   8
ENDBRANCH   1   6
BRANCH   1  21
ATOM     21  C   LIG    1       -2.720  -0.697   3.406  0.00  0.00    -0.006 C 
BRANCH  21  22
ATOM     22  C   LIG    1       -3.446  -1.169   4.668  0.00  0.00    +0.036 C 
BRANCH  22  23
ATOM     23  C   LIG    1       -2.424  -1.442   5.773  0.00  0.00    +0.195 C 
BRANCH  23  24
ATOM     24  N   LIG    1       -3.120  -1.894   6.981  0.00  0.00    -0.279 N 
ATOM     25  H   LIG    1       -3.825  -1.222   7.492  0.00  0.00    +0.258 HD
ATOM     26  C   LIG    1       -2.903  -3.091   7.449  0.00  0.00    +0.341 C 
BRANCH  26  27
ATOM     27  N   LIG    1       -3.648  -3.562   8.504  0.00  0.00    -0.292 N 
ATOM     28  H   LIG    1       -4.428  -2.929   8.952  0.00  0.00    +0.255 HD
ATOM     29  H   LIG    1       -3.465  -4.572   8.899  0.00  0.00    +0.255 HD
ENDBRANCH  26  27
BRANCH  26  30
ATOM     30  N   LIG    1       -1.928  -3.882   6.888  0.00  0.00    -0.292 N 
ATOM     31  H   LIG    1       -1.332  -3.505   6.044  0.00  0.00    +0.255 HD
ATOM     32  H   LIG    1       -1.745  -4.892   7.284  0.00  0.00    +0.255 HD
ENDBRANCH  26  30
ENDBRANCH  23  24
ENDBRANCH  22  23
ENDBRANCH  21  22
ENDBRANCH   1  21
TORSDOF 14
