REMARK  Name = ZINC40860738
REMARK                            x       y       z     vdW  Elec       q    Type
REMARK                         _______ _______ _______ _____ _____    ______ ____
ROOT
ATOM      1  N   LIG    1        4.872  -2.834   0.137  0.00  0.00    -0.313 N 
ATOM      2  H   LIG    1        5.009  -3.318  -0.692  0.00  0.00    +0.149 HD
ENDROOT
BRANCH   1   3
ATOM      3  C   LIG    1        5.865  -2.804   1.088  0.00  0.00    +0.172 A 
ATOM      4  N   LIG    1        5.780  -2.177   2.259  0.00  0.00    -0.328 N 
ATOM      5  C   LIG    1        6.954  -2.367   2.939  0.00  0.00    +0.065 A 
ATOM      6  C   LIG    1        7.425  -1.955   4.182  0.00  0.00    +0.028 A 
ATOM      7  C   LIG    1        8.689  -2.321   4.592  0.00  0.00    +0.002 A 
ATOM      8  C   LIG    1        9.496  -3.097   3.773  0.00  0.00    +0.002 A 
ATOM      9  C   LIG    1        9.046  -3.513   2.539  0.00  0.00    +0.028 A 
ATOM     10  C   LIG    1        7.772  -3.153   2.110  0.00  0.00    +0.065 A 
ATOM     11  H   LIG    1        5.015  -1.672   2.578  0.00  0.00    +0.169 HD
ATOM     12  N   LIG    1        7.048  -3.403   0.974  0.00  0.00    -0.328 N 
ATOM     13  H   LIG    1        7.348  -3.926   0.214  0.00  0.00    +0.169 HD
ENDBRANCH   1   3
BRANCH   1  21
ATOM     14  C   LIG    1       -0.017   1.375   0.010  0.00  0.00    +0.000 A 
ATOM     15  C   LIG    1        1.174   2.078   0.002  0.00  0.00    +0.000 A 
ATOM     16  C   LIG    1        2.372   1.395  -0.016  0.00  0.00    +0.004 A 
ATOM     17  C   LIG    1        2.393   0.006  -0.025  0.00  0.00    -0.042 A 
ATOM     18  C   LIG    1        1.208  -0.694  -0.013  0.00  0.00    -0.044 A 
ATOM     19  C   LIG    1        1.155  -2.199  -0.005  0.00  0.00    +0.037 C 
ATOM     20  C   LIG    1        2.493  -2.786  -0.452  0.00  0.00    +0.027 C 
ATOM     21  C   LIG    1        3.607  -2.135   0.376  0.00  0.00    +0.078 C 
ATOM     22  C   LIG    1        3.736  -0.675  -0.053  0.00  0.00    +0.057 C 
ATOM     23  C   LIG    1        0.002  -0.004   0.002  0.00  0.00    +0.004 A 
ENDBRANCH   1  21
TORSDOF 2
