REMARK  Name = ZINC14954335
REMARK                            x       y       z     vdW  Elec       q    Type
REMARK                         _______ _______ _______ _____ _____    ______ ____
ROOT
ATOM      1  C   LIG    1       -3.612  -1.539   5.600  0.00  0.00    +0.132 A 
ATOM      2  C   LIG    1       -4.789  -2.122   5.152  0.00  0.00    +0.046 A 
ATOM      3  C   LIG    1       -5.752  -2.523   6.058  0.00  0.00    +0.005 A 
ATOM      4  C   LIG    1       -5.547  -2.346   7.413  0.00  0.00    +0.023 A 
ATOM      5  C   LIG    1       -4.370  -1.763   7.867  0.00  0.00    +0.037 A 
ATOM      6  C   LIG    1       -3.400  -1.363   6.959  0.00  0.00    +0.069 A 
ENDROOT
BRANCH   5   7
ATOM      7  N   LIG    1       -4.162  -1.583   9.239  0.00  0.00    -0.281 N 
ATOM      8  H   LIG    1       -4.496  -2.239   9.870  0.00  0.00    +0.155 HD
ATOM      9  C   LIG    1       -3.499  -0.497   9.683  0.00  0.00    +0.248 C 
ATOM     10  O   LIG    1       -3.006   0.281   8.889  0.00  0.00    -0.270 OA
BRANCH   9  11
ATOM     11  C   LIG    1       -3.369  -0.253  11.132  0.00  0.00    +0.037 A 
ATOM     12  C   LIG    1       -3.930  -1.150  12.046  0.00  0.00    +0.016 A 
ATOM     13  C   LIG    1       -3.807  -0.918  13.398  0.00  0.00    +0.046 A 
ATOM     14  C   LIG    1       -3.127   0.205  13.854  0.00  0.00    +0.121 A 
ATOM     15  C   LIG    1       -2.569   1.099  12.948  0.00  0.00    +0.046 A 
ATOM     16  C   LIG    1       -2.682   0.872  11.595  0.00  0.00    +0.016 A 
BRANCH  14  17
ATOM     17  O   LIG    1       -3.009   0.429  15.187  0.00  0.00    -0.491 OA
BRANCH  17  18
ATOM     18  C   LIG    1       -2.297   1.602  15.587  0.00  0.00    +0.244 C 
BRANCH  18  19
ATOM     19  C   LIG    1       -2.268   1.685  17.114  0.00  0.00    +0.125 C 
BRANCH  19  20
ATOM     20  N   LIG    1       -1.487   0.562  17.651  0.00  0.00    -0.295 NA
ATOM     21  C   LIG    1       -1.798   0.334  19.069  0.00  0.00    +0.112 C 
ATOM     22  C   LIG    1       -1.010  -0.879  19.571  0.00  0.00    +0.175 C 
ATOM     23  O   LIG    1        0.386  -0.657  19.352  0.00  0.00    -0.377 OA
ATOM     24  C   LIG    1        0.725  -0.432  17.980  0.00  0.00    +0.175 C 
ATOM     25  C   LIG    1       -0.046   0.785  17.463  0.00  0.00    +0.112 C 
ENDBRANCH  19  20
ENDBRANCH  18  19
ENDBRANCH  17  18
ENDBRANCH  14  17
ENDBRANCH   9  11
ENDBRANCH   5   7
BRANCH   1  26
ATOM     26  O   LIG    1       -2.666  -1.145   4.708  0.00  0.00    -0.438 OA
BRANCH  26  30
ATOM     27  N   LIG    1       -1.430   2.400   1.549  0.00  0.00    -0.322 N 
ATOM     28  C   LIG    1       -2.144   1.644   2.448  0.00  0.00    +0.076 A 
ATOM     29  C   LIG    1       -1.901   0.478   3.163  0.00  0.00    +0.095 A 
ATOM     30  C   LIG    1       -2.889  -0.006   4.003  0.00  0.00    +0.223 A 
ATOM     31  N   LIG    1       -4.051   0.622   4.131  0.00  0.00    -0.219 NA
ATOM     32  C   LIG    1       -4.328   1.729   3.475  0.00  0.00    +0.144 A 
ATOM     33  C   LIG    1       -3.389   2.289   2.606  0.00  0.00    +0.108 A 
ATOM     34  N   LIG    1       -3.373   3.385   1.812  0.00  0.00    -0.224 NA
ATOM     35  C   LIG    1       -2.222   3.461   1.191  0.00  0.00    +0.167 A 
BRANCH  35  36
ATOM     36  C   LIG    1       -1.837   4.529   0.243  0.00  0.00    +0.190 A 
ATOM     37  C   LIG    1       -2.668   5.674  -0.148  0.00  0.00    +0.191 A 
ATOM     38  N   LIG    1       -1.994   6.398  -0.999  0.00  0.00    -0.033 NA
ATOM     39  O   LIG    1       -0.735   5.781  -1.197  0.00  0.00    -0.240 OA
ATOM     40  N   LIG    1       -0.694   4.618  -0.388  0.00  0.00    -0.044 NA
BRANCH  37  41
ATOM     41  N   LIG    1       -3.952   5.940   0.309  0.00  0.00    -0.339 N 
ATOM     42  H   LIG    1       -4.426   6.725  -0.007  0.00  0.00    +0.144 HD
ATOM     43  H   LIG    1       -4.375   5.341   0.944  0.00  0.00    +0.144 HD
ENDBRANCH  37  41
ENDBRANCH  35  36
BRANCH  27  45
ATOM     44  C   LIG    1        0.941   2.807   1.992  0.00  0.00    +0.027 C 
ATOM     45  C   LIG    1       -0.073   2.128   1.069  0.00  0.00    +0.120 C 
ENDBRANCH  27  45
ENDBRANCH  26  30
ENDBRANCH   1  26
TORSDOF 11
