REMARK  Name = ZINC48551259
REMARK                            x       y       z     vdW  Elec       q    Type
REMARK                         _______ _______ _______ _____ _____    ______ ____
ROOT
ATOM      1  C   LIG    1        1.246   3.538   0.009  0.00  0.00    +0.248 C 
ATOM      2  N   LIG    1        2.427   4.178  -0.101  0.00  0.00    -0.298 N 
ATOM      3  C   LIG    1        3.679   3.421  -0.234  0.00  0.00    +0.106 C 
ATOM      4  C   LIG    1        4.657   3.891   0.848  0.00  0.00    +0.004 C 
ATOM      5  C   LIG    1        4.827   5.409   0.751  0.00  0.00    -0.066 C 
ATOM      6  C   LIG    1        3.478   6.091   0.990  0.00  0.00    +0.004 C 
ATOM      7  C   LIG    1        2.486   5.646  -0.096  0.00  0.00    +0.106 C 
ATOM      8  O   LIG    1        1.218   2.327   0.110  0.00  0.00    -0.270 OA
ENDROOT
BRANCH   1  10
ATOM      9  C   LIG    1       -0.186   5.392  -0.865  0.00  0.00    +0.031 A 
ATOM     10  C   LIG    1       -0.016   4.309   0.006  0.00  0.00    +0.056 A 
ATOM     11  C   LIG    1       -1.056   3.970   0.871  0.00  0.00    +0.123 A 
ATOM     12  N   LIG    1       -2.181   4.655   0.869  0.00  0.00    -0.261 NA
ATOM     13  C   LIG    1       -2.370   5.680   0.059  0.00  0.00    +0.126 A 
ATOM     14  C   LIG    1       -1.387   6.080  -0.829  0.00  0.00    +0.037 A 
ATOM     15 BR   LIG    1       -1.680   7.553  -1.979  0.00  0.00    -0.049 Br
ENDBRANCH   1  10
BRANCH   5  16
ATOM     16  N   LIG    1        5.789   5.859   1.766  0.00  0.00    +0.382 N 
ATOM     17  H   LIG    1        5.473   5.596   2.687  0.00  0.00    -0.081 HD
ATOM     18  C   LIG    1        7.128   5.275   1.496  0.00  0.00    -0.079 C 
ATOM     19  C   LIG    1        8.090   6.236   2.239  0.00  0.00    -0.020 C 
ATOM     20  C   LIG    1        7.442   7.621   2.007  0.00  0.00    -0.020 C 
ATOM     21  C   LIG    1        5.965   7.325   1.686  0.00  0.00    -0.079 C 
ENDBRANCH   5  16
TORSDOF 2
