REMARK  Name = ZINC13779556
REMARK                            x       y       z     vdW  Elec       q    Type
REMARK                         _______ _______ _______ _____ _____    ______ ____
ROOT
ATOM      1  C   LIG    1        3.888   2.875  -1.208  0.00  0.00    +0.008 C 
ATOM      2  C   LIG    1        3.798   1.927  -0.011  0.00  0.00    -0.009 C 
ATOM      3  C   LIG    1        4.998   0.979  -0.020  0.00  0.00    +0.004 C 
ATOM      4  C   LIG    1        4.908   0.031   1.178  0.00  0.00    +0.000 C 
ATOM      5  C   LIG    1        3.615  -0.782   1.089  0.00  0.00    +0.000 C 
ATOM      6  C   LIG    1        2.415   0.167   1.098  0.00  0.00    +0.006 C 
ATOM      7  C   LIG    1        2.505   1.115  -0.099  0.00  0.00    -0.032 C 
ENDROOT
BRANCH   7   8
ATOM      8  C   LIG    1        2.502   0.301  -1.395  0.00  0.00    -0.079 C 
BRANCH   8   9
ATOM      9  N   LIG    1        1.222  -0.422  -1.502  0.00  0.00    +0.378 N 
ATOM     10  H   LIG    1        0.448   0.249  -1.432  0.00  0.00    -0.090 HD
ATOM     11  H   LIG    1        1.142  -1.103  -0.749  0.00  0.00    -0.090 HD
ATOM     12  H   LIG    1        1.166  -0.902  -2.399  0.00  0.00    -0.090 HD
ENDBRANCH   8   9
ENDBRANCH   7   8
BRANCH   7  13
ATOM     13  C   LIG    1        1.304   2.063  -0.090  0.00  0.00    +0.125 C 
BRANCH  13  14
ATOM     14  C   LIG    1        1.340   2.907   1.158  0.00  0.00    +0.305 C 
ATOM     15  O   LIG    1        2.175   2.696   2.006  0.00  0.00    -0.251 OA
BRANCH  14  16
ATOM     16  O   LIG    1        0.442   3.889   1.330  0.00  0.00    -0.481 OA
ATOM     17  H   LIG    1       -0.205   4.053   0.673  0.00  0.00    +0.295 HD
ENDBRANCH  14  16
ENDBRANCH  13  14
ENDBRANCH   7  13
TORSDOF 5
