REMARK  Name = ZINC34802036
REMARK                            x       y       z     vdW  Elec       q    Type
REMARK                         _______ _______ _______ _____ _____    ______ ____
ROOT
ATOM      1  C   LIG    1       -2.083   0.619   1.452  0.00  0.00    +0.179 C 
ENDROOT
BRANCH   1   2
ATOM      2  C   LIG    1       -1.208   0.385   2.685  0.00  0.00    +0.420 C 
ATOM      3  F   LIG    1       -1.142  -0.986   2.956  0.00  0.00    -0.168 F 
ATOM      4  F   LIG    1       -1.762   1.051   3.784  0.00  0.00    -0.168 F 
ATOM      5  F   LIG    1        0.079   0.875   2.443  0.00  0.00    -0.168 F 
ENDBRANCH   1   2
BRANCH   1   6
ATOM      6  O   LIG    1       -2.200   2.023   1.211  0.00  0.00    -0.378 OA
ATOM      7  H   LIG    1       -2.743   2.246   0.442  0.00  0.00    +0.211 HD
ENDBRANCH   1   6
BRANCH   1   8
ATOM      8  C   LIG    1       -1.444  -0.056   0.237  0.00  0.00    +0.056 C 
BRANCH   8  10
ATOM      9  C   LIG    1        0.198   0.497  -1.563  0.00  0.00    +0.016 C 
ATOM     10  C   LIG    1       -0.100   0.610  -0.067  0.00  0.00    -0.003 C 
ATOM     11  C   LIG    1       -0.160   2.086   0.332  0.00  0.00    +0.016 C 
BRANCH  10  12
ATOM     12  C   LIG    1        0.989  -0.078   0.715  0.00  0.00    +0.003 A 
ATOM     13  C   LIG    1        0.709  -1.232   1.423  0.00  0.00    +0.046 A 
ATOM     14  C   LIG    1        1.710  -1.864   2.141  0.00  0.00    +0.124 A 
ATOM     15  F   LIG    1        1.435  -2.991   2.832  0.00  0.00    -0.205 F 
ATOM     16  C   LIG    1        2.992  -1.341   2.152  0.00  0.00    +0.042 A 
ATOM     17  C   LIG    1        3.275  -0.188   1.446  0.00  0.00    +0.049 A 
ATOM     18  C   LIG    1        2.275   0.443   0.721  0.00  0.00    +0.124 A 
BRANCH  18  19
ATOM     19  O   LIG    1        2.553   1.575   0.021  0.00  0.00    -0.495 OA
ATOM     20  C   LIG    1        3.898   2.055   0.072  0.00  0.00    +0.277 C 
ENDBRANCH  18  19
ENDBRANCH  10  12
ENDBRANCH   8  10
ENDBRANCH   1   8
BRANCH   1  21
ATOM     21  C   LIG    1       -3.473   0.025   1.693  0.00  0.00    +0.167 C 
BRANCH  21  22
ATOM     22  N   LIG    1       -4.085   0.671   2.856  0.00  0.00    -0.328 N 
ATOM     23  C   LIG    1       -3.893   0.157   4.083  0.00  0.00    +0.203 A 
ATOM     24  N   LIG    1       -4.402   0.673   5.167  0.00  0.00    -0.199 NA
ATOM     25  C   LIG    1       -5.172   1.778   5.132  0.00  0.00    +0.281 A 
ATOM     26  C   LIG    1       -5.430   2.401   3.822  0.00  0.00    +0.065 A 
ATOM     27  C   LIG    1       -6.214   3.545   3.688  0.00  0.00    +0.015 A 
ATOM     28  C   LIG    1       -6.409   4.091   2.438  0.00  0.00    +0.001 A 
ATOM     29  C   LIG    1       -5.843   3.502   1.317  0.00  0.00    +0.002 A 
ATOM     30  C   LIG    1       -5.068   2.367   1.433  0.00  0.00    +0.026 A 
ATOM     31  O   LIG    1       -5.641   2.248   6.154  0.00  0.00    -0.265 OA
ATOM     32  C   LIG    1       -4.852   1.807   2.685  0.00  0.00    +0.055 A 
ENDBRANCH  21  22
ENDBRANCH   1  21
TORSDOF 8
