REMARK  Name = ZINC00031235
REMARK                            x       y       z     vdW  Elec       q    Type
REMARK                         _______ _______ _______ _____ _____    ______ ____
ROOT
ATOM      1  N   LIG    1        1.219  -2.072   0.146  0.00  0.00    -0.269 N 
ATOM      2  H   LIG    1        2.049  -2.532  -0.056  0.00  0.00    +0.156 HD
ATOM      3  C   LIG    1        0.072  -2.771   0.258  0.00  0.00    +0.308 C 
ATOM      4  N   LIG    1        0.092  -4.117   0.183  0.00  0.00    -0.269 N 
ATOM      5  H   LIG    1        0.939  -4.586   0.123  0.00  0.00    +0.156 HD
ATOM      6  O   LIG    1       -0.982  -2.188   0.427  0.00  0.00    -0.252 OA
ENDROOT
BRANCH   1  11
ATOM      7  C   LIG    1        2.289   1.316   1.105  0.00  0.00    +0.003 A 
ATOM      8  C   LIG    1        1.216   2.070   0.675  0.00  0.00    +0.016 A 
ATOM      9  C   LIG    1        0.128   1.447   0.062  0.00  0.00    +0.063 A 
ATOM     10  C   LIG    1        0.129   0.064  -0.114  0.00  0.00    +0.039 A 
ATOM     11  C   LIG    1        1.212  -0.684   0.321  0.00  0.00    +0.036 A 
ATOM     12  C   LIG    1        2.291  -0.055   0.931  0.00  0.00    +0.023 A 
BRANCH   9  13
ATOM     13  C   LIG    1       -1.025   2.253  -0.399  0.00  0.00    +0.266 C 
ATOM     14  N   LIG    1       -1.346   3.379   0.235  0.00  0.00    -0.288 N 
ATOM     15  H   LIG    1       -2.102   3.907  -0.067  0.00  0.00    +0.301 HD
ATOM     16  H   LIG    1       -0.825   3.671   0.999  0.00  0.00    +0.301 HD
BRANCH  13  17
ATOM     17  N   LIG    1       -1.741   1.852  -1.447  0.00  0.00    -0.250 N 
ATOM     18  H   LIG    1       -2.496   2.380  -1.749  0.00  0.00    +0.288 HD
ATOM     19  H   LIG    1       -1.507   1.031  -1.909  0.00  0.00    +0.288 HD
ENDBRANCH  13  17
ENDBRANCH   9  13
ENDBRANCH   1  11
BRANCH   4  20
ATOM     20  C   LIG    1       -1.108  -4.837   0.191  0.00  0.00    +0.036 A 
ATOM     21  C   LIG    1       -2.245  -4.299  -0.401  0.00  0.00    +0.023 A 
ATOM     22  C   LIG    1       -3.432  -5.006  -0.395  0.00  0.00    +0.003 A 
ATOM     23  C   LIG    1       -3.497  -6.250   0.199  0.00  0.00    +0.016 A 
ATOM     24  C   LIG    1       -2.362  -6.798   0.796  0.00  0.00    +0.063 A 
ATOM     25  C   LIG    1       -1.162  -6.088   0.785  0.00  0.00    +0.039 A 
BRANCH  24  26
ATOM     26  C   LIG    1       -2.429  -8.132   1.434  0.00  0.00    +0.266 C 
ATOM     27  N   LIG    1       -3.569  -8.553   1.977  0.00  0.00    -0.288 N 
ATOM     28  H   LIG    1       -3.613  -9.428   2.395  0.00  0.00    +0.301 HD
ATOM     29  H   LIG    1       -4.356  -7.987   1.954  0.00  0.00    +0.301 HD
BRANCH  26  30
ATOM     30  N   LIG    1       -1.349  -8.910   1.464  0.00  0.00    -0.250 N 
ATOM     31  H   LIG    1       -1.393  -9.784   1.883  0.00  0.00    +0.288 HD
ATOM     32  H   LIG    1       -0.518  -8.603   1.069  0.00  0.00    +0.288 HD
ENDBRANCH  26  30
ENDBRANCH  24  26
ENDBRANCH   4  20
TORSDOF 6
