REMARK  Name = ZINC15776492
REMARK                            x       y       z     vdW  Elec       q    Type
REMARK                         _______ _______ _______ _____ _____    ______ ____
ROOT
ATOM      1  N   LIG    1        2.006  -2.691  -2.693  0.00  0.00    -0.260 NA
ENDROOT
BRANCH   1   2
ATOM      2  C   LIG    1        1.096  -3.687  -2.111  0.00  0.00    +0.260 C 
BRANCH   2   3
ATOM      3  S   LIG    1        1.996  -4.691  -0.898  0.00  0.00    +0.010 S 
ATOM      4  O   LIG    1        1.130  -5.662  -0.328  0.00  0.00    -0.168 OA
ATOM      5  O   LIG    1        3.264  -5.067  -1.418  0.00  0.00    -0.168 OA
BRANCH   3  10
ATOM      6  C   LIG    1        3.251  -0.903   3.628  0.00  0.00    +0.044 C 
ATOM      7  C   LIG    1        2.938  -1.849   2.497  0.00  0.00    -0.050 A 
ATOM      8  C   LIG    1        1.719  -2.501   2.459  0.00  0.00    +0.005 A 
ATOM      9  C   LIG    1        1.432  -3.368   1.422  0.00  0.00    +0.027 A 
ATOM     10  C   LIG    1        2.362  -3.584   0.423  0.00  0.00    +0.090 A 
ATOM     11  C   LIG    1        3.581  -2.932   0.461  0.00  0.00    +0.027 A 
ATOM     12  C   LIG    1        3.868  -2.064   1.498  0.00  0.00    +0.005 A 
ENDBRANCH   3  10
ENDBRANCH   2   3
ENDBRANCH   1   2
BRANCH   1  13
ATOM     13  C   LIG    1        2.440  -3.096  -4.037  0.00  0.00    +0.260 C 
BRANCH  13  14
ATOM     14  S   LIG    1        4.011  -2.280  -4.436  0.00  0.00    +0.010 S 
ATOM     15  O   LIG    1        3.934  -0.895  -4.130  0.00  0.00    -0.168 OA
ATOM     16  O   LIG    1        4.481  -2.718  -5.703  0.00  0.00    -0.168 OA
BRANCH  14  17
ATOM     17  C   LIG    1        5.167  -2.933  -3.277  0.00  0.00    +0.090 A 
ATOM     18  C   LIG    1        5.499  -2.208  -2.148  0.00  0.00    +0.027 A 
ATOM     19  C   LIG    1        6.402  -2.722  -1.237  0.00  0.00    +0.005 A 
ATOM     20  C   LIG    1        6.982  -3.957  -1.460  0.00  0.00    -0.050 A 
ATOM     21  C   LIG    1        7.971  -4.515  -0.469  0.00  0.00    +0.044 C 
ATOM     22  C   LIG    1        6.654  -4.680  -2.592  0.00  0.00    +0.005 A 
ATOM     23  C   LIG    1        5.747  -4.168  -3.501  0.00  0.00    +0.027 A 
ENDBRANCH  14  17
ENDBRANCH  13  14
ENDBRANCH   1  13
BRANCH   1  24
ATOM     24  C   LIG    1        1.382  -1.361  -2.721  0.00  0.00    +0.122 C 
BRANCH  24  25
ATOM     25  C   LIG    1        1.415  -0.762  -1.338  0.00  0.00    -0.033 A 
ATOM     26  C   LIG    1        0.314  -0.873  -0.510  0.00  0.00    +0.005 A 
ATOM     27  C   LIG    1        0.346  -0.327   0.760  0.00  0.00    +0.000 A 
ATOM     28  C   LIG    1        1.476   0.337   1.198  0.00  0.00    +0.000 A 
ATOM     29  C   LIG    1        2.575   0.453   0.368  0.00  0.00    +0.000 A 
ATOM     30  C   LIG    1        2.545  -0.097  -0.900  0.00  0.00    +0.005 A 
ENDBRANCH  24  25
ENDBRANCH   1  24
TORSDOF 8
