REMARK  Name = ZINC19168421
REMARK                            x       y       z     vdW  Elec       q    Type
REMARK                         _______ _______ _______ _____ _____    ______ ____
ROOT
ATOM      1  C   LIG    1       -0.017   1.377   0.010  0.00  0.00    +0.004 A 
ATOM      2  C   LIG    1        1.171   2.086   0.002  0.00  0.00    +0.002 A 
ATOM      3  C   LIG    1        2.379   1.415  -0.013  0.00  0.00    -0.059 A 
ATOM      4  C   LIG    1        2.403   0.033  -0.021  0.00  0.00    +0.047 A 
ATOM      5  C   LIG    1        1.214  -0.680  -0.013  0.00  0.00    +0.117 A 
ATOM      6  C   LIG    1        0.002  -0.004   0.002  0.00  0.00    +0.045 A 
ENDROOT
BRANCH   5   7
ATOM      7  O   LIG    1        1.235  -2.039  -0.021  0.00  0.00    -0.507 OA
ATOM      8  H   LIG    1        1.249  -2.437   0.860  0.00  0.00    +0.292 HD
ENDBRANCH   5   7
BRANCH   3   9
ATOM      9  C   LIG    1        3.671   2.190  -0.021  0.00  0.00    -0.024 C 
BRANCH   9  10
ATOM     10  N   LIG    1        4.104   2.435   1.361  0.00  0.00    +0.388 N 
ATOM     11  H   LIG    1        4.244   1.553   1.831  0.00  0.00    -0.061 HD
ATOM     12  H   LIG    1        3.396   2.965   1.846  0.00  0.00    -0.061 HD
BRANCH  10  13
ATOM     13  N   LIG    1        5.351   3.183   1.353  0.00  0.00    -0.381 NA
ATOM     14  H   LIG    1        6.058   2.702   0.818  0.00  0.00    +0.098 HD
ATOM     15  H   LIG    1        5.670   3.364   2.293  0.00  0.00    +0.098 HD
ENDBRANCH  10  13
ENDBRANCH   9  10
ENDBRANCH   3   9
TORSDOF 4
