REMARK  Name = ZINC45300069
REMARK                            x       y       z     vdW  Elec       q    Type
REMARK                         _______ _______ _______ _____ _____    ______ ____
ROOT
ATOM      1  C   LIG    1       -1.200  -0.637   0.010  0.00  0.00    +0.148 A 
ATOM      2  C   LIG    1       -2.375   0.101   0.019  0.00  0.00    +0.080 A 
ATOM      3  C   LIG    1       -3.596  -0.545   0.027  0.00  0.00    +0.125 A 
ATOM      4  C   LIG    1       -3.648  -1.927   0.026  0.00  0.00    +0.035 A 
ATOM      5  C   LIG    1       -2.479  -2.665   0.017  0.00  0.00    +0.034 A 
ATOM      6  C   LIG    1       -1.255  -2.023   0.003  0.00  0.00    +0.147 A 
ENDROOT
BRANCH   6   7
ATOM      7  S   LIG    1        0.234  -2.965  -0.015  0.00  0.00    +0.062 S 
ATOM      8  O   LIG    1       -0.151  -4.333  -0.046  0.00  0.00    -0.153 OA
ATOM      9  O   LIG    1        1.065  -2.430   1.005  0.00  0.00    -0.153 OA
BRANCH   7  10
ATOM     10  N   LIG    1        0.992  -2.654  -1.455  0.00  0.00    -0.186 NA
ATOM     11  H   LIG    1        1.154  -1.648  -1.490  0.00  0.00    +0.148 HD
BRANCH  10  12
ATOM     12  C   LIG    1        2.211  -3.270  -1.750  0.00  0.00    +0.090 C 
ATOM     13  C   LIG    1        2.795  -4.152  -0.843  0.00  0.00    +0.023 C 
ATOM     14  C   LIG    1        4.003  -4.738  -1.181  0.00  0.00    +0.017 C 
ATOM     15  C   LIG    1        4.586  -4.431  -2.396  0.00  0.00    +0.081 C 
ATOM     16  N   LIG    1        4.008  -3.591  -3.233  0.00  0.00    -0.314 NA
ATOM     17  H   LIG    1        4.441  -3.395  -4.078  0.00  0.00    +0.122 HD
ATOM     18  C   LIG    1        2.855  -3.016  -2.954  0.00  0.00    +0.101 C 
ENDBRANCH  10  12
ENDBRANCH   7  10
ENDBRANCH   6   7
BRANCH   1  20
ATOM     19  C   LIG    1       -0.017   1.425   0.010  0.00  0.00    +0.277 C 
ATOM     20  O   LIG    1        0.002  -0.004   0.002  0.00  0.00    -0.493 OA
ENDBRANCH   1  20
BRANCH   3  21
ATOM     21  N   LIG    1       -4.849   0.242   0.038  0.00  0.00    +0.006 N 
ATOM     22  O   LIG    1       -4.804   1.450   0.040  0.00  0.00    -0.130 OA
BRANCH  21  23
ATOM     23  O   LIG    1       -5.918  -0.323   0.044  0.00  0.00    -0.396 OA
ATOM     24  H   LIG    1       -5.953  -1.259   0.043  0.00  0.00    +0.329 HD
ENDBRANCH  21  23
ENDBRANCH   3  21
TORSDOF 6
