REMARK  Name = ZINC14089743
REMARK                            x       y       z     vdW  Elec       q    Type
REMARK                         _______ _______ _______ _____ _____    ______ ____
ROOT
ATOM      1  C   LIG    1        9.637   9.784   0.930  0.00  0.00    +0.008 C 
ATOM      2  C   LIG    1        9.803   8.277   1.143  0.00  0.00    -0.011 C 
ATOM      3  C   LIG    1       10.662   7.695   0.018  0.00  0.00    +0.004 C 
ATOM      4  C   LIG    1       10.848   6.198   0.256  0.00  0.00    +0.007 C 
ATOM      5  C   LIG    1        9.496   5.486   0.281  0.00  0.00    -0.025 C 
ATOM      6  C   LIG    1        9.747   4.015   0.636  0.00  0.00    +0.012 C 
ATOM      7  C   LIG    1        8.827   5.577  -1.086  0.00  0.00    +0.008 C 
ATOM      8  C   LIG    1        7.553   4.735  -1.126  0.00  0.00    +0.012 C 
ATOM      9  C   LIG    1        6.567   5.127  -0.037  0.00  0.00    -0.005 C 
ATOM     10  C   LIG    1        5.880   6.421  -0.498  0.00  0.00    +0.016 C 
ATOM     11  C   LIG    1        7.230   5.414   1.275  0.00  0.00    -0.063 C 
ATOM     12  C   LIG    1        6.698   5.091   2.427  0.00  0.00    -0.026 C 
ATOM     13  C   LIG    1        5.393   4.372   2.595  0.00  0.00    +0.031 C 
ATOM     14  C   LIG    1        4.586   4.432   1.298  0.00  0.00    +0.006 C 
ATOM     15  C   LIG    1        3.291   3.627   1.417  0.00  0.00    -0.024 C 
ATOM     16  C   LIG    1        3.555   2.212   1.920  0.00  0.00    +0.012 C 
ATOM     17  C   LIG    1        2.392   4.334   2.447  0.00  0.00    +0.010 C 
ATOM     18  C   LIG    1        1.049   3.615   2.532  0.00  0.00    +0.033 C 
ATOM     19  C   LIG    1        0.327   3.675   1.194  0.00  0.00    +0.131 C 
ATOM     20  C   LIG    1        1.171   3.113   0.050  0.00  0.00    +0.094 C 
ATOM     21  C   LIG    1        0.494   3.589  -1.260  0.00  0.00    +0.026 C 
ATOM     22  C   LIG    1        2.586   3.641   0.068  0.00  0.00    +0.014 C 
ATOM     23  C   LIG    1        3.484   2.981  -0.978  0.00  0.00    +0.006 C 
ATOM     24  C   LIG    1        4.697   3.905  -1.177  0.00  0.00    +0.008 C 
ATOM     25  C   LIG    1        5.477   4.053   0.124  0.00  0.00    -0.019 C 
ATOM     26  C   LIG    1        6.195   2.725   0.411  0.00  0.00    +0.012 C 
ATOM     27  C   LIG    1        8.579   6.104   1.335  0.00  0.00    +0.024 C 
ATOM     28  C   LIG    1        8.426   7.605   1.112  0.00  0.00    -0.004 C 
ATOM     29  C   LIG    1        7.558   8.216   2.215  0.00  0.00    +0.008 C 
ENDROOT
BRANCH  19  30
ATOM     30  O   LIG    1       -0.027   5.030   0.899  0.00  0.00    -0.391 OA
ATOM     31  H   LIG    1       -0.565   5.454   1.581  0.00  0.00    +0.210 HD
ENDBRANCH  19  30
BRANCH  20  32
ATOM     32  C   LIG    1        1.107   1.609   0.054  0.00  0.00    +0.313 C 
ATOM     33  O   LIG    1        2.126   0.961   0.092  0.00  0.00    -0.250 OA
BRANCH  32  34
ATOM     34  O   LIG    1       -0.083   0.988   0.016  0.00  0.00    -0.480 OA
ATOM     35  H   LIG    1       -0.873   1.490  -0.013  0.00  0.00    +0.295 HD
ENDBRANCH  32  34
ENDBRANCH  20  32
TORSDOF 3
