REMARK  Name = ZINC28964595
REMARK                            x       y       z     vdW  Elec       q    Type
REMARK                         _______ _______ _______ _____ _____    ______ ____
ROOT
ATOM      1  N   LIG    1        0.997  -5.180  -0.238  0.00  0.00    -0.292 N 
ATOM      2  H   LIG    1       -0.100  -5.097  -0.227  0.00  0.00    +0.151 HD
ATOM      3  C   LIG    1        1.758  -4.072  -0.139  0.00  0.00    +0.304 C 
ATOM      4  N   LIG    1        1.174  -2.862  -0.024  0.00  0.00    -0.269 N 
ATOM      5  H   LIG    1        0.080  -2.785   0.062  0.00  0.00    +0.156 HD
ATOM      6  O   LIG    1        2.970  -4.163  -0.152  0.00  0.00    -0.252 OA
ENDROOT
BRANCH   4   7
ATOM      7  C   LIG    1        1.959  -1.706  -0.015  0.00  0.00    +0.045 A 
ATOM      8  C   LIG    1        3.208  -1.719   0.574  0.00  0.00    +0.024 A 
ATOM      9  C   LIG    1        3.992  -0.573   0.586  0.00  0.00    +0.004 A 
ATOM     10  C   LIG    1        3.539   0.594   0.013  0.00  0.00    +0.028 A 
ATOM     11  C   LIG    1        2.283   0.633  -0.588  0.00  0.00    +0.068 A 
ATOM     12  N   LIG    1        1.569   1.615  -1.226  0.00  0.00    -0.277 N 
ATOM     13  H   LIG    1        1.997   2.622  -1.338  0.00  0.00    +0.189 HD
ATOM     14  N   LIG    1        0.345   1.068  -1.631  0.00  0.00    -0.181 NA
ATOM     15  C   LIG    1        0.281  -0.181  -1.273  0.00  0.00    +0.144 A 
ATOM     16  C   LIG    1        1.481  -0.523  -0.605  0.00  0.00    +0.041 A 
ENDBRANCH   4   7
BRANCH   1  24
ATOM     17  C   LIG    1        1.908  -7.719  -4.440  0.00  0.00    -0.042 A 
ATOM     18  C   LIG    1        2.876  -6.837  -3.997  0.00  0.00    +0.004 A 
ATOM     19  C   LIG    1        2.856  -6.392  -2.690  0.00  0.00    +0.006 A 
ATOM     20  C   LIG    1        1.870  -6.827  -1.820  0.00  0.00    -0.024 A 
ATOM     21  C   LIG    1        0.903  -7.709  -2.262  0.00  0.00    -0.042 A 
ATOM     22  C   LIG    1       -0.052  -8.030  -1.133  0.00  0.00    +0.037 C 
ATOM     23  C   LIG    1        0.683  -7.598   0.153  0.00  0.00    +0.032 C 
ATOM     24  C   LIG    1        1.632  -6.495  -0.362  0.00  0.00    +0.105 C 
ATOM     25  C   LIG    1        0.924  -8.154  -3.574  0.00  0.00    +0.008 A 
BRANCH  17  27
ATOM     26  C   LIG    1        0.622  -7.805  -6.558  0.00  0.00    +0.015 C 
ATOM     27  C   LIG    1        1.926  -8.206  -5.866  0.00  0.00    -0.013 C 
ATOM     28  C   LIG    1        2.066  -9.729  -5.883  0.00  0.00    +0.015 C 
ATOM     29  C   LIG    1        3.109  -7.577  -6.604  0.00  0.00    +0.015 C 
ENDBRANCH  17  27
ENDBRANCH   1  24
TORSDOF 3
