REMARK  Name = ZINC49089638
REMARK                            x       y       z     vdW  Elec       q    Type
REMARK                         _______ _______ _______ _____ _____    ______ ____
ROOT
ATOM      1  C   LIG    1       -2.554  -4.147   0.015  0.00  0.00    +0.121 C 
ATOM      2  N   LIG    1       -1.537  -4.966   0.012  0.00  0.00    -0.177 NA
ATOM      3  N   LIG    1       -1.956  -6.296   0.011  0.00  0.00    -0.201 N 
ATOM      4  H   LIG    1       -1.363  -7.064   0.009  0.00  0.00    +0.178 HD
ATOM      5  C   LIG    1       -3.302  -6.363   0.014  0.00  0.00    +0.285 C 
ATOM      6  O   LIG    1       -3.985  -7.372   0.015  0.00  0.00    -0.267 OA
ATOM      7  C   LIG    1       -3.782  -4.970   0.023  0.00  0.00    +0.172 C 
ATOM      8  N   LIG    1       -5.031  -4.550   0.033  0.00  0.00    -0.175 NA
ENDROOT
BRANCH   1  13
ATOM      9  C   LIG    1       -1.200  -0.637   0.010  0.00  0.00    +0.121 A 
ATOM     10  C   LIG    1       -2.375   0.103   0.019  0.00  0.00    +0.045 A 
ATOM     11  C   LIG    1       -3.600  -0.536   0.028  0.00  0.00    +0.004 A 
ATOM     12  C   LIG    1       -3.664  -1.915   0.026  0.00  0.00    +0.010 A 
ATOM     13  C   LIG    1       -2.489  -2.667   0.016  0.00  0.00    +0.008 A 
ATOM     14  C   LIG    1       -1.254  -2.021   0.003  0.00  0.00    +0.055 A 
BRANCH   9  16
ATOM     15  C   LIG    1       -0.017   1.425   0.010  0.00  0.00    +0.277 C 
ATOM     16  O   LIG    1        0.002  -0.004   0.002  0.00  0.00    -0.495 OA
ENDBRANCH   9  16
ENDBRANCH   1  13
BRANCH   8  17
ATOM     17  N   LIG    1       -5.999  -5.403   0.039  0.00  0.00    -0.237 N 
ATOM     18  H   LIG    1       -5.807  -6.354   0.036  0.00  0.00    +0.174 HD
BRANCH  17  19
ATOM     19  C   LIG    1       -7.319  -4.959   0.050  0.00  0.00    +0.051 A 
ATOM     20  C   LIG    1       -7.615  -3.596   0.049  0.00  0.00    +0.044 A 
ATOM     21  C   LIG    1       -8.936  -3.198   0.060  0.00  0.00    +0.112 A 
ATOM     22  N   LIG    1       -9.911  -4.087   0.072  0.00  0.00    -0.263 NA
ATOM     23  C   LIG    1       -9.672  -5.385   0.074  0.00  0.00    +0.112 A 
ATOM     24  C   LIG    1       -8.379  -5.866   0.057  0.00  0.00    +0.044 A 
ENDBRANCH  17  19
ENDBRANCH   8  17
TORSDOF 4
