REMARK  Name = ZINC13831326
REMARK                            x       y       z     vdW  Elec       q    Type
REMARK                         _______ _______ _______ _____ _____    ______ ____
ROOT
ATOM      1  C   LIG    1       -0.017   1.390   0.010  0.00  0.00    +0.011 A 
ATOM      2  C   LIG    1        1.170   2.093   0.002  0.00  0.00    +0.013 A 
ATOM      3  C   LIG    1        2.377   1.418  -0.013  0.00  0.00    +0.055 A 
ATOM      4  C   LIG    1        2.402   0.035  -0.022  0.00  0.00    +0.013 A 
ATOM      5  C   LIG    1        1.221  -0.679  -0.014  0.00  0.00    +0.011 A 
ATOM      6  C   LIG    1        0.002  -0.004   0.002  0.00  0.00    +0.007 A 
ENDROOT
BRANCH   6   7
ATOM      7  C   LIG    1       -1.270  -0.766   0.011  0.00  0.00    +0.153 A 
ATOM      8  C   LIG    1       -1.513  -2.044  -0.672  0.00  0.00    +0.225 A 
ATOM      9  N   LIG    1       -2.751  -2.406  -0.435  0.00  0.00    -0.001 N 
ATOM     10  O   LIG    1       -3.344  -1.413   0.383  0.00  0.00    -0.229 OA
ATOM     11  N   LIG    1       -2.367  -0.418   0.631  0.00  0.00    -0.046 NA
BRANCH   8  12
ATOM     12  C   LIG    1       -0.562  -2.768  -1.460  0.00  0.00    +0.126 C 
ATOM     13  N   LIG    1        0.192  -3.343  -2.086  0.00  0.00    -0.189 NA
ENDBRANCH   8  12
BRANCH   9  14
ATOM     14  O   LIG    1       -3.383  -3.580  -0.911  0.00  0.00    -0.397 OA
ATOM     15  H   LIG    1       -2.907  -4.182  -1.449  0.00  0.00    +0.329 HD
ENDBRANCH   9  14
ENDBRANCH   6   7
BRANCH   3  16
ATOM     16  C   LIG    1        3.671   2.192  -0.022  0.00  0.00    +0.417 C 
ATOM     17  F   LIG    1        3.478   3.415  -0.673  0.00  0.00    -0.166 F 
ATOM     18  F   LIG    1        4.651   1.455  -0.695  0.00  0.00    -0.166 F 
ATOM     19  F   LIG    1        4.084   2.424   1.294  0.00  0.00    -0.166 F 
ENDBRANCH   3  16
TORSDOF 4
