REMARK  Name = ZINC29230278
REMARK                            x       y       z     vdW  Elec       q    Type
REMARK                         _______ _______ _______ _____ _____    ______ ____
ROOT
ATOM      1  C   LIG    1        4.033   6.316   2.413  0.00  0.00    +0.105 C 
ATOM      2  N   LIG    1        3.687   5.710   1.121  0.00  0.00    -0.300 NA
ATOM      3  C   LIG    1        3.406   6.740   0.116  0.00  0.00    +0.119 C 
ATOM      4  C   LIG    1        2.958   6.107  -1.176  0.00  0.00    -0.026 A 
ATOM      5  C   LIG    1        3.000   6.871  -2.333  0.00  0.00    +0.050 A 
ATOM      6  C   LIG    1        2.590   6.333  -3.541  0.00  0.00    +0.120 A 
ATOM      7  C   LIG    1        2.135   5.023  -3.593  0.00  0.00    +0.046 A 
ATOM      8  C   LIG    1        2.098   4.265  -2.441  0.00  0.00    +0.008 A 
ATOM      9  C   LIG    1        2.510   4.805  -1.231  0.00  0.00    -0.034 A 
ATOM     10  C   LIG    1        2.452   3.936  -0.001  0.00  0.00    +0.063 C 
ATOM     11  C   LIG    1        2.535   4.804   1.254  0.00  0.00    +0.097 C 
ENDROOT
BRANCH  10  12
ATOM     12  C   LIG    1        1.157   3.166   0.007  0.00  0.00    -0.037 A 
ATOM     13  C   LIG    1        1.175   1.783   0.000  0.00  0.00    +0.006 A 
ATOM     14  C   LIG    1       -0.013   1.076   0.008  0.00  0.00    +0.022 A 
ATOM     15  C   LIG    1       -1.220   1.751   0.017  0.00  0.00    +0.059 A 
ATOM     16 CL   LIG    1       -2.712   0.863   0.019  0.00  0.00    -0.082 Cl
ATOM     17  C   LIG    1       -1.238   3.135   0.030  0.00  0.00    +0.060 A 
ATOM     18 CL   LIG    1       -2.752   3.984   0.049  0.00  0.00    -0.082 Cl
ATOM     19  C   LIG    1       -0.048   3.842   0.022  0.00  0.00    +0.025 A 
ENDBRANCH  10  12
BRANCH   6  20
ATOM     20  O   LIG    1        2.632   7.085  -4.672  0.00  0.00    -0.495 OA
ATOM     21  C   LIG    1        2.193   6.464  -5.882  0.00  0.00    +0.277 C 
ENDBRANCH   6  20
TORSDOF 2
