REMARK  Name = ZINC44198895
REMARK                            x       y       z     vdW  Elec       q    Type
REMARK                         _______ _______ _______ _____ _____    ______ ____
ROOT
ATOM      1  C   LIG    1       -0.017   1.383   0.010  0.00  0.00    +0.009 A 
ATOM      2  C   LIG    1        1.160   2.103   0.002  0.00  0.00    +0.047 A 
ATOM      3  C   LIG    1        2.378   1.435  -0.013  0.00  0.00    +0.139 A 
ATOM      4  C   LIG    1        2.393   0.029  -0.021  0.00  0.00    +0.018 A 
ATOM      5  C   LIG    1        1.189  -0.682  -0.013  0.00  0.00    +0.017 A 
ATOM      6  C   LIG    1        3.683  -0.668  -0.037  0.00  0.00    +0.018 A 
ATOM      7  C   LIG    1        4.815   0.080  -0.043  0.00  0.00    +0.092 A 
ATOM      8  C   LIG    1        4.726   1.489  -0.035  0.00  0.00    +0.337 A 
ATOM      9  O   LIG    1        5.749   2.149  -0.042  0.00  0.00    -0.245 OA
ATOM     10  O   LIG    1        3.541   2.120  -0.021  0.00  0.00    -0.422 OA
ATOM     11  C   LIG    1        0.002  -0.004   0.002  0.00  0.00    -0.021 A 
ENDROOT
BRANCH  11  12
ATOM     12  C   LIG    1       -1.296  -0.770   0.011  0.00  0.00    +0.191 C 
BRANCH  12  13
ATOM     13  O   LIG    1       -1.720  -1.004  -1.334  0.00  0.00    -0.390 OA
ATOM     14  H   LIG    1       -2.551  -1.494  -1.404  0.00  0.00    +0.210 HD
ENDBRANCH  12  13
ENDBRANCH  11  12
TORSDOF 2
