REMARK  Name = ZINC17921108
REMARK                            x       y       z     vdW  Elec       q    Type
REMARK                         _______ _______ _______ _____ _____    ______ ____
ROOT
ATOM      1  N   LIG    1        1.085  -6.220   2.396  0.00  0.00    -0.047 NA
ATOM      2  C   LIG    1        2.334  -6.564   2.519  0.00  0.00    +0.289 C 
ATOM      3  C   LIG    1        2.692  -7.925   3.058  0.00  0.00    +0.145 C 
ENDROOT
BRANCH   1   7
ATOM      4  C   LIG    1        0.099  -2.353   1.281  0.00  0.00    +0.121 A 
ATOM      5  C   LIG    1       -0.385  -3.429   0.549  0.00  0.00    +0.050 A 
ATOM      6  C   LIG    1       -0.058  -4.718   0.917  0.00  0.00    +0.059 A 
ATOM      7  C   LIG    1        0.758  -4.939   2.027  0.00  0.00    +0.176 A 
ATOM      8  C   LIG    1        1.242  -3.855   2.760  0.00  0.00    +0.059 A 
ATOM      9  C   LIG    1        0.915  -2.569   2.382  0.00  0.00    +0.050 A 
BRANCH   4  10
ATOM     10  O   LIG    1       -0.225  -1.085   0.915  0.00  0.00    -0.492 OA
BRANCH  10  12
ATOM     11  C   LIG    1       -1.321   0.553  -0.484  0.00  0.00    +0.048 C 
ATOM     12  C   LIG    1       -1.069  -0.934  -0.228  0.00  0.00    +0.225 C 
ENDBRANCH  10  12
ENDBRANCH   4  10
ENDBRANCH   1   7
BRANCH   2  13
ATOM     13  N   LIG    1        3.324  -5.687   2.159  0.00  0.00    -0.204 N 
ATOM     14  H   LIG    1        3.158  -4.732   2.181  0.00  0.00    +0.298 HD
BRANCH  13  15
ATOM     15  C   LIG    1        4.576  -6.171   1.760  0.00  0.00    +0.119 A 
ATOM     16  C   LIG    1        4.673  -7.394   1.109  0.00  0.00    +0.052 A 
ATOM     17  C   LIG    1        5.908  -7.870   0.716  0.00  0.00    +0.049 A 
ATOM     18  C   LIG    1        7.051  -7.127   0.970  0.00  0.00    +0.121 A 
ATOM     19  C   LIG    1        6.955  -5.906   1.620  0.00  0.00    +0.049 A 
ATOM     20  C   LIG    1        5.721  -5.425   2.009  0.00  0.00    +0.052 A 
BRANCH  18  21
ATOM     21  O   LIG    1        8.267  -7.597   0.581  0.00  0.00    -0.492 OA
BRANCH  21  22
ATOM     22  C   LIG    1        9.402  -6.780   0.875  0.00  0.00    +0.225 C 
ATOM     23  C   LIG    1       10.671  -7.467   0.366  0.00  0.00    +0.048 C 
ENDBRANCH  21  22
ENDBRANCH  18  21
ENDBRANCH  13  15
ENDBRANCH   2  13
TORSDOF 7
