REMARK  Name = ZINC34866289
REMARK                            x       y       z     vdW  Elec       q    Type
REMARK                         _______ _______ _______ _____ _____    ______ ____
ROOT
ATOM      1  N   LIG    1        2.841  -0.442  -2.476  0.00  0.00    +0.382 N 
ATOM      2  H   LIG    1        2.785  -1.448  -2.521  0.00  0.00    -0.082 HD
ATOM      3  C   LIG    1        2.196   0.135  -3.662  0.00  0.00    -0.078 C 
ATOM      4  C   LIG    1        2.857  -0.418  -4.926  0.00  0.00    -0.011 C 
ATOM      5  C   LIG    1        4.344  -0.051  -4.922  0.00  0.00    +0.036 C 
ATOM      6  C   LIG    1        4.990  -0.594  -3.644  0.00  0.00    +0.154 C 
ATOM      7  F   LIG    1        4.911  -1.990  -3.638  0.00  0.00    -0.247 F 
ATOM      8  C   LIG    1        4.250  -0.034  -2.427  0.00  0.00    -0.041 C 
ENDROOT
BRANCH   1   9
ATOM      9  C   LIG    1        2.154   0.032  -1.268  0.00  0.00    -0.078 C 
BRANCH   9  10
ATOM     10  C   LIG    1        0.718  -0.497  -1.257  0.00  0.00    -0.013 C 
BRANCH  10  12
ATOM     11  C   LIG    1       -0.019   1.526   0.010  0.00  0.00    +0.010 C 
ATOM     12  C   LIG    1        0.002  -0.004   0.002  0.00  0.00    -0.039 C 
ATOM     13  C   LIG    1       -1.433  -0.534   0.013  0.00  0.00    +0.010 C 
ATOM     14  C   LIG    1        0.742  -0.511   1.242  0.00  0.00    +0.010 C 
ENDBRANCH  10  12
ENDBRANCH   9  10
ENDBRANCH   1   9
BRANCH   5  15
ATOM     15  C   LIG    1        5.027  -0.667  -6.145  0.00  0.00    +0.110 C 
BRANCH  15  16
ATOM     16  N   LIG    1        6.420  -0.217  -6.204  0.00  0.00    -0.311 N 
ATOM     17  H   LIG    1        6.766   0.382  -5.524  0.00  0.00    +0.149 HD
ATOM     18  C   LIG    1        7.221  -0.635  -7.204  0.00  0.00    +0.244 C 
ATOM     19  O   LIG    1        6.788  -1.386  -8.056  0.00  0.00    -0.270 OA
BRANCH  18  20
ATOM     20  C   LIG    1        8.627  -0.181  -7.264  0.00  0.00    +0.039 A 
ATOM     21  C   LIG    1        9.129   0.676  -6.283  0.00  0.00    +0.033 A 
ATOM     22  C   LIG    1       10.443   1.096  -6.345  0.00  0.00    +0.043 A 
ATOM     23 CL   LIG    1       11.069   2.163  -5.127  0.00  0.00    -0.083 Cl
ATOM     24  C   LIG    1       11.261   0.669  -7.376  0.00  0.00    +0.040 A 
ATOM     25  C   LIG    1       10.769  -0.180  -8.352  0.00  0.00    +0.043 A 
ATOM     26 CL   LIG    1       11.803  -0.710  -9.642  0.00  0.00    -0.083 Cl
ATOM     27  C   LIG    1        9.459  -0.613  -8.298  0.00  0.00    +0.033 A 
ENDBRANCH  18  20
ENDBRANCH  15  16
ENDBRANCH   5  15
TORSDOF 6
