REMARK  Name = ZINC00053816
REMARK                            x       y       z     vdW  Elec       q    Type
REMARK                         _______ _______ _______ _____ _____    ______ ____
ROOT
ATOM      1  C   LIG    1        4.880  -3.725   1.303  0.00  0.00    +0.002 A 
ATOM      2  C   LIG    1        3.546  -3.561   1.648  0.00  0.00    +0.002 A 
ATOM      3  C   LIG    1        2.958  -2.315   1.595  0.00  0.00    +0.028 A 
ATOM      4  C   LIG    1        3.707  -1.217   1.193  0.00  0.00    +0.069 A 
ATOM      5  C   LIG    1        5.059  -1.384   0.840  0.00  0.00    +0.090 A 
ATOM      6  N   LIG    1        5.537  -0.163   0.501  0.00  0.00    -0.226 NA
ATOM      7  C   LIG    1        4.584   0.730   0.614  0.00  0.00    +0.167 A 
ATOM      8  N   LIG    1        3.431   0.126   1.036  0.00  0.00    -0.322 N 
ATOM      9  C   LIG    1        5.632  -2.659   0.898  0.00  0.00    +0.030 A 
ENDROOT
BRANCH   7  10
ATOM     10  C   LIG    1        4.733   2.173   0.327  0.00  0.00    +0.190 A 
ATOM     11  C   LIG    1        5.937   2.910  -0.125  0.00  0.00    +0.191 A 
ATOM     12  N   LIG    1        5.498   4.143  -0.219  0.00  0.00    -0.033 NA
ATOM     13  O   LIG    1        4.332   4.181   0.097  0.00  0.00    -0.240 OA
ATOM     14  N   LIG    1        3.832   3.128   0.414  0.00  0.00    -0.044 NA
BRANCH  11  15
ATOM     15  N   LIG    1        7.209   2.418  -0.386  0.00  0.00    -0.339 N 
ATOM     16  H   LIG    1        7.911   3.021  -0.679  0.00  0.00    +0.144 HD
ATOM     17  H   LIG    1        7.396   1.473  -0.275  0.00  0.00    +0.144 HD
ENDBRANCH  11  15
ENDBRANCH   7  10
BRANCH   8  18
ATOM     18  C   LIG    1        2.144   0.783   1.280  0.00  0.00    +0.127 C 
BRANCH  18  19
ATOM     19  C   LIG    1        1.317   0.779  -0.006  0.00  0.00    +0.009 C 
ATOM     20  C   LIG    1       -0.019   1.526   0.010  0.00  0.00    +0.005 C 
ATOM     21  C   LIG    1        0.002  -0.004   0.002  0.00  0.00    +0.005 C 
ENDBRANCH  18  19
ENDBRANCH   8  18
TORSDOF 4
