REMARK  Name = ZINC49109881
REMARK                            x       y       z     vdW  Elec       q    Type
REMARK                         _______ _______ _______ _____ _____    ______ ____
ROOT
ATOM      1  N   LIG    1        2.501  -3.742  -4.365  0.00  0.00    -0.175 NA
ATOM      2  C   LIG    1        3.090  -4.330  -5.397  0.00  0.00    +0.172 C 
ATOM      3  C   LIG    1        3.242  -5.775  -5.663  0.00  0.00    +0.126 C 
ATOM      4  N   LIG    1        3.894  -5.856  -6.808  0.00  0.00    -0.143 NA
ATOM      5  N   LIG    1        4.164  -4.698  -7.282  0.00  0.00    -0.109 NA
ATOM      6  C   LIG    1        3.722  -3.720  -6.520  0.00  0.00    +0.262 C 
ENDROOT
BRANCH   3   7
ATOM      7  C   LIG    1        2.764  -6.895  -4.824  0.00  0.00    +0.007 A 
ATOM      8  C   LIG    1        2.075  -6.656  -3.629  0.00  0.00    +0.030 A 
ATOM      9  C   LIG    1        1.647  -7.730  -2.877  0.00  0.00    +0.111 A 
ATOM     10  N   LIG    1        1.879  -8.968  -3.271  0.00  0.00    -0.263 NA
ATOM     11  C   LIG    1        2.524  -9.238  -4.391  0.00  0.00    +0.111 A 
ATOM     12  C   LIG    1        2.982  -8.225  -5.206  0.00  0.00    +0.030 A 
ENDBRANCH   3   7
BRANCH   1  13
ATOM     13  N   LIG    1        2.455  -2.455  -4.297  0.00  0.00    -0.237 N 
ATOM     14  H   LIG    1        2.851  -1.917  -5.000  0.00  0.00    +0.174 HD
BRANCH  13  18
ATOM     15  C   LIG    1        0.606  -0.607  -1.056  0.00  0.00    +0.120 A 
ATOM     16  C   LIG    1        1.173   0.163  -2.062  0.00  0.00    +0.047 A 
ATOM     17  C   LIG    1        1.786  -0.448  -3.136  0.00  0.00    +0.028 A 
ATOM     18  C   LIG    1        1.836  -1.836  -3.211  0.00  0.00    +0.049 A 
ATOM     19  C   LIG    1        1.268  -2.606  -2.202  0.00  0.00    +0.028 A 
ATOM     20  C   LIG    1        0.660  -1.992  -1.126  0.00  0.00    +0.047 A 
BRANCH  15  22
ATOM     21  C   LIG    1       -0.017   1.425   0.010  0.00  0.00    +0.277 C 
ATOM     22  O   LIG    1        0.002  -0.004   0.002  0.00  0.00    -0.495 OA
ENDBRANCH  15  22
ENDBRANCH  13  18
ENDBRANCH   1  13
BRANCH   6  23
ATOM     23  O   LIG    1        3.848  -2.389  -6.755  0.00  0.00    -0.490 OA
ATOM     24  H   LIG    1        3.495  -1.771  -6.146  0.00  0.00    +0.294 HD
ENDBRANCH   6  23
TORSDOF 5
