REMARK  Name = ZINC20639542
REMARK                            x       y       z     vdW  Elec       q    Type
REMARK                         _______ _______ _______ _____ _____    ______ ____
ROOT
ATOM      1  C   LIG    1        2.420  -4.693   3.358  0.00  0.00    +0.120 A 
ATOM      2  C   LIG    1        3.624  -5.353   3.156  0.00  0.00    +0.046 A 
ATOM      3  C   LIG    1        4.371  -5.772   4.240  0.00  0.00    +0.007 A 
ATOM      4  C   LIG    1        3.919  -5.535   5.526  0.00  0.00    -0.043 A 
ATOM      5  C   LIG    1        2.720  -4.878   5.729  0.00  0.00    +0.007 A 
ATOM      6  C   LIG    1        1.972  -4.451   4.649  0.00  0.00    +0.046 A 
ENDROOT
BRANCH   1   7
ATOM      7  O   LIG    1        1.684  -4.279   2.293  0.00  0.00    -0.494 OA
BRANCH   7   8
ATOM      8  C   LIG    1        2.207  -4.563   0.994  0.00  0.00    +0.210 C 
BRANCH   8   9
ATOM      9  C   LIG    1        1.247  -4.025  -0.070  0.00  0.00    -0.037 C 
BRANCH   9  14
ATOM     10  C   LIG    1        1.274   1.528  -1.024  0.00  0.00    +0.104 C 
ATOM     11  N   LIG    1        1.342   0.061  -1.078  0.00  0.00    -0.309 NA
ATOM     12  C   LIG    1        2.388  -0.451  -0.181  0.00  0.00    +0.065 C 
ATOM     13  C   LIG    1        2.466  -1.974  -0.311  0.00  0.00    -0.063 C 
ATOM     14  N   LIG    1        1.166  -2.562   0.037  0.00  0.00    +0.384 N 
ATOM     15  H   LIG    1        0.925  -2.308   0.984  0.00  0.00    -0.082 HD
ATOM     16  C   LIG    1        0.137  -2.060  -0.882  0.00  0.00    -0.063 C 
ATOM     17  C   LIG    1        0.039  -0.538  -0.757  0.00  0.00    +0.065 C 
ENDBRANCH   9  14
ENDBRANCH   8   9
ENDBRANCH   7   8
ENDBRANCH   1   7
BRANCH   4  18
ATOM     18  C   LIG    1        4.736  -5.993   6.706  0.00  0.00    +0.070 C 
BRANCH  18  19
ATOM     19  C   LIG    1        5.692  -4.901   7.110  0.00  0.00    -0.043 A 
ATOM     20  C   LIG    1        6.953  -4.844   6.548  0.00  0.00    +0.004 A 
ATOM     21  C   LIG    1        7.831  -3.842   6.918  0.00  0.00    +0.000 A 
ATOM     22  C   LIG    1        7.447  -2.897   7.851  0.00  0.00    +0.000 A 
ATOM     23  C   LIG    1        6.185  -2.954   8.413  0.00  0.00    +0.000 A 
ATOM     24  C   LIG    1        5.306  -3.953   8.040  0.00  0.00    +0.004 A 
ENDBRANCH  18  19
ENDBRANCH   4  18
TORSDOF 6
