REMARK  Name = ZINC13840578
REMARK                            x       y       z     vdW  Elec       q    Type
REMARK                         _______ _______ _______ _____ _____    ______ ____
ROOT
ATOM      1  C   LIG    1        2.505  -0.326  -0.018  0.00  0.00    +0.009 A 
ATOM      2  C   LIG    1        3.713  -0.992  -0.038  0.00  0.00    +0.013 A 
ATOM      3  C   LIG    1        4.899  -0.280  -0.046  0.00  0.00    +0.055 A 
ATOM      4  C   LIG    1        4.881   1.103  -0.039  0.00  0.00    +0.013 A 
ATOM      5  C   LIG    1        3.678   1.780  -0.024  0.00  0.00    +0.009 A 
ATOM      6  C   LIG    1        2.480   1.068  -0.016  0.00  0.00    -0.018 A 
ENDROOT
BRANCH   6   7
ATOM      7  C   LIG    1        1.185   1.790   0.000  0.00  0.00    -0.018 A 
ATOM      8  C   LIG    1       -0.013   1.076   0.008  0.00  0.00    +0.012 A 
ATOM      9  C   LIG    1       -1.216   1.750   0.017  0.00  0.00    +0.046 A 
ATOM     10  C   LIG    1       -1.235   3.138   0.030  0.00  0.00    +0.117 A 
ATOM     11  C   LIG    1       -0.045   3.852   0.022  0.00  0.00    +0.046 A 
ATOM     12  C   LIG    1        1.162   3.183   0.008  0.00  0.00    +0.012 A 
BRANCH  10  13
ATOM     13  O   LIG    1       -2.422   3.799   0.045  0.00  0.00    -0.507 OA
ATOM     14  H   LIG    1       -2.774   3.995  -0.835  0.00  0.00    +0.292 HD
ENDBRANCH  10  13
ENDBRANCH   6   7
BRANCH   3  15
ATOM     15  C   LIG    1        6.215  -1.013  -0.063  0.00  0.00    +0.417 C 
ATOM     16  F   LIG    1        7.172  -0.239  -0.727  0.00  0.00    -0.166 F 
ATOM     17  F   LIG    1        6.060  -2.234  -0.727  0.00  0.00    -0.166 F 
ATOM     18  F   LIG    1        6.635  -1.247   1.251  0.00  0.00    -0.166 F 
ENDBRANCH   3  15
TORSDOF 3
