REMARK  Name = ZINC22454208
REMARK                            x       y       z     vdW  Elec       q    Type
REMARK                         _______ _______ _______ _____ _____    ______ ____
ROOT
ATOM      1  N   LIG    1        1.102  -4.264   2.248  0.00  0.00    -0.296 N 
ATOM      2  H   LIG    1        1.403  -3.529   1.691  0.00  0.00    +0.150 HD
ATOM      3  C   LIG    1        1.909  -4.755   3.209  0.00  0.00    +0.321 C 
ATOM      4  N   LIG    1        3.134  -4.226   3.396  0.00  0.00    -0.246 N 
ATOM      5  C   LIG    1        3.979  -4.729   4.383  0.00  0.00    +0.065 A 
ATOM      6  C   LIG    1        3.583  -4.708   5.713  0.00  0.00    +0.027 A 
ATOM      7  C   LIG    1        4.435  -5.172   6.697  0.00  0.00    +0.002 A 
ATOM      8  C   LIG    1        5.689  -5.657   6.363  0.00  0.00    +0.001 A 
ATOM      9  C   LIG    1        6.091  -5.699   5.046  0.00  0.00    +0.015 A 
ATOM     10  C   LIG    1        5.233  -5.251   4.037  0.00  0.00    +0.063 A 
ATOM     11  C   LIG    1        5.630  -5.379   2.630  0.00  0.00    +0.258 A 
ATOM     12  N   LIG    1        5.370  -4.509   1.667  0.00  0.00    -0.319 N 
ATOM     13  H   LIG    1        5.680  -4.742   0.777  0.00  0.00    +0.169 HD
ATOM     14  C   LIG    1        4.698  -3.296   1.792  0.00  0.00    +0.085 A 
ATOM     15  C   LIG    1        5.151  -2.189   1.080  0.00  0.00    +0.031 A 
ATOM     16  C   LIG    1        4.446  -1.012   1.165  0.00  0.00    +0.022 A 
ATOM     17  C   LIG    1        3.314  -0.962   1.953  0.00  0.00    +0.113 A 
ATOM     18  N   LIG    1        2.917  -2.018   2.637  0.00  0.00    -0.235 NA
ATOM     19  O   LIG    1        6.256  -6.375   2.321  0.00  0.00    -0.267 OA
ATOM     20  C   LIG    1        3.578  -3.167   2.600  0.00  0.00    +0.165 A 
ATOM     21  O   LIG    1        1.532  -5.677   3.907  0.00  0.00    -0.249 OA
ENDROOT
BRANCH   1  22
ATOM     22  C   LIG    1       -0.229  -4.840   2.044  0.00  0.00    +0.121 C 
BRANCH  22  23
ATOM     23  C   LIG    1       -0.884  -4.191   0.823  0.00  0.00    +0.103 C 
BRANCH  23  29
ATOM     24  C   LIG    1       -2.974  -3.961  -0.376  0.00  0.00    +0.040 C 
ATOM     25  C   LIG    1       -4.445  -4.385  -0.386  0.00  0.00    +0.017 C 
ATOM     26  C   LIG    1       -4.534  -5.897  -0.610  0.00  0.00    +0.003 C 
ATOM     27  C   LIG    1       -3.746  -6.615   0.489  0.00  0.00    +0.015 C 
ATOM     28  C   LIG    1       -2.296  -6.126   0.474  0.00  0.00    +0.084 C 
ATOM     29  N   LIG    1       -2.265  -4.674   0.693  0.00  0.00    -0.300 NA
BRANCH  24  30
ATOM     30  C   LIG    1       -2.880  -2.453  -0.133  0.00  0.00    -0.060 C 
BRANCH  30  31
ATOM     31  N   LIG    1       -3.596  -2.111   1.104  0.00  0.00    +0.381 N 
ATOM     32  H   LIG    1       -4.532  -2.487   1.065  0.00  0.00    -0.082 HD
BRANCH  31  33
ATOM     33  C   LIG    1       -2.886  -2.683   2.255  0.00  0.00    -0.079 C 
BRANCH  33  35
ATOM     34  C   LIG    1       -2.914  -2.958   4.738  0.00  0.00    +0.002 C 
ATOM     35  C   LIG    1       -3.654  -2.362   3.539  0.00  0.00    -0.022 C 
ENDBRANCH  33  35
ENDBRANCH  31  33
BRANCH  31  36
ATOM     36  C   LIG    1       -3.660  -0.650   1.244  0.00  0.00    -0.079 C 
BRANCH  36  37
ATOM     37  C   LIG    1       -4.495  -0.064   0.104  0.00  0.00    -0.022 C 
ATOM     38  C   LIG    1       -4.674   1.439   0.323  0.00  0.00    +0.002 C 
ENDBRANCH  36  37
ENDBRANCH  31  36
ENDBRANCH  30  31
ENDBRANCH  24  30
ENDBRANCH  23  29
ENDBRANCH  22  23
ENDBRANCH   1  22
TORSDOF 9
