REMARK  Name = ZINC28645396
REMARK                            x       y       z     vdW  Elec       q    Type
REMARK                         _______ _______ _______ _____ _____    ______ ____
ROOT
ATOM      1  C   LIG    1       -4.308   1.102  -0.077  0.00  0.00    +0.114 C 
ENDROOT
BRANCH   1   2
ATOM      2  C   LIG    1       -2.862   1.601  -0.036  0.00  0.00    -0.054 C 
ATOM      3  C   LIG    1       -2.849   3.131  -0.064  0.00  0.00    -0.015 C 
ATOM      4  C   LIG    1       -1.401   3.626  -0.004  0.00  0.00    -0.003 C 
ATOM      5  C   LIG    1       -0.736   3.078   1.262  0.00  0.00    -0.019 C 
ATOM      6  C   LIG    1       -0.810   1.550   1.252  0.00  0.00    -0.082 C 
ATOM      7  N   LIG    1       -2.215   1.127   1.194  0.00  0.00    +0.382 N 
ATOM      8  H   LIG    1       -2.252   0.028   1.228  0.00  0.00    -0.085 HD
ATOM      9  H   LIG    1       -2.742   1.539   2.067  0.00  0.00    -0.085 HD
ENDBRANCH   1   2
BRANCH   1  10
ATOM     10  C   LIG    1       -5.013   1.702  -1.266  0.00  0.00    -0.034 A 
ATOM     11  C   LIG    1       -4.600   1.384  -2.547  0.00  0.00    +0.006 A 
ATOM     12  C   LIG    1       -5.250   1.929  -3.638  0.00  0.00    +0.022 A 
ATOM     13  C   LIG    1       -6.306   2.802  -3.449  0.00  0.00    +0.059 A 
ATOM     14 CL   LIG    1       -7.118   3.492  -4.820  0.00  0.00    -0.082 Cl
ATOM     15  C   LIG    1       -6.716   3.125  -2.167  0.00  0.00    +0.060 A 
ATOM     16 CL   LIG    1       -8.042   4.219  -1.928  0.00  0.00    -0.082 Cl
ATOM     17  C   LIG    1       -6.069   2.574  -1.075  0.00  0.00    +0.025 A 
ENDBRANCH   1  10
BRANCH   1  18
ATOM     18  C   LIG    1       -4.318  -0.400  -0.192  0.00  0.00    +0.313 C 
ATOM     19  O   LIG    1       -3.276  -1.010  -0.237  0.00  0.00    -0.250 OA
BRANCH  18  21
ATOM     20  C   LIG    1       -5.419  -2.508  -0.355  0.00  0.00    +0.280 C 
ATOM     21  O   LIG    1       -5.485  -1.062  -0.244  0.00  0.00    -0.468 OA
ENDBRANCH  18  21
ENDBRANCH   1  18
TORSDOF 4
