REMARK  Name = ZINC40955762
REMARK                            x       y       z     vdW  Elec       q    Type
REMARK                         _______ _______ _______ _____ _____    ______ ____
ROOT
ATOM      1  C   LIG    1        5.082  -0.976   1.374  0.00  0.00    +0.095 A 
ATOM      2  C   LIG    1        5.798  -0.040   2.097  0.00  0.00    +0.028 A 
ATOM      3  C   LIG    1        5.895  -0.155   3.471  0.00  0.00    +0.016 A 
ATOM      4  C   LIG    1        5.276  -1.205   4.122  0.00  0.00    +0.081 A 
ATOM      5  C   LIG    1        4.560  -2.141   3.399  0.00  0.00    +0.119 A 
ATOM      6  C   LIG    1        4.459  -2.023   2.026  0.00  0.00    +0.056 A 
ENDROOT
BRANCH   4   7
ATOM      7  C   LIG    1        5.383  -1.331   5.620  0.00  0.00    +0.419 C 
ATOM      8  F   LIG    1        6.113  -2.481   5.941  0.00  0.00    -0.166 F 
ATOM      9  F   LIG    1        4.101  -1.424   6.173  0.00  0.00    -0.166 F 
ATOM     10  F   LIG    1        6.033  -0.206   6.138  0.00  0.00    -0.166 F 
ENDBRANCH   4   7
BRANCH   1  11
ATOM     11  S   LIG    1        4.959  -0.829  -0.378  0.00  0.00    +0.025 S 
ATOM     12  O   LIG    1        6.084  -0.072  -0.802  0.00  0.00    -0.164 OA
ATOM     13  O   LIG    1        4.686  -2.132  -0.876  0.00  0.00    -0.164 OA
BRANCH  11  17
ATOM     14  C   LIG    1        1.299   1.685  -1.258  0.00  0.00    +0.000 A 
ATOM     15  C   LIG    1        2.530   2.292  -1.087  0.00  0.00    +0.002 A 
ATOM     16  C   LIG    1        3.647   1.524  -0.818  0.00  0.00    +0.027 A 
ATOM     17  C   LIG    1        3.534   0.150  -0.719  0.00  0.00    +0.094 A 
ATOM     18  C   LIG    1        2.304  -0.457  -0.889  0.00  0.00    +0.027 A 
ATOM     19  C   LIG    1        1.186   0.311  -1.159  0.00  0.00    +0.002 A 
ENDBRANCH  11  17
ENDBRANCH   1  11
BRANCH   5  20
ATOM     20  S   LIG    1        3.771  -3.480   4.229  0.00  0.00    +0.059 S 
ATOM     21  O   LIG    1        4.728  -4.019   5.131  0.00  0.00    -0.153 OA
ATOM     22  O   LIG    1        3.142  -4.265   3.226  0.00  0.00    -0.153 OA
BRANCH  20  23
ATOM     23  N   LIG    1        2.559  -2.836   5.156  0.00  0.00    -0.187 NA
ATOM     24  H   LIG    1        2.589  -2.921   6.122  0.00  0.00    +0.148 HD
BRANCH  23  25
ATOM     25  C   LIG    1        1.440  -2.138   4.517  0.00  0.00    +0.073 C 
ATOM     26  C   LIG    1        1.697  -0.629   4.542  0.00  0.00    +0.001 C 
ATOM     27  C   LIG    1        0.490   0.098   3.945  0.00  0.00    -0.081 C 
ATOM     28  N   LIG    1       -0.709  -0.209   4.733  0.00  0.00    +0.379 N 
ATOM     29  H   LIG    1       -1.492   0.314   4.370  0.00  0.00    -0.086 HD
ATOM     30  H   LIG    1       -0.553   0.050   5.696  0.00  0.00    -0.086 HD
ATOM     31  C   LIG    1       -1.003  -1.645   4.655  0.00  0.00    -0.081 C 
ATOM     32  C   LIG    1        0.147  -2.439   5.279  0.00  0.00    +0.001 C 
ENDBRANCH  23  25
ENDBRANCH  20  23
ENDBRANCH   5  20
TORSDOF 6
