REMARK  Name = ZINC26378419
REMARK                            x       y       z     vdW  Elec       q    Type
REMARK                         _______ _______ _______ _____ _____    ______ ____
ROOT
ATOM      1  C   LIG    1       -0.019   1.526   0.010  0.00  0.00    +0.108 C 
ENDROOT
BRANCH   1   2
ATOM      2  C   LIG    1       -0.748   2.025  -1.210  0.00  0.00    +0.161 A 
ATOM      3  O   LIG    1       -0.192   2.307  -2.400  0.00  0.00    -0.355 OA
ATOM      4  N   LIG    1       -1.219   2.743  -3.271  0.00  0.00    -0.038 NA
ATOM      5  C   LIG    1       -2.345   2.723  -2.606  0.00  0.00    +0.271 A 
ATOM      6  C   LIG    1       -2.067   2.271  -1.297  0.00  0.00    +0.146 A 
ATOM      7 CL   LIG    1       -3.228   2.068  -0.021  0.00  0.00    -0.074 Cl
BRANCH   5   8
ATOM      8  O   LIG    1       -3.564   3.074  -3.088  0.00  0.00    -0.489 OA
ATOM      9  H   LIG    1       -4.318   3.028  -2.534  0.00  0.00    +0.294 HD
ENDBRANCH   5   8
ENDBRANCH   1   2
BRANCH   1  10
ATOM     10  CA  LIG    1        0.002  -0.004   0.002  0.00  0.00    +0.168 C 
BRANCH  10  11
ATOM     11  N   LIG    1       -1.370  -0.513   0.133  0.00  0.00    -0.318 NA
ATOM     12  H1  LIG    1       -1.932  -0.247  -0.661  0.00  0.00    +0.119 HD
ATOM     13  H2  LIG    1       -1.791  -0.200   0.995  0.00  0.00    +0.119 HD
ENDBRANCH  10  11
BRANCH  10  14
ATOM     14  C   LIG    1        0.835  -0.501   1.155  0.00  0.00    +0.322 C 
ATOM     15  O   LIG    1        0.299  -1.058   2.099  0.00  0.00    -0.249 OA
BRANCH  14  16
ATOM     16  OXT LIG    1        2.044  -0.348   1.145  0.00  0.00    -0.480 OA
ATOM     17  HXT LIG    1        2.456   0.080   0.420  0.00  0.00    +0.295 HD
ENDBRANCH  14  16
ENDBRANCH  10  14
ENDBRANCH   1  10
TORSDOF 6
