REMARK  Name = ZINC13985145
REMARK                            x       y       z     vdW  Elec       q    Type
REMARK                         _______ _______ _______ _____ _____    ______ ____
ROOT
ATOM      1  N   LIG    1        3.029   4.308  -1.623  0.00  0.00    +0.390 N 
ATOM      2  H   LIG    1        2.362   4.832  -2.202  0.00  0.00    -0.080 HD
ENDROOT
BRANCH   1   3
ATOM      3  C   LIG    1        3.456   3.099  -2.358  0.00  0.00    -0.067 C 
ATOM      4  C   LIG    1        4.600   2.400  -1.621  0.00  0.00    -0.015 C 
ATOM      5  C   LIG    1        5.025   1.156  -2.404  0.00  0.00    -0.002 C 
ATOM      6  C   LIG    1        5.495   1.568  -3.800  0.00  0.00    -0.000 C 
ATOM      7  C   LIG    1        4.351   2.267  -4.537  0.00  0.00    -0.002 C 
ATOM      8  C   LIG    1        3.926   3.511  -3.755  0.00  0.00    -0.015 C 
ENDBRANCH   1   3
BRANCH   1   9
ATOM      9  C   LIG    1        2.367   3.923  -0.358  0.00  0.00    -0.042 C 
BRANCH   9  13
ATOM     10  C   LIG    1       -2.547   4.175  -1.265  0.00  0.00    +0.047 C 
ATOM     11  C   LIG    1       -1.288   3.360  -1.115  0.00  0.00    -0.009 A 
ATOM     12  C   LIG    1       -0.092   3.985  -0.819  0.00  0.00    +0.008 A 
ATOM     13  C   LIG    1        1.064   3.239  -0.681  0.00  0.00    -0.063 A 
ATOM     14  C   LIG    1        1.026   1.865  -0.838  0.00  0.00    +0.005 A 
ATOM     15  C   LIG    1       -0.168   1.236  -1.134  0.00  0.00    +0.046 A 
ATOM     16  C   LIG    1       -1.328   1.984  -1.279  0.00  0.00    +0.124 A 
BRANCH  16  17
ATOM     17  O   LIG    1       -2.502   1.367  -1.575  0.00  0.00    -0.481 OA
BRANCH  17  18
ATOM     18  C   LIG    1       -2.469  -0.054  -1.724  0.00  0.00    +0.349 C 
BRANCH  18  19
ATOM     19  C   LIG    1       -3.852  -0.557  -2.049  0.00  0.00    +0.343 C 
ATOM     20  O   LIG    1       -4.772   0.222  -2.143  0.00  0.00    -0.247 OA
BRANCH  19  21
ATOM     21  O   LIG    1       -4.063  -1.869  -2.234  0.00  0.00    -0.478 OA
ATOM     22  H   LIG    1       -3.350  -2.473  -2.160  0.00  0.00    +0.295 HD
ENDBRANCH  19  21
ENDBRANCH  18  19
ENDBRANCH  17  18
ENDBRANCH  16  17
ENDBRANCH   9  13
ENDBRANCH   1   9
BRANCH   1  23
ATOM     23  C   LIG    1        4.198   5.167  -1.340  0.00  0.00    +0.020 C 
BRANCH  23  24
ATOM     24  C   LIG    1        3.711   6.558  -1.026  0.00  0.00    +0.201 C 
ATOM     25  N   LIG    1        4.597   7.548  -0.800  0.00  0.00    -0.286 N 
ATOM     26  H   LIG    1        5.546   7.350  -0.764  0.00  0.00    +0.155 HD
ATOM     27  O   LIG    1        2.521   6.787  -0.976  0.00  0.00    -0.278 OA
BRANCH  25  28
ATOM     28  C   LIG    1        4.149   8.862  -0.619  0.00  0.00    +0.052 A 
ATOM     29  C   LIG    1        2.886   9.232  -1.061  0.00  0.00    +0.026 A 
ATOM     30  C   LIG    1        2.445  10.529  -0.881  0.00  0.00    +0.022 A 
ATOM     31  C   LIG    1        3.261  11.459  -0.261  0.00  0.00    +0.042 A 
ATOM     32 CL   LIG    1        2.704  13.088  -0.037  0.00  0.00    -0.083 Cl
ATOM     33  C   LIG    1        4.521  11.093   0.180  0.00  0.00    +0.041 A 
ATOM     34  C   LIG    1        4.964   9.795   0.008  0.00  0.00    +0.064 A 
ATOM     35 CL   LIG    1        6.541   9.335   0.569  0.00  0.00    -0.082 Cl
ENDBRANCH  25  28
ENDBRANCH  23  24
ENDBRANCH   1  23
TORSDOF 10
