REMARK  Name = ZINC53064461
REMARK                            x       y       z     vdW  Elec       q    Type
REMARK                         _______ _______ _______ _____ _____    ______ ____
ROOT
ATOM      1  C   LIG    1       -1.536  -7.172   5.256  0.00  0.00    +0.076 C 
ATOM      2  C   LIG    1       -0.304  -6.597   5.529  0.00  0.00    +0.037 C 
ATOM      3  C   LIG    1        0.486  -7.116   6.545  0.00  0.00    +0.083 C 
ATOM      4  N   LIG    1        0.102  -8.145   7.265  0.00  0.00    -0.313 NA
ATOM      5  H   LIG    1        0.686  -8.475   7.965  0.00  0.00    +0.122 HD
ATOM      6  C   LIG    1       -1.072  -8.750   7.058  0.00  0.00    +0.059 C 
ATOM      7  C   LIG    1       -1.463  -9.852   7.841  0.00  0.00    +0.019 C 
ATOM      8  C   LIG    1       -2.667 -10.444   7.630  0.00  0.00    +0.010 C 
ATOM      9  C   LIG    1       -3.530  -9.986   6.622  0.00  0.00    +0.019 C 
ATOM     10  C   LIG    1       -3.172  -8.908   5.831  0.00  0.00    +0.015 C 
ATOM     11  C   LIG    1       -1.940  -8.278   6.043  0.00  0.00    +0.027 C 
ENDROOT
BRANCH   9  12
ATOM     12  C   LIG    1       -4.833 -10.660   6.404  0.00  0.00    -0.044 A 
ATOM     13  C   LIG    1       -5.692 -10.213   5.402  0.00  0.00    +0.004 A 
ATOM     14  C   LIG    1       -6.904 -10.844   5.204  0.00  0.00    +0.000 A 
ATOM     15  C   LIG    1       -7.265 -11.918   5.997  0.00  0.00    +0.000 A 
ATOM     16  C   LIG    1       -6.416 -12.365   6.994  0.00  0.00    +0.000 A 
ATOM     17  C   LIG    1       -5.200 -11.745   7.197  0.00  0.00    +0.004 A 
ENDBRANCH   9  12
BRANCH   1  18
ATOM     18  N   LIG    1       -2.348  -6.677   4.248  0.00  0.00    -0.341 N 
ATOM     19  H   LIG    1       -3.250  -7.018   4.140  0.00  0.00    +0.146 HD
BRANCH  18  23
ATOM     20  C   LIG    1       -0.916  -3.721   1.680  0.00  0.00    +0.030 A 
ATOM     21  C   LIG    1       -2.225  -3.667   2.139  0.00  0.00    +0.025 A 
ATOM     22  C   LIG    1       -2.700  -4.646   2.989  0.00  0.00    +0.025 A 
ATOM     23  C   LIG    1       -1.867  -5.685   3.385  0.00  0.00    +0.027 A 
ATOM     24  C   LIG    1       -0.558  -5.739   2.926  0.00  0.00    +0.025 A 
ATOM     25  C   LIG    1       -0.085  -4.763   2.071  0.00  0.00    +0.025 A 
BRANCH  20  31
ATOM     26  C   LIG    1        1.225   1.042   0.085  0.00  0.00    -0.096 C 
ATOM     27  N   LIG    1        0.657  -0.307  -0.049  0.00  0.00    +0.380 N 
ATOM     28  H   LIG    1        0.615  -0.557  -1.026  0.00  0.00    -0.082 HD
ATOM     29  C   LIG    1       -0.697  -0.324   0.517  0.00  0.00    -0.060 C 
ATOM     30  C   LIG    1       -1.333  -1.697   0.276  0.00  0.00    +0.086 C 
ATOM     31  N   LIG    1       -0.435  -2.729   0.818  0.00  0.00    -0.333 N 
ATOM     32  C   LIG    1        0.984  -2.687   0.429  0.00  0.00    +0.086 C 
ATOM     33  C   LIG    1        1.510  -1.267   0.663  0.00  0.00    -0.060 C 
ENDBRANCH  20  31
ENDBRANCH  18  23
ENDBRANCH   1  18
TORSDOF 4
