REMARK  Name = ZINC20347398
REMARK                            x       y       z     vdW  Elec       q    Type
REMARK                         _______ _______ _______ _____ _____    ______ ____
ROOT
ATOM      1  N   LIG    1       -0.052   1.619   0.091  0.00  0.00    -0.297 NA
ATOM      2  C   LIG    1        1.204   2.377   0.184  0.00  0.00    +0.100 C 
ATOM      3  C   LIG    1        1.913   2.025   1.494  0.00  0.00    +0.100 C 
ATOM      4  N   LIG    1        2.171   0.578   1.534  0.00  0.00    -0.298 NA
ATOM      5  C   LIG    1        0.915  -0.180   1.440  0.00  0.00    +0.100 C 
ATOM      6  C   LIG    1        0.206   0.173   0.131  0.00  0.00    +0.100 C 
ENDROOT
BRANCH   1   7
ATOM      7  C   LIG    1       -0.800   1.987  -1.118  0.00  0.00    +0.119 C 
BRANCH   7   8
ATOM      8  C   LIG    1       -2.266   1.580  -0.955  0.00  0.00    +0.166 C 
BRANCH   8   9
ATOM      9  O   LIG    1       -2.841   2.301   0.137  0.00  0.00    -0.387 OA
ATOM     10  H   LIG    1       -2.422   2.196   1.148  0.00  0.00    +0.210 HD
ENDBRANCH   8   9
BRANCH   8  11
ATOM     11  C   LIG    1       -3.031   1.903  -2.240  0.00  0.00    +0.261 C 
BRANCH  11  12
ATOM     12  O   LIG    1       -4.371   1.418  -2.131  0.00  0.00    -0.489 OA
BRANCH  12  18
ATOM     13  C   LIG    1       -6.504   1.179  -3.157  0.00  0.00    -0.003 A 
ATOM     14  C   LIG    1       -7.335   1.391  -4.240  0.00  0.00    +0.007 A 
ATOM     15  C   LIG    1       -6.859   2.046  -5.361  0.00  0.00    +0.001 A 
ATOM     16  C   LIG    1       -5.550   2.490  -5.401  0.00  0.00    +0.004 A 
ATOM     17  C   LIG    1       -4.717   2.286  -4.319  0.00  0.00    +0.046 A 
ATOM     18  C   LIG    1       -5.191   1.625  -3.195  0.00  0.00    +0.124 A 
BRANCH  13  20
ATOM     19  C   LIG    1       -8.201   1.249  -1.350  0.00  0.00    +0.012 C 
ATOM     20  C   LIG    1       -7.024   0.466  -1.935  0.00  0.00    +0.016 C 
ATOM     21  C   LIG    1       -7.488  -0.939  -2.324  0.00  0.00    +0.012 C 
ENDBRANCH  13  20
ENDBRANCH  12  18
ENDBRANCH  11  12
ENDBRANCH   8  11
ENDBRANCH   7   8
ENDBRANCH   1   7
BRANCH   4  22
ATOM     22  C   LIG    1        2.919   0.210   2.743  0.00  0.00    +0.106 C 
BRANCH  22  23
ATOM     23  C   LIG    1        4.083   1.184   2.939  0.00  0.00    +0.144 C 
BRANCH  23  24
ATOM     24  N   LIG    1        4.829   0.817   4.145  0.00  0.00    -0.274 N 
ATOM     25  C   LIG    1        4.467   1.361   5.322  0.00  0.00    +0.262 A 
ATOM     26  C   LIG    1        5.189   1.013   6.555  0.00  0.00    +0.048 A 
ATOM     27  C   LIG    1        4.847   1.546   7.789  0.00  0.00    +0.014 A 
ATOM     28  C   LIG    1        5.563   1.191   8.926  0.00  0.00    +0.001 A 
ATOM     29  C   LIG    1        6.612   0.318   8.867  0.00  0.00    +0.008 A 
ATOM     30  C   LIG    1        6.990  -0.245   7.636  0.00  0.00    -0.016 A 
ATOM     31  C   LIG    1        8.062  -1.148   7.524  0.00  0.00    +0.008 A 
ATOM     32  C   LIG    1        8.393  -1.667   6.305  0.00  0.00    +0.001 A 
ATOM     33  C   LIG    1        7.692  -1.327   5.154  0.00  0.00    +0.014 A 
ATOM     34  C   LIG    1        6.628  -0.440   5.222  0.00  0.00    +0.048 A 
ATOM     35  C   LIG    1        6.271   0.108   6.475  0.00  0.00    +0.007 A 
ATOM     36  O   LIG    1        3.535   2.141   5.367  0.00  0.00    -0.267 OA
ATOM     37  C   LIG    1        5.856  -0.048   4.034  0.00  0.00    +0.262 A 
ATOM     38  O   LIG    1        6.145  -0.507   2.946  0.00  0.00    -0.267 OA
ENDBRANCH  23  24
ENDBRANCH  22  23
ENDBRANCH   4  22
TORSDOF 10
