REMARK  Name = ZINC43205072
REMARK                            x       y       z     vdW  Elec       q    Type
REMARK                         _______ _______ _______ _____ _____    ______ ____
ROOT
ATOM      1  C   LIG    1        0.031  -3.113  -2.869  0.00  0.00    +0.162 A 
ATOM      2  C   LIG    1        0.037  -4.248  -3.682  0.00  0.00    +0.165 A 
ATOM      3  F   LIG    1        0.051  -5.481  -3.131  0.00  0.00    -0.202 F 
ATOM      4  C   LIG    1        0.029  -4.098  -5.054  0.00  0.00    +0.064 A 
ATOM      5  C   LIG    1        0.015  -2.799  -5.585  0.00  0.00    +0.094 A 
ATOM      6  C   LIG    1        0.010  -1.704  -4.704  0.00  0.00    +0.139 A 
ATOM      7  N   LIG    1        0.013  -1.897  -3.394  0.00  0.00    -0.213 NA
ENDROOT
BRANCH   1   8
ATOM      8  N   LIG    1        0.040  -3.261  -1.490  0.00  0.00    -0.281 N 
ATOM      9  H   LIG    1        0.053  -4.148  -1.097  0.00  0.00    +0.155 HD
BRANCH   8  13
ATOM     10  C   LIG    1       -0.018   1.503   0.010  0.00  0.00    +0.065 C 
ATOM     11  C   LIG    1        0.002  -0.004   0.002  0.00  0.00    +0.035 A 
ATOM     12  C   LIG    1        0.008  -0.794  -1.095  0.00  0.00    +0.068 A 
ATOM     13  C   LIG    1        0.028  -2.131  -0.664  0.00  0.00    +0.146 A 
ATOM     14  N   LIG    1        0.034  -2.134   0.648  0.00  0.00    -0.158 NA
ATOM     15  N   LIG    1        0.024  -0.804   1.089  0.00  0.00    -0.280 N 
ATOM     16  H   LIG    1        0.029  -0.510   2.013  0.00  0.00    +0.189 HD
ENDBRANCH   8  13
ENDBRANCH   1   8
BRANCH   5  17
ATOM     17  C   LIG    1        0.006  -2.592  -7.002  0.00  0.00    +0.103 C 
ATOM     18  N   LIG    1       -0.000  -2.428  -8.126  0.00  0.00    -0.191 NA
ENDBRANCH   5  17
BRANCH   6  19
ATOM     19  N   LIG    1       -0.004  -0.415  -5.209  0.00  0.00    -0.321 N 
ATOM     20  H   LIG    1       -0.011  -0.270  -6.168  0.00  0.00    +0.148 HD
BRANCH  19  21
ATOM     21  C   LIG    1       -0.010   0.730  -4.295  0.00  0.00    +0.099 C 
ATOM     22  C   LIG    1        1.426   1.063  -3.886  0.00  0.00    +0.033 C 
BRANCH  21  23
ATOM     23  C   LIG    1       -0.625   1.920  -4.985  0.00  0.00    -0.027 A 
ATOM     24  C   LIG    1       -0.345   2.167  -6.316  0.00  0.00    +0.008 A 
ATOM     25  C   LIG    1       -0.908   3.259  -6.950  0.00  0.00    +0.038 A 
ATOM     26  C   LIG    1       -1.753   4.104  -6.252  0.00  0.00    +0.123 A 
ATOM     27  F   LIG    1       -2.304   5.171  -6.870  0.00  0.00    -0.205 F 
ATOM     28  C   LIG    1       -2.033   3.856  -4.919  0.00  0.00    +0.038 A 
ATOM     29  C   LIG    1       -1.472   2.761  -4.288  0.00  0.00    +0.008 A 
ENDBRANCH  21  23
ENDBRANCH  19  21
ENDBRANCH   6  19
TORSDOF 6
