REMARK  Name = ZINC20269170
REMARK                            x       y       z     vdW  Elec       q    Type
REMARK                         _______ _______ _______ _____ _____    ______ ____
ROOT
ATOM      1  C   LIG    1        0.002  -0.004   0.002  0.00  0.00    +0.040 A 
ATOM      2  C   LIG    1       -0.017   1.373   0.010  0.00  0.00    +0.029 A 
ATOM      3  C   LIG    1        1.179   2.084   0.002  0.00  0.00    +0.047 A 
ATOM      4  C   LIG    1        2.399   1.385  -0.013  0.00  0.00    +0.004 A 
ATOM      5  C   LIG    1        3.450   2.405  -0.018  0.00  0.00    -0.040 A 
ATOM      6  C   LIG    1        2.838   3.600  -0.006  0.00  0.00    +0.085 A 
ATOM      7  C   LIG    1        2.403  -0.011  -0.021  0.00  0.00    +0.048 A 
ATOM      8  N   LIG    1        1.481   3.429   0.006  0.00  0.00    -0.360 N 
ATOM      9  H   LIG    1        0.672   4.174   0.018  0.00  0.00    +0.165 HD
ATOM     10  C   LIG    1        1.207  -0.696  -0.013  0.00  0.00    +0.124 A 
ATOM     11  F   LIG    1        1.206  -2.047  -0.021  0.00  0.00    -0.205 F 
ENDROOT
BRANCH   5  12
ATOM     12  C   LIG    1        4.937   2.160  -0.034  0.00  0.00    -0.048 C 
BRANCH  12  13
ATOM     13  N   LIG    1        5.368   1.850  -1.404  0.00  0.00    +0.381 N 
ATOM     14  H   LIG    1        4.844   0.950  -1.758  0.00  0.00    -0.090 HD
ATOM     15  H   LIG    1        5.129   2.697  -2.064  0.00  0.00    -0.090 HD
ATOM     16  H   LIG    1        6.453   1.671  -1.415  0.00  0.00    -0.090 HD
ENDBRANCH  12  13
ENDBRANCH   5  12
TORSDOF 2
