REMARK  Name = ZINC28651409
REMARK                            x       y       z     vdW  Elec       q    Type
REMARK                         _______ _______ _______ _____ _____    ______ ____
ROOT
ATOM      1  C   LIG    1       -4.079   2.628   2.482  0.00  0.00    +0.008 A 
ATOM      2  C   LIG    1       -4.159   3.312   1.275  0.00  0.00    +0.015 A 
ATOM      3  C   LIG    1       -3.562   2.789   0.146  0.00  0.00    +0.004 A 
ATOM      4  C   LIG    1       -2.885   1.584   0.214  0.00  0.00    -0.049 A 
ATOM      5  C   LIG    1       -2.808   0.897   1.413  0.00  0.00    +0.004 A 
ATOM      6  C   LIG    1       -3.398   1.418   2.547  0.00  0.00    +0.015 A 
ENDROOT
BRANCH   1   7
ATOM      7  S   LIG    1       -4.840   3.292   3.926  0.00  0.00    -0.125 S 
BRANCH   7   8
ATOM      8  C   LIG    1       -4.473   2.071   5.216  0.00  0.00    +0.074 C 
BRANCH   8   9
ATOM      9  C   LIG    1       -5.085   2.530   6.542  0.00  0.00    +0.011 C 
BRANCH   9  11
ATOM     10  C   LIG    1       -5.387   1.960   8.955  0.00  0.00    +0.004 C 
ATOM     11  C   LIG    1       -4.776   1.500   7.630  0.00  0.00    -0.003 C 
ENDBRANCH   9  11
ENDBRANCH   8   9
ENDBRANCH   7   8
ENDBRANCH   1   7
BRANCH   4  12
ATOM     12  C   LIG    1       -2.234   1.016  -1.020  0.00  0.00    +0.018 C 
BRANCH  12  13
ATOM     13  C   LIG    1       -0.795   1.527  -1.120  0.00  0.00    -0.074 C 
ATOM     14  C   LIG    1       -0.175   1.052  -2.435  0.00  0.00    -0.014 C 
BRANCH  13  15
ATOM     15  N   LIG    1       -0.012   1.005   0.008  0.00  0.00    +0.380 N 
ATOM     16  H   LIG    1       -0.457   1.346   0.954  0.00  0.00    -0.090 HD
ATOM     17  H   LIG    1       -0.013  -0.095  -0.023  0.00  0.00    -0.090 HD
ATOM     18  H   LIG    1        1.023   1.372  -0.064  0.00  0.00    -0.090 HD
ENDBRANCH  13  15
ENDBRANCH  12  13
ENDBRANCH   4  12
TORSDOF 7
