REMARK  Name = ZINC13782372
REMARK                            x       y       z     vdW  Elec       q    Type
REMARK                         _______ _______ _______ _____ _____    ______ ____
ROOT
ATOM      1  C   LIG    1       -1.330   4.451   0.040  0.00  0.00    +0.005 A 
ATOM      2  C   LIG    1       -0.671   3.225   0.026  0.00  0.00    +0.028 A 
ATOM      3  C   LIG    1       -1.122   1.827   0.017  0.00  0.00    +0.050 A 
ATOM      4  C   LIG    1       -0.013   1.076   0.008  0.00  0.00    +0.196 A 
ATOM      5  O   LIG    1        1.080   1.860   0.002  0.00  0.00    -0.462 OA
ATOM      6  C   LIG    1        0.736   3.165   0.012  0.00  0.00    +0.150 A 
ATOM      7  C   LIG    1        1.471   4.338   0.012  0.00  0.00    +0.071 A 
ATOM      8 BR   LIG    1        3.361   4.275  -0.006  0.00  0.00    -0.046 Br
ATOM      9  C   LIG    1        0.812   5.564   0.026  0.00  0.00    +0.038 A 
ATOM     10  C   LIG    1        1.261   6.963   0.030  0.00  0.00    +0.051 A 
ATOM     11  C   LIG    1        0.152   7.713   0.045  0.00  0.00    +0.196 A 
ATOM     12  O   LIG    1       -0.941   6.929   0.050  0.00  0.00    -0.463 OA
ATOM     13  C   LIG    1       -0.596   5.624   0.039  0.00  0.00    +0.140 A 
ENDROOT
BRANCH   1  14
ATOM     14  C   LIG    1       -2.836   4.502   0.055  0.00  0.00    +0.023 C 
BRANCH  14  16
ATOM     15  C   LIG    1       -4.889   4.452  -1.369  0.00  0.00    -0.014 C 
ATOM     16  C   LIG    1       -3.361   4.527  -1.382  0.00  0.00    -0.074 C 
BRANCH  16  17
ATOM     17  N   LIG    1       -2.912   5.770  -2.034  0.00  0.00    +0.380 N 
ATOM     18  H   LIG    1       -1.885   5.785  -2.063  0.00  0.00    -0.090 HD
ATOM     19  H   LIG    1       -3.242   6.579  -1.510  0.00  0.00    -0.090 HD
ATOM     20  H   LIG    1       -3.271   5.814  -2.986  0.00  0.00    -0.090 HD
ENDBRANCH  16  17
ENDBRANCH  14  16
ENDBRANCH   1  14
TORSDOF 3
