REMARK  Name = ZINC20223943
REMARK                            x       y       z     vdW  Elec       q    Type
REMARK                         _______ _______ _______ _____ _____    ______ ____
ROOT
ATOM      1  N   LIG    1        3.601  -0.556  -0.234  0.00  0.00    -0.312 N 
ATOM      2  C   LIG    1        4.842   0.231  -0.243  0.00  0.00    +0.123 C 
ATOM      3  C   LIG    1        5.762  -0.292   0.867  0.00  0.00    +0.128 C 
ATOM      4  N   LIG    1        5.851  -1.755   0.753  0.00  0.00    -0.174 NA
ATOM      5  C   LIG    1        4.610  -2.542   0.762  0.00  0.00    +0.128 C 
ATOM      6  C   LIG    1        3.689  -2.019  -0.342  0.00  0.00    +0.123 C 
ENDROOT
BRANCH   1  10
ATOM      7  C   LIG    1       -0.052   1.296   0.139  0.00  0.00    +0.020 A 
ATOM      8  C   LIG    1        0.457   1.092  -1.137  0.00  0.00    +0.017 A 
ATOM      9  C   LIG    1        1.686   0.469  -1.265  0.00  0.00    +0.095 A 
ATOM     10  C   LIG    1        2.366   0.071  -0.119  0.00  0.00    +0.133 A 
ATOM     11  N   LIG    1        1.847   0.283   1.081  0.00  0.00    -0.240 NA
ATOM     12  C   LIG    1        0.677   0.875   1.233  0.00  0.00    +0.113 A 
BRANCH   9  13
ATOM     13  C   LIG    1        2.279   0.226  -2.629  0.00  0.00    +0.421 C 
ATOM     14  F   LIG    1        2.468  -1.148  -2.816  0.00  0.00    -0.166 F 
ATOM     15  F   LIG    1        3.510   0.884  -2.727  0.00  0.00    -0.166 F 
ATOM     16  F   LIG    1        1.410   0.714  -3.610  0.00  0.00    -0.166 F 
ENDBRANCH   9  13
ENDBRANCH   1  10
BRANCH   4  17
ATOM     17  S   LIG    1        7.322  -2.502   0.616  0.00  0.00    +0.061 S 
ATOM     18  O   LIG    1        8.220  -1.537   0.086  0.00  0.00    -0.153 OA
ATOM     19  O   LIG    1        7.085  -3.752  -0.017  0.00  0.00    -0.153 OA
BRANCH  17  20
ATOM     20  C   LIG    1        7.877  -2.862   2.249  0.00  0.00    +0.107 A 
ATOM     21  C   LIG    1        8.636  -1.936   2.941  0.00  0.00    +0.030 A 
ATOM     22  C   LIG    1        9.072  -2.218   4.222  0.00  0.00    +0.023 A 
ATOM     23  C   LIG    1        8.750  -3.426   4.812  0.00  0.00    +0.059 A 
ATOM     24 CL   LIG    1        9.298  -3.781   6.421  0.00  0.00    -0.082 Cl
ATOM     25  C   LIG    1        7.990  -4.354   4.120  0.00  0.00    +0.061 A 
ATOM     26 CL   LIG    1        7.585  -5.871   4.859  0.00  0.00    -0.082 Cl
ATOM     27  C   LIG    1        7.550  -4.068   2.840  0.00  0.00    +0.050 A 
ENDBRANCH  17  20
ENDBRANCH   4  17
TORSDOF 4
