REMARK  Name = ZINC19707370
REMARK                            x       y       z     vdW  Elec       q    Type
REMARK                         _______ _______ _______ _____ _____    ______ ____
ROOT
ATOM      1  C   LIG    1        0.029   4.169   0.024  0.00  0.00    +0.074 A 
ATOM      2  C   LIG    1       -1.204   3.522   0.032  0.00  0.00    +0.038 A 
ATOM      3  C   LIG    1       -1.242   2.130   0.019  0.00  0.00    +0.006 A 
ATOM      4  C   LIG    1       -0.017   1.428   0.010  0.00  0.00    +0.099 A 
ATOM      5  C   LIG    1        1.183   2.159   0.002  0.00  0.00    +0.135 A 
ATOM      6  N   LIG    1        1.165   3.481   0.010  0.00  0.00    -0.231 NA
ENDROOT
BRANCH   3   7
ATOM      7  C   LIG    1       -2.534   1.405   0.022  0.00  0.00    +0.002 A 
ATOM      8  C   LIG    1       -3.400   1.512  -1.066  0.00  0.00    +0.010 A 
ATOM      9  C   LIG    1       -4.602   0.835  -1.058  0.00  0.00    +0.001 A 
ATOM     10  C   LIG    1       -4.950   0.049   0.027  0.00  0.00    +0.001 A 
ATOM     11  C   LIG    1       -4.097  -0.062   1.109  0.00  0.00    +0.020 A 
ATOM     12  C   LIG    1       -2.888   0.607   1.111  0.00  0.00    +0.049 A 
ATOM     13 CL   LIG    1       -1.814   0.460   2.467  0.00  0.00    -0.083 Cl
ENDBRANCH   3   7
BRANCH   1  17
ATOM     14  C   LIG    1        0.159   8.418   0.044  0.00  0.00    +0.000 A 
ATOM     15  C   LIG    1        1.337   7.693   0.029  0.00  0.00    +0.001 A 
ATOM     16  C   LIG    1        1.301   6.313   0.023  0.00  0.00    +0.010 A 
ATOM     17  C   LIG    1        0.074   5.651   0.031  0.00  0.00    +0.000 A 
ATOM     18  C   LIG    1       -1.109   6.387   0.040  0.00  0.00    +0.010 A 
ATOM     19  C   LIG    1       -1.061   7.766   0.052  0.00  0.00    +0.001 A 
ENDBRANCH   1  17
BRANCH   5  20
ATOM     20  N   LIG    1        2.394   1.490  -0.012  0.00  0.00    -0.342 N 
ATOM     21  H   LIG    1        2.415   0.390  -0.018  0.00  0.00    +0.144 HD
ATOM     22  H   LIG    1        3.336   2.058  -0.018  0.00  0.00    +0.144 HD
ENDBRANCH   5  20
BRANCH   4  23
ATOM     23  C   LIG    1        0.002  -0.004   0.002  0.00  0.00    +0.103 C 
ATOM     24  N   LIG    1        0.018  -1.140  -0.004  0.00  0.00    -0.191 NA
ENDBRANCH   4  23
TORSDOF 4
