REMARK  Name = ZINC19940178
REMARK                            x       y       z     vdW  Elec       q    Type
REMARK                         _______ _______ _______ _____ _____    ______ ____
ROOT
ATOM      1  C   LIG    1        1.315   2.500  -1.066  0.00  0.00    +0.014 A 
ATOM      2  C   LIG    1        0.149   1.876  -1.532  0.00  0.00    +0.100 A 
ATOM      3  C   LIG    1       -1.091   2.534  -1.414  0.00  0.00    +0.136 A 
ATOM      4  N   LIG    1       -1.157   3.731  -0.853  0.00  0.00    -0.224 NA
ATOM      5  C   LIG    1       -0.085   4.351  -0.403  0.00  0.00    +0.113 A 
ATOM      6  S   LIG    1        0.171   5.928   0.375  0.00  0.00    -0.062 S 
ATOM      7  C   LIG    1        1.937   5.851   0.600  0.00  0.00    +0.097 A 
ATOM      8  C   LIG    1        2.272   4.622   0.073  0.00  0.00    +0.054 A 
ATOM      9  C   LIG    1        1.212   3.793  -0.473  0.00  0.00    +0.038 A 
ENDROOT
BRANCH   1  13
ATOM     10  C   LIG    1        5.087   0.575  -1.413  0.00  0.00    +0.121 A 
ATOM     11  C   LIG    1        4.798   1.679  -2.204  0.00  0.00    +0.046 A 
ATOM     12  C   LIG    1        3.576   2.306  -2.095  0.00  0.00    +0.012 A 
ATOM     13  C   LIG    1        2.627   1.830  -1.187  0.00  0.00    -0.016 A 
ATOM     14  C   LIG    1        2.924   0.722  -0.389  0.00  0.00    +0.012 A 
ATOM     15  C   LIG    1        4.146   0.098  -0.508  0.00  0.00    +0.046 A 
BRANCH  10  16
ATOM     16  O   LIG    1        6.293  -0.041  -1.524  0.00  0.00    -0.492 OA
BRANCH  16  18
ATOM     17  C   LIG    1        7.925  -1.726  -0.945  0.00  0.00    +0.048 C 
ATOM     18  C   LIG    1        6.524  -1.171  -0.680  0.00  0.00    +0.225 C 
ENDBRANCH  16  18
ENDBRANCH  10  16
ENDBRANCH   1  13
BRANCH   7  19
ATOM     19  C   LIG    1        2.789   6.819   1.181  0.00  0.00    +0.250 C 
ATOM     20  N   LIG    1        2.278   7.975   1.648  0.00  0.00    -0.325 N 
ATOM     21  H   LIG    1        1.197   8.167   1.577  0.00  0.00    +0.145 HD
ATOM     22  H   LIG    1        2.941   8.728   2.100  0.00  0.00    +0.145 HD
ATOM     23  O   LIG    1        3.986   6.608   1.259  0.00  0.00    -0.270 OA
ENDBRANCH   7  19
BRANCH   3  24
ATOM     24  N   LIG    1       -2.241   1.925  -1.877  0.00  0.00    -0.342 N 
ATOM     25  H   LIG    1       -2.188   0.927  -2.338  0.00  0.00    +0.144 HD
ATOM     26  H   LIG    1       -3.211   2.437  -1.785  0.00  0.00    +0.144 HD
ENDBRANCH   3  24
BRANCH   8  27
ATOM     27  N   LIG    1        3.590   4.188   0.064  0.00  0.00    -0.356 N 
ATOM     28  H   LIG    1        3.842   3.204  -0.359  0.00  0.00    +0.142 HD
ATOM     29  H   LIG    1        4.383   4.826   0.481  0.00  0.00    +0.142 HD
ENDBRANCH   8  27
BRANCH   2  30
ATOM     30  C   LIG    1        0.220   0.578  -2.132  0.00  0.00    +0.103 C 
ATOM     31  N   LIG    1        0.275  -0.452  -2.608  0.00  0.00    -0.191 NA
ENDBRANCH   2  30
TORSDOF 7
