REMARK  Name = ZINC36948412
REMARK                            x       y       z     vdW  Elec       q    Type
REMARK                         _______ _______ _______ _____ _____    ______ ____
ROOT
ATOM      1  C   LIG    1       -1.231  -0.564   0.023  0.00  0.00    -0.020 C 
ATOM      2  C   LIG    1       -2.145  -0.201  -1.149  0.00  0.00    +0.010 C 
ATOM      3  C   LIG    1       -3.299  -1.203  -1.224  0.00  0.00    +0.001 C 
ATOM      4  C   LIG    1       -2.739  -2.612  -1.430  0.00  0.00    +0.000 C 
ATOM      5  C   LIG    1       -1.825  -2.974  -0.259  0.00  0.00    +0.001 C 
ATOM      6  C   LIG    1       -0.671  -1.972  -0.184  0.00  0.00    +0.010 C 
ENDROOT
BRANCH   1  14
ATOM      7  C   LIG    1       -0.351   1.755   0.361  0.00  0.00    +0.005 A 
ATOM      8  C   LIG    1        0.691   2.661   0.429  0.00  0.00    +0.022 A 
ATOM      9  C   LIG    1        1.992   2.235   0.233  0.00  0.00    +0.059 A 
ATOM     10 CL   LIG    1        3.300   3.372   0.318  0.00  0.00    -0.082 Cl
ATOM     11  C   LIG    1        2.250   0.900  -0.032  0.00  0.00    +0.060 A 
ATOM     12 CL   LIG    1        3.882   0.364  -0.280  0.00  0.00    -0.082 Cl
ATOM     13  C   LIG    1        1.206  -0.005  -0.100  0.00  0.00    +0.025 A 
ATOM     14  C   LIG    1       -0.094   0.423   0.097  0.00  0.00    -0.042 A 
ENDBRANCH   1  14
BRANCH   1  15
ATOM     15  C   LIG    1       -2.030  -0.519   1.327  0.00  0.00    -0.075 C 
BRANCH  15  16
ATOM     16  N   LIG    1       -1.147  -0.845   2.454  0.00  0.00    +0.379 N 
ATOM     17  H   LIG    1       -0.361  -0.212   2.461  0.00  0.00    -0.090 HD
ATOM     18  H   LIG    1       -0.814  -1.793   2.357  0.00  0.00    -0.090 HD
ATOM     19  H   LIG    1       -1.658  -0.755   3.319  0.00  0.00    -0.090 HD
ENDBRANCH  15  16
ENDBRANCH   1  15
TORSDOF 3
