REMARK  Name = ZINC43074932
REMARK                            x       y       z     vdW  Elec       q    Type
REMARK                         _______ _______ _______ _____ _____    ______ ____
ROOT
ATOM      1  N   LIG    1        0.691  -0.416  -1.212  0.00  0.00    -0.286 N 
ATOM      2  C   LIG    1       -0.005  -0.645  -2.343  0.00  0.00    +0.306 C 
ATOM      3  N   LIG    1       -1.345  -0.498  -2.351  0.00  0.00    -0.268 N 
ATOM      4  H   LIG    1       -1.816  -0.298  -1.527  0.00  0.00    +0.156 HD
ATOM      5  O   LIG    1        0.575  -0.985  -3.356  0.00  0.00    -0.252 OA
ENDROOT
BRANCH   3   6
ATOM      6  C   LIG    1       -2.053  -0.633  -3.544  0.00  0.00    +0.056 A 
ATOM      7  C   LIG    1       -1.460  -1.073  -4.709  0.00  0.00    +0.032 A 
ATOM      8  C   LIG    1       -2.210  -1.180  -5.831  0.00  0.00    +0.048 A 
ATOM      9  S   LIG    1       -3.745  -0.690  -5.356  0.00  0.00    -0.088 S 
ATOM     10  C   LIG    1       -3.416  -0.337  -3.641  0.00  0.00    +0.117 A 
BRANCH  10  11
ATOM     11  C   LIG    1       -4.299   0.123  -2.643  0.00  0.00    +0.345 C 
ATOM     12  O   LIG    1       -3.854   0.332  -1.404  0.00  0.00    -0.244 OA
BRANCH  11  13
ATOM     13  O   LIG    1       -5.578   0.349  -2.938  0.00  0.00    -0.477 OA
ATOM     14  H   LIG    1       -5.891   0.203  -3.809  0.00  0.00    +0.295 HD
ENDBRANCH  11  13
ENDBRANCH  10  11
ENDBRANCH   3   6
BRANCH   1  16
ATOM     15  C   LIG    1       -0.097   1.520   0.057  0.00  0.00    +0.024 C 
ATOM     16  C   LIG    1       -0.008  -0.006   0.008  0.00  0.00    +0.106 C 
ENDBRANCH   1  16
BRANCH   1  17
ATOM     17  C   LIG    1        2.147  -0.576  -1.203  0.00  0.00    +0.106 C 
ATOM     18  C   LIG    1        2.500  -2.016  -0.825  0.00  0.00    +0.024 C 
ENDBRANCH   1  17
TORSDOF 5
