REMARK  Name = ZINC22014599
REMARK                            x       y       z     vdW  Elec       q    Type
REMARK                         _______ _______ _______ _____ _____    ______ ____
ROOT
ATOM      1  C   LIG    1        1.172   2.094   0.002  0.00  0.00    +0.001 A 
ATOM      2  C   LIG    1       -0.017   1.366   0.010  0.00  0.00    +0.006 A 
ATOM      3  C   LIG    1        0.002  -0.004   0.002  0.00  0.00    -0.023 A 
ATOM      4  C   LIG    1        1.260  -0.601  -0.012  0.00  0.00    +0.053 A 
ATOM      5  C   LIG    1        2.466   0.117  -0.021  0.00  0.00    +0.003 A 
ATOM      6  C   LIG    1        3.500  -0.900  -0.036  0.00  0.00    -0.024 A 
ATOM      7  C   LIG    1        2.882  -2.108  -0.034  0.00  0.00    +0.090 A 
ATOM      8  N   LIG    1        1.531  -1.947  -0.018  0.00  0.00    -0.346 N 
ATOM      9  C   LIG    1        0.424  -2.912  -0.006  0.00  0.00    +0.122 C 
ATOM     10  C   LIG    1       -0.787  -2.256   0.668  0.00  0.00    +0.026 C 
ATOM     11  C   LIG    1       -1.178  -0.930   0.005  0.00  0.00    +0.039 C 
ATOM     12  C   LIG    1        2.420   1.514  -0.013  0.00  0.00    +0.010 A 
ENDROOT
BRANCH   6  13
ATOM     13  C   LIG    1        4.988  -0.659  -0.051  0.00  0.00    +0.018 C 
BRANCH  13  14
ATOM     14  C   LIG    1        5.487  -0.460   1.382  0.00  0.00    -0.082 C 
BRANCH  14  15
ATOM     15  N   LIG    1        6.937  -0.225   1.367  0.00  0.00    +0.378 N 
ATOM     16  H   LIG    1        7.444  -1.092   0.920  0.00  0.00    -0.090 HD
ATOM     17  H   LIG    1        7.157   0.675   0.774  0.00  0.00    -0.090 HD
ATOM     18  H   LIG    1        7.295  -0.082   2.397  0.00  0.00    -0.090 HD
ENDBRANCH  14  15
ENDBRANCH  13  14
ENDBRANCH   6  13
TORSDOF 3
