REMARK  Name = ZINC14951176
REMARK                            x       y       z     vdW  Elec       q    Type
REMARK                         _______ _______ _______ _____ _____    ______ ____
ROOT
ATOM      1  C   LIG    1       -1.273  -0.764  -0.104  0.00  0.00    +0.117 A 
ATOM      2  N   LIG    1       -1.374  -2.122   0.002  0.00  0.00    -0.339 N 
ATOM      3  C   LIG    1       -2.710  -2.421   0.132  0.00  0.00    +0.072 A 
ATOM      4  C   LIG    1       -3.386  -1.213   0.100  0.00  0.00    +0.072 A 
ATOM      5  H   LIG    1       -0.641  -2.757  -0.011  0.00  0.00    +0.167 HD
ATOM      6  N   LIG    1       -2.473  -0.237  -0.039  0.00  0.00    -0.339 N 
ATOM      7  H   LIG    1       -2.671   0.712  -0.086  0.00  0.00    +0.167 HD
ENDROOT
BRANCH   3   8
ATOM      8  C   LIG    1       -3.305  -3.764   0.278  0.00  0.00    +0.001 A 
ATOM      9  C   LIG    1       -4.406  -4.131  -0.500  0.00  0.00    +0.013 A 
ATOM     10  C   LIG    1       -4.958  -5.386  -0.360  0.00  0.00    +0.039 A 
ATOM     11  C   LIG    1       -4.423  -6.284   0.551  0.00  0.00    +0.123 A 
ATOM     12  F   LIG    1       -4.968  -7.513   0.684  0.00  0.00    -0.205 F 
ATOM     13  C   LIG    1       -3.331  -5.926   1.325  0.00  0.00    +0.039 A 
ATOM     14  C   LIG    1       -2.766  -4.675   1.189  0.00  0.00    +0.013 A 
ENDBRANCH   3   8
BRANCH   1  20
ATOM     15  C   LIG    1       -0.027   1.387  -0.249  0.00  0.00    +0.015 A 
ATOM     16  C   LIG    1        1.151   2.088  -0.395  0.00  0.00    +0.046 A 
ATOM     17  C   LIG    1        2.351   1.407  -0.556  0.00  0.00    +0.117 A 
ATOM     18  C   LIG    1        2.369   0.019  -0.569  0.00  0.00    +0.046 A 
ATOM     19  C   LIG    1        1.196  -0.689  -0.423  0.00  0.00    +0.015 A 
ATOM     20  C   LIG    1       -0.012  -0.009  -0.261  0.00  0.00    +0.016 A 
BRANCH  17  21
ATOM     21  O   LIG    1        3.509   2.102  -0.701  0.00  0.00    -0.507 OA
ATOM     22  H   LIG    1        3.958   2.296   0.133  0.00  0.00    +0.292 HD
ENDBRANCH  17  21
ENDBRANCH   1  20
BRANCH   4  23
ATOM     23  C   LIG    1       -4.851  -1.030   0.206  0.00  0.00    +0.003 A 
ATOM     24  C   LIG    1       -5.588  -1.683   1.201  0.00  0.00    +0.030 A 
ATOM     25  C   LIG    1       -6.951  -1.483   1.264  0.00  0.00    +0.111 A 
ATOM     26  N   LIG    1       -7.560  -0.690   0.403  0.00  0.00    -0.263 NA
ATOM     27  C   LIG    1       -6.903  -0.055  -0.550  0.00  0.00    +0.111 A 
ATOM     28  C   LIG    1       -5.537  -0.193  -0.682  0.00  0.00    +0.030 A 
ENDBRANCH   4  23
TORSDOF 4
