REMARK  Name = ZINC34017481
REMARK                            x       y       z     vdW  Elec       q    Type
REMARK                         _______ _______ _______ _____ _____    ______ ____
ROOT
ATOM      1  C   LIG    1        0.525  -2.009  -1.824  0.00  0.00    -0.010 C 
ATOM      2  C   LIG    1        1.274  -2.299  -0.500  0.00  0.00    +0.004 C 
ATOM      3  C   LIG    1        1.821  -3.730  -0.680  0.00  0.00    +0.006 C 
ATOM      4  C   LIG    1        1.921  -3.974  -2.196  0.00  0.00    -0.035 C 
ATOM      5  C   LIG    1        1.427  -2.684  -2.887  0.00  0.00    +0.009 C 
ENDROOT
BRANCH   1   6
ATOM      6  C   LIG    1        0.428  -0.502  -2.074  0.00  0.00    +0.003 C 
BRANCH   6   8
ATOM      7  C   LIG    1       -0.614   1.631  -1.296  0.00  0.00    +0.004 C 
ATOM      8  C   LIG    1       -0.517   0.125  -1.046  0.00  0.00    -0.003 C 
ENDBRANCH   6   8
ENDBRANCH   1   6
BRANCH   4   9
ATOM      9  C   LIG    1        1.030  -5.152  -2.596  0.00  0.00    -0.079 C 
BRANCH   9  10
ATOM     10  N   LIG    1        1.543  -6.385  -1.982  0.00  0.00    +0.378 N 
ATOM     11  H   LIG    1        1.630  -6.253  -0.986  0.00  0.00    -0.090 HD
ATOM     12  H   LIG    1        2.447  -6.604  -2.373  0.00  0.00    -0.090 HD
ATOM     13  H   LIG    1        0.904  -7.143  -2.167  0.00  0.00    -0.090 HD
ENDBRANCH   9  10
ENDBRANCH   4   9
BRANCH   4  14
ATOM     14  C   LIG    1        3.373  -4.258  -2.587  0.00  0.00    +0.125 C 
BRANCH  14  15
ATOM     15  C   LIG    1        3.471  -4.400  -4.083  0.00  0.00    +0.305 C 
ATOM     16  O   LIG    1        2.492  -4.198  -4.781  0.00  0.00    -0.251 OA
BRANCH  15  17
ATOM     17  O   LIG    1        4.531  -4.718  -4.597  0.00  0.00    -0.481 OA
ATOM     18  H   LIG    1        5.283  -4.873  -4.061  0.00  0.00    +0.295 HD
ENDBRANCH  15  17
ENDBRANCH  14  15
ENDBRANCH   4  14
TORSDOF 7
