REMARK  Name = ZINC66252102
REMARK                            x       y       z     vdW  Elec       q    Type
REMARK                         _______ _______ _______ _____ _____    ______ ____
ROOT
ATOM      1  C   LIG    1        1.446  -3.947  -2.482  0.00  0.00    -0.024 A 
ATOM      2  C   LIG    1        2.437  -4.734  -2.034  0.00  0.00    +0.087 A 
ATOM      3  N   LIG    1        2.100  -6.050  -2.204  0.00  0.00    -0.360 N 
ATOM      4  C   LIG    1        0.852  -6.143  -2.781  0.00  0.00    +0.047 A 
ATOM      5  C   LIG    1        0.053  -7.216  -3.162  0.00  0.00    +0.029 A 
ATOM      6  C   LIG    1       -1.187  -6.987  -3.715  0.00  0.00    +0.040 A 
ATOM      7  C   LIG    1       -1.648  -5.690  -3.910  0.00  0.00    +0.124 A 
ATOM      8  F   LIG    1       -2.864  -5.485  -4.462  0.00  0.00    -0.205 F 
ATOM      9  C   LIG    1       -0.870  -4.613  -3.544  0.00  0.00    +0.048 A 
ATOM     10  H   LIG    1        2.658  -6.804  -1.956  0.00  0.00    +0.165 HD
ATOM     11  C   LIG    1        0.386  -4.830  -2.974  0.00  0.00    +0.005 A 
ENDROOT
BRANCH   1  12
ATOM     12  C   LIG    1        1.426  -2.440  -2.474  0.00  0.00    +0.018 C 
BRANCH  12  13
ATOM     13  C   LIG    1        0.710  -1.947  -1.215  0.00  0.00    -0.078 C 
BRANCH  13  14
ATOM     14  N   LIG    1        0.690  -0.478  -1.207  0.00  0.00    +0.379 N 
ATOM     15  H   LIG    1        1.636  -0.129  -1.214  0.00  0.00    -0.086 HD
ATOM     16  H   LIG    1        0.202  -0.144  -2.024  0.00  0.00    -0.086 HD
BRANCH  14  18
ATOM     17  C   LIG    1       -0.019   1.526   0.010  0.00  0.00    -0.017 C 
ATOM     18  C   LIG    1        0.002  -0.004   0.002  0.00  0.00    -0.086 C 
ENDBRANCH  14  18
ENDBRANCH  13  14
ENDBRANCH  12  13
ENDBRANCH   1  12
TORSDOF 4
