REMARK  Name = ZINC13759787
REMARK                            x       y       z     vdW  Elec       q    Type
REMARK                         _______ _______ _______ _____ _____    ______ ____
ROOT
ATOM      1  C   LIG    1        0.002  -0.004   0.002  0.00  0.00    -0.067 C 
ATOM      2  C   LIG    1        0.933  -0.481   1.123  0.00  0.00    -0.011 C 
ATOM      3  C   LIG    1        2.370  -0.138   0.735  0.00  0.00    +0.037 C 
ATOM      4  C   LIG    1        2.480   1.310   0.336  0.00  0.00    -0.003 A 
ATOM      5  C   LIG    1        1.384   2.072   0.000  0.00  0.00    -0.042 A 
ATOM      6  C   LIG    1        1.556   3.401  -0.366  0.00  0.00    +0.004 A 
ATOM      7  C   LIG    1        2.814   3.967  -0.392  0.00  0.00    +0.004 A 
ATOM      8  C   LIG    1        3.916   3.208  -0.051  0.00  0.00    +0.046 A 
ATOM      9  C   LIG    1        3.751   1.882   0.313  0.00  0.00    +0.124 A 
ATOM     10  C   LIG    1       -0.019   1.523   0.010  0.00  0.00    +0.020 C 
ENDROOT
BRANCH   1  11
ATOM     11  N   LIG    1       -1.358  -0.521   0.242  0.00  0.00    +0.381 N 
ATOM     12  H   LIG    1       -1.847   0.102   0.896  0.00  0.00    -0.086 HD
ATOM     13  H   LIG    1       -1.296  -1.462   0.648  0.00  0.00    -0.086 HD
BRANCH  11  14
ATOM     14  C   LIG    1       -2.112  -0.587  -1.024  0.00  0.00    -0.082 C 
BRANCH  14  16
ATOM     15  C   LIG    1       -4.306  -1.197  -2.053  0.00  0.00    +0.002 C 
ATOM     16  C   LIG    1       -3.517  -1.126  -0.744  0.00  0.00    -0.022 C 
ENDBRANCH  14  16
ENDBRANCH  11  14
ENDBRANCH   1  11
BRANCH   9  17
ATOM     17  O   LIG    1        4.834   1.133   0.648  0.00  0.00    -0.495 OA
ATOM     18  C   LIG    1        6.108   1.779   0.603  0.00  0.00    +0.277 C 
ENDBRANCH   9  17
TORSDOF 4
