REMARK  Name = ZINC28529300
REMARK                            x       y       z     vdW  Elec       q    Type
REMARK                         _______ _______ _______ _____ _____    ______ ____
ROOT
ATOM      1  C   LIG    1        3.127   0.435   3.454  0.00  0.00    +0.031 A 
ATOM      2  C   LIG    1        2.760  -0.139   4.669  0.00  0.00    +0.046 A 
ATOM      3  C   LIG    1        1.540  -0.776   4.798  0.00  0.00    +0.038 A 
ATOM      4  C   LIG    1        0.678  -0.853   3.693  0.00  0.00    +0.023 A 
ATOM      5  C   LIG    1       -0.643  -1.448   3.476  0.00  0.00    +0.031 A 
ATOM      6  C   LIG    1       -0.978  -1.206   2.200  0.00  0.00    +0.113 A 
ATOM      7  N   LIG    1        0.024  -0.502   1.581  0.00  0.00    -0.218 N 
ATOM      8  C   LIG    1        1.053  -0.277   2.468  0.00  0.00    +0.076 A 
ATOM      9  C   LIG    1        2.282   0.368   2.360  0.00  0.00    +0.051 A 
ENDROOT
BRANCH   1  11
ATOM     10  C   LIG    1        5.259   1.158   4.492  0.00  0.00    +0.125 C 
ATOM     11  N   LIG    1        4.360   1.083   3.338  0.00  0.00    -0.347 N 
ATOM     12  H   LIG    1        4.654   1.538   2.381  0.00  0.00    +0.146 HD
ENDBRANCH   1  11
BRANCH   3  13
ATOM     13  N   LIG    1        1.173  -1.352   6.015  0.00  0.00    -0.346 N 
ATOM     14  H   LIG    1        0.207  -1.869   6.110  0.00  0.00    +0.146 HD
ATOM     15  C   LIG    1        2.076  -1.268   7.166  0.00  0.00    +0.125 C 
ENDBRANCH   3  13
BRANCH   7  16
ATOM     16  S   LIG    1        0.002  -0.004   0.002  0.00  0.00    +0.084 S 
ATOM     17  O   LIG    1        1.248  -0.390  -0.563  0.00  0.00    -0.148 OA
ATOM     18  O   LIG    1       -1.243  -0.424  -0.539  0.00  0.00    -0.148 OA
BRANCH  16  19
ATOM     19  C   LIG    1       -0.022   1.758   0.012  0.00  0.00    +0.111 A 
ATOM     20  C   LIG    1       -1.228   2.433   0.021  0.00  0.00    +0.029 A 
ATOM     21  C   LIG    1       -1.247   3.815   0.034  0.00  0.00    +0.002 A 
ATOM     22  C   LIG    1       -0.059   4.522   0.026  0.00  0.00    +0.000 A 
ATOM     23  C   LIG    1        1.147   3.847   0.011  0.00  0.00    +0.002 A 
ATOM     24  C   LIG    1        1.166   2.465   0.004  0.00  0.00    +0.029 A 
ENDBRANCH  16  19
ENDBRANCH   7  16
TORSDOF 4
