REMARK  Name = ZINC21524911
REMARK                            x       y       z     vdW  Elec       q    Type
REMARK                         _______ _______ _______ _____ _____    ______ ____
ROOT
ATOM      1  C   LIG    1        3.635   2.124   0.052  0.00  0.00    +0.069 A 
ATOM      2  C   LIG    1        3.943   3.144  -0.814  0.00  0.00    +0.089 A 
ATOM      3  C   LIG    1        5.325   3.575  -0.484  0.00  0.00    +0.082 A 
ATOM      4  N   LIG    1        5.902   4.618  -1.223  0.00  0.00    -0.294 N 
ATOM      5  C   LIG    1        7.262   5.088  -0.946  0.00  0.00    +0.154 C 
ATOM      6  C   LIG    1        5.153   5.171  -2.203  0.00  0.00    +0.332 A 
ATOM      7  N   LIG    1        3.909   4.807  -2.528  0.00  0.00    -0.263 N 
ATOM      8  C   LIG    1        3.245   5.518  -3.623  0.00  0.00    +0.157 C 
ATOM      9  O   LIG    1        5.652   6.076  -2.842  0.00  0.00    -0.246 OA
ATOM     10  C   LIG    1        5.730   2.811   0.520  0.00  0.00    +0.076 A 
ATOM     11  C   LIG    1        7.064   2.794   1.235  0.00  0.00    +0.186 C 
ATOM     12  N   LIG    1        6.840   2.251   2.588  0.00  0.00    -0.328 N 
ATOM     13  H   LIG    1        7.369   2.687   3.450  0.00  0.00    +0.147 HD
ATOM     14  C   LIG    1        5.956   1.183   2.774  0.00  0.00    +0.052 A 
ATOM     15  C   LIG    1        6.145   0.286   3.814  0.00  0.00    +0.025 A 
ATOM     16  C   LIG    1        5.236  -0.737   4.016  0.00  0.00    +0.002 A 
ATOM     17  C   LIG    1        4.137  -0.870   3.187  0.00  0.00    +0.002 A 
ATOM     18  C   LIG    1        3.943   0.015   2.142  0.00  0.00    +0.028 A 
ATOM     19  C   LIG    1        4.856   1.030   1.925  0.00  0.00    +0.068 A 
ATOM     20  C   LIG    1        3.224   3.815  -1.902  0.00  0.00    +0.266 A 
ATOM     21  O   LIG    1        2.092   3.504  -2.221  0.00  0.00    -0.267 OA
ATOM     22  N   LIG    1        4.706   1.941   0.869  0.00  0.00    -0.306 N 
ENDROOT
BRANCH   1  28
ATOM     23  C   LIG    1       -0.409   0.612   2.551  0.00  0.00    +0.044 C 
ATOM     24  C   LIG    1        0.420   0.635   1.293  0.00  0.00    -0.050 A 
ATOM     25  C   LIG    1       -0.011  -0.049   0.170  0.00  0.00    +0.003 A 
ATOM     26  C   LIG    1        0.741  -0.028  -0.991  0.00  0.00    +0.001 A 
ATOM     27  C   LIG    1        1.927   0.676  -1.037  0.00  0.00    +0.010 A 
ATOM     28  C   LIG    1        2.368   1.368   0.093  0.00  0.00    -0.000 A 
ATOM     29  C   LIG    1        1.603   1.343   1.262  0.00  0.00    +0.013 A 
ENDBRANCH   1  28
BRANCH  11  30
ATOM     30  C   LIG    1        8.037   1.927   0.478  0.00  0.00    +0.131 A 
ATOM     31  C   LIG    1        8.022   0.583   0.431  0.00  0.00    +0.047 A 
ATOM     32  C   LIG    1        9.106   0.189  -0.388  0.00  0.00    +0.045 A 
ATOM     33  C   LIG    1        9.718   1.317  -0.792  0.00  0.00    +0.102 A 
ATOM     34  C   LIG    1       10.930   1.390  -1.684  0.00  0.00    +0.086 C 
ATOM     35  O   LIG    1        9.063   2.366  -0.269  0.00  0.00    -0.463 OA
ENDBRANCH  11  30
TORSDOF 2
