REMARK  Name = ZINC37858694
REMARK                            x       y       z     vdW  Elec       q    Type
REMARK                         _______ _______ _______ _____ _____    ______ ____
ROOT
ATOM      1  C   LIG    1        0.512  -0.559  -1.139  0.00  0.00    +0.162 A 
ATOM      2  C   LIG    1        0.975   0.188  -2.214  0.00  0.00    +0.050 A 
ATOM      3  C   LIG    1        1.618  -0.433  -3.262  0.00  0.00    +0.012 A 
ATOM      4  C   LIG    1        1.806  -1.821  -3.245  0.00  0.00    -0.020 A 
ATOM      5  C   LIG    1        1.338  -2.572  -2.159  0.00  0.00    +0.057 A 
ATOM      6  C   LIG    1        0.700  -1.940  -1.111  0.00  0.00    +0.162 A 
ENDROOT
BRANCH   1   8
ATOM      7  C   LIG    1       -0.281   1.476  -0.201  0.00  0.00    +0.277 C 
ATOM      8  O   LIG    1       -0.122   0.059  -0.108  0.00  0.00    -0.491 OA
ENDBRANCH   1   8
BRANCH   4   9
ATOM      9  C   LIG    1        2.490  -2.485  -4.360  0.00  0.00    +0.027 C 
ATOM     10  C   LIG    1        3.454  -1.824  -5.058  0.00  0.00    +0.061 C 
BRANCH  10  11
ATOM     11  C   LIG    1        4.034  -2.432  -6.278  0.00  0.00    +0.010 A 
ATOM     12  C   LIG    1        5.381  -2.806  -6.315  0.00  0.00    +0.012 A 
ATOM     13  C   LIG    1        5.874  -3.371  -7.478  0.00  0.00    +0.020 A 
ATOM     14  C   LIG    1        5.026  -3.545  -8.557  0.00  0.00    +0.111 A 
ATOM     15  N   LIG    1        3.760  -3.183  -8.494  0.00  0.00    -0.263 NA
ATOM     16  C   LIG    1        3.244  -2.647  -7.407  0.00  0.00    +0.119 A 
ENDBRANCH  10  11
BRANCH  10  17
ATOM     17  C   LIG    1        3.909  -0.541  -4.612  0.00  0.00    +0.100 C 
ATOM     18  N   LIG    1        4.269   0.476  -4.259  0.00  0.00    -0.191 NA
ENDBRANCH  10  17
ENDBRANCH   4   9
BRANCH   6  19
ATOM     19  O   LIG    1        0.249  -2.666  -0.053  0.00  0.00    -0.491 OA
ATOM     20  C   LIG    1        0.475  -4.077  -0.090  0.00  0.00    +0.277 C 
ENDBRANCH   6  19
TORSDOF 5
