REMARK  Name = ZINC29549442
REMARK                            x       y       z     vdW  Elec       q    Type
REMARK                         _______ _______ _______ _____ _____    ______ ____
ROOT
ATOM      1  C   LIG    1        2.498   3.360  -0.004  0.00  0.00    +0.166 C 
ENDROOT
BRANCH   1   2
ATOM      2  N   LIG    1        2.730   3.789  -1.385  0.00  0.00    -0.322 N 
ATOM      3  C   LIG    1        3.859   3.554  -2.138  0.00  0.00    +0.106 A 
ATOM      4  C   LIG    1        3.653   4.119  -3.340  0.00  0.00    +0.102 A 
ATOM      5  N   LIG    1        2.436   4.688  -3.337  0.00  0.00    -0.340 N 
ATOM      6  H   LIG    1        2.072   5.212  -4.233  0.00  0.00    +0.167 HD
ATOM      7  C   LIG    1        1.868   4.492  -2.170  0.00  0.00    +0.158 A 
ATOM      8  S   LIG    1        0.264   5.048  -1.698  0.00  0.00    -0.013 S 
ENDBRANCH   1   2
BRANCH   1  13
ATOM      9  C   LIG    1       -1.155  -0.969   0.008  0.00  0.00    +0.051 C 
ATOM     10  C   LIG    1        0.002  -0.004   0.002  0.00  0.00    -0.013 A 
ATOM     11  C   LIG    1        1.332  -0.266  -0.012  0.00  0.00    +0.011 A 
ATOM     12  C   LIG    1        2.223   0.790  -0.015  0.00  0.00    +0.013 A 
ATOM     13  C   LIG    1        1.742   2.057  -0.004  0.00  0.00    +0.010 A 
ATOM     14  S   LIG    1       -0.022   1.781   0.012  0.00  0.00    -0.097 S 
ENDBRANCH   1  13
TORSDOF 2
