REMARK  Name = ZINC26752503
REMARK                            x       y       z     vdW  Elec       q    Type
REMARK                         _______ _______ _______ _____ _____    ______ ____
ROOT
ATOM      1  C   LIG    1       -0.013   1.086   0.008  0.00  0.00    +0.178 C 
ATOM      2  C   LIG    1       -0.753   1.593  -1.232  0.00  0.00    +0.193 C 
ATOM      3  C   LIG    1       -0.037   1.099  -2.490  0.00  0.00    +0.193 C 
ATOM      4  C   LIG    1        1.399   1.629  -2.501  0.00  0.00    +0.178 C 
ATOM      5  C   LIG    1        2.139   1.122  -1.262  0.00  0.00    +0.193 C 
ATOM      6  C   LIG    1        1.423   1.615  -0.003  0.00  0.00    +0.193 C 
ENDROOT
BRANCH   4   7
ATOM      7  O   LIG    1        2.068   1.168  -3.677  0.00  0.00    -0.386 OA
ATOM      8  H   LIG    1        2.985   1.466  -3.750  0.00  0.00    +0.210 HD
ENDBRANCH   4   7
BRANCH   1   9
ATOM      9  O   LIG    1       -0.682   1.547   1.184  0.00  0.00    -0.386 OA
ATOM     10  H   LIG    1       -0.266   1.262   2.009  0.00  0.00    +0.210 HD
ENDBRANCH   1   9
BRANCH   5  11
ATOM     11  O   LIG    1        2.158  -0.307  -1.270  0.00  0.00    -0.278 OA
BRANCH  11  12
ATOM     12  P   LIG    1        3.520  -1.165  -1.287  0.00  0.00    +0.473 P 
ATOM     13  O   LIG    1        4.402  -0.721  -2.503  0.00  0.00    -0.228 OA
BRANCH  12  14
ATOM     14  O   LIG    1        4.308  -0.923   0.045  0.00  0.00    -0.303 OA
ATOM     15  H   LIG    1        4.521   0.020   0.128  0.00  0.00    +0.222 HD
ENDBRANCH  12  14
BRANCH  12  16
ATOM     16  O   LIG    1        3.176  -2.688  -1.421  0.00  0.00    -0.303 OA
ATOM     17  H   LIG    1        2.689  -2.838  -2.246  0.00  0.00    +0.222 HD
ENDBRANCH  12  16
ENDBRANCH  11  12
ENDBRANCH   5  11
BRANCH   3  18
ATOM     18  O   LIG    1       -0.728   1.573  -3.648  0.00  0.00    -0.278 OA
BRANCH  18  19
ATOM     19  P   LIG    1       -1.363   0.589  -4.753  0.00  0.00    +0.473 P 
ATOM     20  O   LIG    1       -0.256  -0.383  -5.286  0.00  0.00    -0.228 OA
BRANCH  19  21
ATOM     21  O   LIG    1       -2.522  -0.243  -4.106  0.00  0.00    -0.303 OA
ATOM     22  H   LIG    1       -2.171  -0.768  -3.370  0.00  0.00    +0.222 HD
ENDBRANCH  19  21
BRANCH  19  23
ATOM     23  O   LIG    1       -1.930   1.437  -5.942  0.00  0.00    -0.303 OA
ATOM     24  H   LIG    1       -1.212   1.952  -6.343  0.00  0.00    +0.222 HD
ENDBRANCH  19  23
ENDBRANCH  18  19
ENDBRANCH   3  18
BRANCH   6  25
ATOM     25  O   LIG    1        2.114   1.142   1.155  0.00  0.00    -0.278 OA
BRANCH  25  26
ATOM     26  P   LIG    1        2.749   2.125   2.260  0.00  0.00    +0.473 P 
ATOM     27  O   LIG    1        3.726   3.133   1.563  0.00  0.00    -0.228 OA
BRANCH  26  28
ATOM     28  O   LIG    1        1.603   2.919   2.974  0.00  0.00    -0.303 OA
ATOM     29  H   LIG    1        1.115   3.442   2.318  0.00  0.00    +0.222 HD
ENDBRANCH  26  28
BRANCH  26  30
ATOM     30  O   LIG    1        3.538   1.281   3.318  0.00  0.00    -0.303 OA
ATOM     31  H   LIG    1        4.248   0.790   2.876  0.00  0.00    +0.222 HD
ENDBRANCH  26  30
ENDBRANCH  25  26
ENDBRANCH   6  25
BRANCH   2  32
ATOM     32  O   LIG    1       -0.772   3.022  -1.224  0.00  0.00    -0.278 OA
BRANCH  32  33
ATOM     33  P   LIG    1       -2.134   3.880  -1.206  0.00  0.00    +0.473 P 
ATOM     34  O   LIG    1       -3.027   3.454  -2.393  0.00  0.00    -0.228 OA
BRANCH  33  35
ATOM     35  O   LIG    1       -2.885   3.627   0.120  0.00  0.00    -0.303 OA
ATOM     36  H   LIG    1       -3.097   2.683   0.197  0.00  0.00    +0.222 HD
ENDBRANCH  33  35
BRANCH  33  37
ATOM     37  O   LIG    1       -1.783   5.446  -1.333  0.00  0.00    -0.303 OA
ATOM     38  H   LIG    1       -2.558   6.024  -1.329  0.00  0.00    +0.222 HD
ENDBRANCH  33  37
ENDBRANCH  32  33
ENDBRANCH   2  32
TORSDOF 18
