REMARK  Name = ZINC28465567
REMARK                            x       y       z     vdW  Elec       q    Type
REMARK                         _______ _______ _______ _____ _____    ______ ____
ROOT
ATOM      1  C   LIG    1       -1.414  -2.036   0.129  0.00  0.00    -0.049 A 
ATOM      2  C   LIG    1       -1.374  -2.815  -1.014  0.00  0.00    +0.004 A 
ATOM      3  C   LIG    1       -1.356  -4.192  -0.911  0.00  0.00    +0.015 A 
ATOM      4  C   LIG    1       -1.378  -4.795   0.341  0.00  0.00    +0.008 A 
ATOM      5  C   LIG    1       -1.417  -4.009   1.486  0.00  0.00    +0.015 A 
ATOM      6  C   LIG    1       -1.429  -2.632   1.376  0.00  0.00    +0.004 A 
ENDROOT
BRANCH   1   7
ATOM      7  C   LIG    1       -1.433  -0.534   0.013  0.00  0.00    +0.018 C 
BRANCH   7   9
ATOM      8  C   LIG    1       -0.019   1.526   0.010  0.00  0.00    -0.014 C 
ATOM      9  C   LIG    1        0.002  -0.004   0.002  0.00  0.00    -0.074 C 
BRANCH   9  10
ATOM     10  N   LIG    1        0.690  -0.478  -1.207  0.00  0.00    +0.380 N 
ATOM     11  H   LIG    1        0.202  -0.144  -2.024  0.00  0.00    -0.090 HD
ATOM     12  H   LIG    1        0.703  -1.487  -1.212  0.00  0.00    -0.090 HD
ATOM     13  H   LIG    1        1.636  -0.129  -1.214  0.00  0.00    -0.090 HD
ENDBRANCH   9  10
ENDBRANCH   7   9
ENDBRANCH   1   7
BRANCH   4  14
ATOM     14  S   LIG    1       -1.356  -6.552   0.476  0.00  0.00    -0.125 S 
BRANCH  14  15
ATOM     15  C   LIG    1       -1.394  -6.855   2.264  0.00  0.00    +0.077 C 
BRANCH  15  16
ATOM     16  C   LIG    1       -1.379  -8.362   2.526  0.00  0.00    -0.007 C 
ATOM     17  C   LIG    1       -1.537  -8.620   4.026  0.00  0.00    +0.008 C 
ATOM     18  C   LIG    1       -0.051  -8.950   2.044  0.00  0.00    +0.008 C 
ENDBRANCH  15  16
ENDBRANCH  14  15
ENDBRANCH   4  14
TORSDOF 6
