REMARK  Name = ZINC19142621
REMARK                            x       y       z     vdW  Elec       q    Type
REMARK                         _______ _______ _______ _____ _____    ______ ____
ROOT
ATOM      1  C   LIG    1        2.655   1.292  -0.241  0.00  0.00    +0.000 A 
ATOM      2  C   LIG    1        1.513   2.066  -0.156  0.00  0.00    +0.002 A 
ATOM      3  C   LIG    1        0.275   1.472  -0.029  0.00  0.00    +0.023 A 
ATOM      4  C   LIG    1        0.167   0.083   0.015  0.00  0.00    +0.037 A 
ATOM      5  C   LIG    1        1.322  -0.684  -0.070  0.00  0.00    -0.013 A 
ATOM      6  C   LIG    1        0.880  -2.127   0.006  0.00  0.00    +0.135 C 
ATOM      7  C   LIG    1       -0.625  -2.045   0.140  0.00  0.00    +0.226 C 
ATOM      8  O   LIG    1       -1.392  -2.980   0.234  0.00  0.00    -0.275 OA
ATOM      9  N   LIG    1       -0.952  -0.742   0.137  0.00  0.00    -0.285 N 
ATOM     10  H   LIG    1       -1.861  -0.412   0.211  0.00  0.00    +0.155 HD
ATOM     11  C   LIG    1        2.557  -0.088  -0.197  0.00  0.00    +0.006 A 
ENDROOT
BRANCH   6  12
ATOM     12  C   LIG    1        1.491  -2.811   1.231  0.00  0.00    +0.216 C 
BRANCH  12  13
ATOM     13  C   LIG    1        1.059  -4.254   1.269  0.00  0.00    +0.323 C 
ATOM     14  O   LIG    1        0.438  -4.723   0.345  0.00  0.00    -0.250 OA
BRANCH  13  15
ATOM     15  O   LIG    1        1.362  -5.018   2.331  0.00  0.00    -0.480 OA
ATOM     16  H   LIG    1        1.843  -4.653   3.048  0.00  0.00    +0.295 HD
ENDBRANCH  13  15
ENDBRANCH  12  13
BRANCH  12  17
ATOM     17  C   LIG    1        1.034  -2.129   2.453  0.00  0.00    +0.078 C 
ATOM     18  N   LIG    1        0.681  -1.602   3.395  0.00  0.00    -0.196 NA
ENDBRANCH  12  17
ENDBRANCH   6  12
TORSDOF 4
