REMARK  Name = ZINC14191684
REMARK                            x       y       z     vdW  Elec       q    Type
REMARK                         _______ _______ _______ _____ _____    ______ ____
ROOT
ATOM      1  C   LIG    1        0.354   1.457   0.457  0.00  0.00    +0.162 A 
ATOM      2  C   LIG    1        0.233   0.101   0.229  0.00  0.00    +0.057 A 
ATOM      3  C   LIG    1        1.377  -0.709   0.220  0.00  0.00    -0.020 A 
ATOM      4  C   LIG    1        2.637  -0.137   0.444  0.00  0.00    +0.012 A 
ATOM      5  C   LIG    1        2.747   1.216   0.670  0.00  0.00    +0.050 A 
ATOM      6  C   LIG    1        1.612   2.018   0.678  0.00  0.00    +0.162 A 
ENDROOT
BRANCH   1   8
ATOM      7  C   LIG    1       -2.008   1.607   0.221  0.00  0.00    +0.277 C 
ATOM      8  O   LIG    1       -0.753   2.247   0.460  0.00  0.00    -0.491 OA
ENDBRANCH   1   8
BRANCH   3   9
ATOM      9  C   LIG    1        1.256  -2.148  -0.021  0.00  0.00    +0.032 C 
ATOM     10  C   LIG    1        2.240  -2.815  -0.719  0.00  0.00    +0.114 C 
BRANCH  10  11
ATOM     11  C   LIG    1        2.205  -4.282  -0.818  0.00  0.00    +0.260 C 
ATOM     12  N   LIG    1        3.167  -4.935  -1.500  0.00  0.00    -0.259 N 
ATOM     13  H   LIG    1        3.883  -4.436  -1.926  0.00  0.00    +0.157 HD
ATOM     14  O   LIG    1        1.308  -4.907  -0.284  0.00  0.00    -0.269 OA
BRANCH  12  15
ATOM     15  C   LIG    1        3.134  -6.321  -1.594  0.00  0.00    +0.188 A 
ATOM     16  N   LIG    1        2.263  -7.189  -1.098  0.00  0.00    -0.125 NA
ATOM     17  N   LIG    1        2.385  -8.431  -1.281  0.00  0.00    -0.136 NA
ATOM     18  C   LIG    1        3.382  -8.944  -1.975  0.00  0.00    +0.206 A 
ATOM     19  S   LIG    1        4.252  -7.446  -2.426  0.00  0.00    -0.027 S 
BRANCH  18  20
ATOM     20  C   LIG    1        3.696 -10.382  -2.300  0.00  0.00    +0.443 C 
ATOM     21  F   LIG    1        4.898 -10.747  -1.684  0.00  0.00    -0.164 F 
ATOM     22  F   LIG    1        3.818 -10.531  -3.685  0.00  0.00    -0.164 F 
ATOM     23  F   LIG    1        2.664 -11.202  -1.832  0.00  0.00    -0.164 F 
ENDBRANCH  18  20
ENDBRANCH  12  15
ENDBRANCH  10  11
BRANCH  10  24
ATOM     24  C   LIG    1        3.296  -2.080  -1.347  0.00  0.00    +0.104 C 
ATOM     25  N   LIG    1        4.134  -1.497  -1.845  0.00  0.00    -0.191 NA
ENDBRANCH  10  24
ENDBRANCH   3   9
BRANCH   6  26
ATOM     26  O   LIG    1        1.728   3.352   0.902  0.00  0.00    -0.484 OA
BRANCH  26  27
ATOM     27  C   LIG    1        3.045   3.861   1.122  0.00  0.00    +0.265 C 
BRANCH  27  28
ATOM     28  C   LIG    1        2.976   5.349   1.351  0.00  0.00    +0.001 A 
ATOM     29  C   LIG    1        1.755   5.997   1.325  0.00  0.00    +0.008 A 
ATOM     30  C   LIG    1        1.693   7.362   1.535  0.00  0.00    +0.013 A 
ATOM     31  C   LIG    1        2.851   8.079   1.771  0.00  0.00    +0.055 A 
ATOM     32  C   LIG    1        4.072   7.431   1.797  0.00  0.00    +0.025 A 
ATOM     33  C   LIG    1        4.134   6.065   1.592  0.00  0.00    +0.062 A 
BRANCH  31  34
ATOM     34  C   LIG    1        2.782   9.566   2.001  0.00  0.00    +0.417 C 
ATOM     35  F   LIG    1        3.535  10.225   1.022  0.00  0.00    -0.166 F 
ATOM     36  F   LIG    1        3.298   9.867   3.266  0.00  0.00    -0.166 F 
ATOM     37  F   LIG    1        1.451   9.989   1.928  0.00  0.00    -0.166 F 
ENDBRANCH  31  34
BRANCH  33  38
ATOM     38  C   LIG    1        5.464   5.358   1.626  0.00  0.00    +0.418 C 
ATOM     39  F   LIG    1        5.698   4.744   0.391  0.00  0.00    -0.166 F 
ATOM     40  F   LIG    1        5.450   4.388   2.634  0.00  0.00    -0.166 F 
ATOM     41  F   LIG    1        6.479   6.285   1.886  0.00  0.00    -0.166 F 
ENDBRANCH  33  38
ENDBRANCH  27  28
ENDBRANCH  26  27
ENDBRANCH   6  26
TORSDOF 11
