REMARK  Name = ZINC13826961
REMARK                            x       y       z     vdW  Elec       q    Type
REMARK                         _______ _______ _______ _____ _____    ______ ____
ROOT
ATOM      1  C   LIG    1       -6.728   1.157  -0.882  0.00  0.00    +0.155 C 
ATOM      2  N   LIG    1       -6.819   0.589  -2.230  0.00  0.00    -0.281 N 
ATOM      3  C   LIG    1       -5.688   0.063  -2.837  0.00  0.00    +0.146 A 
ATOM      4  N   LIG    1       -4.419  -0.067  -2.453  0.00  0.00    -0.326 N 
ATOM      5  H   LIG    1       -4.041   0.235  -1.547  0.00  0.00    +0.169 HD
ATOM      6  C   LIG    1       -3.718  -0.644  -3.417  0.00  0.00    +0.111 A 
ATOM      7  N   LIG    1       -4.542  -0.917  -4.472  0.00  0.00    -0.334 N 
ATOM      8  H   LIG    1       -4.283  -1.353  -5.333  0.00  0.00    +0.168 HD
ATOM      9  C   LIG    1       -5.802  -0.471  -4.117  0.00  0.00    +0.147 A 
ATOM     10  C   LIG    1       -7.059  -0.462  -4.756  0.00  0.00    +0.282 A 
ATOM     11  N   LIG    1       -8.121   0.065  -4.113  0.00  0.00    -0.262 N 
ATOM     12  C   LIG    1       -9.430   0.077  -4.772  0.00  0.00    +0.157 C 
ATOM     13  O   LIG    1       -7.184  -0.924  -5.876  0.00  0.00    -0.265 OA
ATOM     14  C   LIG    1       -7.999   0.578  -2.877  0.00  0.00    +0.333 A 
ATOM     15  O   LIG    1       -8.979   1.044  -2.329  0.00  0.00    -0.246 OA
ENDROOT
BRANCH   6  16
ATOM     16  C   LIG    1       -2.287  -0.948  -3.357  0.00  0.00    +0.045 C 
ATOM     17  C   LIG    1       -1.575  -0.630  -2.257  0.00  0.00    +0.015 C 
BRANCH  17  18
ATOM     18  C   LIG    1       -0.138  -0.936  -2.197  0.00  0.00    +0.020 A 
ATOM     19  C   LIG    1        0.496  -1.552  -3.282  0.00  0.00    +0.012 A 
ATOM     20  C   LIG    1        1.842  -1.841  -3.220  0.00  0.00    +0.004 A 
ATOM     21  C   LIG    1        2.575  -1.520  -2.088  0.00  0.00    +0.049 A 
ATOM     22  C   LIG    1        1.962  -0.906  -1.008  0.00  0.00    +0.162 A 
ATOM     23  C   LIG    1        0.606  -0.607  -1.055  0.00  0.00    +0.169 A 
BRANCH  22  24
ATOM     24  O   LIG    1        2.689  -0.595   0.099  0.00  0.00    -0.491 OA
ATOM     25  C   LIG    1        4.078  -0.931   0.079  0.00  0.00    +0.277 C 
ENDBRANCH  22  24
BRANCH  23  26
ATOM     26  O   LIG    1        0.002  -0.004   0.002  0.00  0.00    -0.491 OA
ATOM     27  C   LIG    1       -0.017   1.425   0.010  0.00  0.00    +0.277 C 
ENDBRANCH  23  26
ENDBRANCH  17  18
ENDBRANCH   6  16
TORSDOF 4
