REMARK  Name = ZINC20892069
REMARK                            x       y       z     vdW  Elec       q    Type
REMARK                         _______ _______ _______ _____ _____    ______ ____
ROOT
ATOM      1  C   LIG    1       -2.566   0.181  -0.086  0.00  0.00    +0.132 C 
ATOM      2  N   LIG    1       -2.442   1.641  -0.079  0.00  0.00    -0.295 N 
ATOM      3  C   LIG    1       -1.268   2.216   0.248  0.00  0.00    +0.263 C 
ATOM      4  O   LIG    1       -1.170   3.428   0.272  0.00  0.00    -0.268 OA
ENDROOT
BRANCH   3   5
ATOM      5  C   LIG    1       -0.105   1.378   0.576  0.00  0.00    +0.103 A 
ATOM      6  C   LIG    1        1.176   1.817   0.684  0.00  0.00    +0.040 A 
ATOM      7  C   LIG    1        1.988   0.702   1.005  0.00  0.00    +0.000 A 
ATOM      8  C   LIG    1        3.361   0.546   1.235  0.00  0.00    +0.010 A 
ATOM      9  C   LIG    1        3.864  -0.688   1.533  0.00  0.00    +0.001 A 
ATOM     10  C   LIG    1        3.026  -1.793   1.610  0.00  0.00    +0.002 A 
ATOM     11  C   LIG    1        1.673  -1.666   1.387  0.00  0.00    +0.026 A 
ATOM     12  C   LIG    1        1.137  -0.418   1.083  0.00  0.00    +0.047 A 
ATOM     13  N   LIG    1       -0.140   0.018   0.817  0.00  0.00    -0.351 N 
ATOM     14  H   LIG    1       -1.096  -0.524   0.774  0.00  0.00    +0.166 HD
ENDBRANCH   3   5
BRANCH   2  15
ATOM     15  C   LIG    1       -3.595   2.475  -0.426  0.00  0.00    +0.142 C 
BRANCH  15  16
ATOM     16  C   LIG    1       -3.598   2.735  -1.911  0.00  0.00    -0.030 A 
ATOM     17  C   LIG    1       -2.943   3.841  -2.420  0.00  0.00    +0.005 A 
ATOM     18  C   LIG    1       -2.941   4.077  -3.782  0.00  0.00    +0.000 A 
ATOM     19  C   LIG    1       -3.603   3.212  -4.634  0.00  0.00    +0.000 A 
ATOM     20  C   LIG    1       -4.262   2.109  -4.124  0.00  0.00    +0.000 A 
ATOM     21  C   LIG    1       -4.259   1.871  -2.763  0.00  0.00    +0.005 A 
ENDBRANCH  15  16
ENDBRANCH   2  15
TORSDOF 3
