REMARK  Name = ZINC18150621
REMARK                            x       y       z     vdW  Elec       q    Type
REMARK                         _______ _______ _______ _____ _____    ______ ____
ROOT
ATOM      1  C   LIG    1       -2.477  -1.920  -0.813  0.00  0.00    +0.048 A 
ATOM      2  C   LIG    1       -3.596  -2.702  -0.867  0.00  0.00    +0.115 A 
ATOM      3  N   LIG    1       -4.335  -2.927   0.207  0.00  0.00    -0.238 NA
ATOM      4  C   LIG    1       -4.038  -2.413   1.389  0.00  0.00    +0.144 A 
ATOM      5  C   LIG    1       -2.905  -1.597   1.534  0.00  0.00    +0.128 A 
ATOM      6  N   LIG    1       -2.337  -0.934   2.571  0.00  0.00    -0.232 NA
ATOM      7  C   LIG    1       -1.269  -0.315   2.160  0.00  0.00    +0.201 A 
ATOM      8  N   LIG    1       -1.086  -0.534   0.828  0.00  0.00    -0.320 N 
ATOM      9  C   LIG    1       -2.108  -1.348   0.403  0.00  0.00    +0.074 A 
ENDROOT
BRANCH   8  10
ATOM     10  C   LIG    1        0.002  -0.004   0.002  0.00  0.00    +0.143 C 
ATOM     11  C   LIG    1        1.341  -0.373   0.596  0.00  0.00    +0.004 C 
ATOM     12  C   LIG    1        2.154   0.648   0.594  0.00  0.00    -0.016 C 
ATOM     13  C   LIG    1        1.492   1.869  -0.002  0.00  0.00    +0.173 C 
ATOM     14  C   LIG    1       -0.019   1.542   0.011  0.00  0.00    +0.174 C 
BRANCH  13  15
ATOM     15  O   LIG    1        1.946   2.076  -1.341  0.00  0.00    -0.385 OA
ATOM     16  H   LIG    1        2.888   2.285  -1.410  0.00  0.00    +0.210 HD
ENDBRANCH  13  15
BRANCH  14  17
ATOM     17  O   LIG    1       -0.641   2.040   1.196  0.00  0.00    -0.387 OA
ATOM     18  H   LIG    1       -0.677   3.005   1.246  0.00  0.00    +0.210 HD
ENDBRANCH  14  17
BRANCH  12  19
ATOM     19  C   LIG    1        3.567   0.614   1.117  0.00  0.00    +0.189 C 
BRANCH  19  20
ATOM     20  O   LIG    1        3.863  -0.696   1.606  0.00  0.00    -0.391 OA
ATOM     21  H   LIG    1        4.758  -0.791   1.959  0.00  0.00    +0.210 HD
ENDBRANCH  19  20
ENDBRANCH  12  19
ENDBRANCH   8  10
BRANCH   4  22
ATOM     22  N   LIG    1       -4.846  -2.680   2.486  0.00  0.00    -0.341 N 
ATOM     23  H   LIG    1       -5.629  -3.243   2.386  0.00  0.00    +0.144 HD
ATOM     24  H   LIG    1       -4.628  -2.303   3.353  0.00  0.00    +0.144 HD
ENDBRANCH   4  22
TORSDOF 6
