REMARK  Name = ZINC00007673
REMARK                            x       y       z     vdW  Elec       q    Type
REMARK                         _______ _______ _______ _____ _____    ______ ____
ROOT
ATOM      1  C   LIG    1       -2.360   0.806  -0.583  0.00  0.00    +0.236 C 
ATOM      2  N   LIG    1       -3.625   1.258  -0.678  0.00  0.00    -0.310 N 
ATOM      3  H   LIG    1       -3.848   2.147  -0.361  0.00  0.00    +0.149 HD
ATOM      4  O   LIG    1       -2.081  -0.306  -0.980  0.00  0.00    -0.274 OA
ENDROOT
BRANCH   1   5
ATOM      5  C   LIG    1       -1.290   1.681   0.017  0.00  0.00    +0.185 C 
BRANCH   5   8
ATOM      6  C   LIG    1        2.462   0.920  -0.017  0.00  0.00    +0.109 C 
ATOM      7  C   LIG    1        1.147   1.655   0.000  0.00  0.00    +0.211 C 
ATOM      8  N   LIG    1       -0.011   0.966   0.007  0.00  0.00    -0.302 N 
ATOM      9  H   LIG    1        0.002  -0.004   0.002  0.00  0.00    +0.150 HD
ATOM     10  O   LIG    1        1.130   2.868   0.007  0.00  0.00    -0.276 OA
ENDBRANCH   5   8
BRANCH   5  11
ATOM     11  C   LIG    1       -1.667   2.032   1.458  0.00  0.00    +0.191 C 
BRANCH  11  12
ATOM     12  O   LIG    1       -1.900   0.830   2.196  0.00  0.00    -0.381 OA
ATOM     13  C   LIG    1       -2.260   1.047   3.561  0.00  0.00    +0.194 C 
ENDBRANCH  11  12
ENDBRANCH   5  11
ENDBRANCH   1   5
BRANCH   2  14
ATOM     14  C   LIG    1       -4.665   0.407  -1.262  0.00  0.00    +0.139 C 
BRANCH  14  15
ATOM     15  C   LIG    1       -5.981   1.143  -1.252  0.00  0.00    -0.030 A 
ATOM     16  C   LIG    1       -6.828   1.029  -0.166  0.00  0.00    +0.005 A 
ATOM     17  C   LIG    1       -8.032   1.708  -0.154  0.00  0.00    +0.000 A 
ATOM     18  C   LIG    1       -8.394   2.493  -1.233  0.00  0.00    +0.000 A 
ATOM     19  C   LIG    1       -7.549   2.602  -2.321  0.00  0.00    +0.000 A 
ATOM     20  C   LIG    1       -6.342   1.928  -2.331  0.00  0.00    +0.005 A 
ENDBRANCH  14  15
ENDBRANCH   2  14
TORSDOF 6
