REMARK  Name = ZINC20477217
REMARK                            x       y       z     vdW  Elec       q    Type
REMARK                         _______ _______ _______ _____ _____    ______ ____
ROOT
ATOM      1  C   LIG    1        3.699  -0.689  -0.037  0.00  0.00    -0.018 A 
ATOM      2  C   LIG    1        4.896   0.024  -0.040  0.00  0.00    +0.009 A 
ATOM      3  C   LIG    1        6.099  -0.652  -0.055  0.00  0.00    +0.005 A 
ATOM      4  C   LIG    1        6.118  -2.035  -0.068  0.00  0.00    -0.034 A 
ATOM      5  C   LIG    1        4.932  -2.748  -0.066  0.00  0.00    +0.005 A 
ATOM      6  C   LIG    1        3.724  -2.082  -0.045  0.00  0.00    +0.009 A 
ENDROOT
BRANCH   1  10
ATOM      7  C   LIG    1       -0.017   1.379   0.010  0.00  0.00    +0.000 A 
ATOM      8  C   LIG    1        1.169   2.092   0.002  0.00  0.00    +0.001 A 
ATOM      9  C   LIG    1        2.377   1.426  -0.013  0.00  0.00    +0.008 A 
ATOM     10  C   LIG    1        2.402   0.033  -0.021  0.00  0.00    -0.018 A 
ATOM     11  C   LIG    1        1.205  -0.680  -0.013  0.00  0.00    +0.008 A 
ATOM     12  C   LIG    1        0.002  -0.004   0.002  0.00  0.00    +0.001 A 
ENDBRANCH   1  10
BRANCH   4  13
ATOM     13  C   LIG    1        7.434  -2.768  -0.085  0.00  0.00    +0.116 C 
BRANCH  13  14
ATOM     14  N   LIG    1        7.872  -3.019   1.294  0.00  0.00    -0.311 NA
ATOM     15  H   LIG    1        7.928  -2.159   1.819  0.00  0.00    +0.122 HD
BRANCH  14  16
ATOM     16  C   LIG    1        9.156  -3.734   1.317  0.00  0.00    +0.040 C 
ATOM     17  C   LIG    1       10.305  -2.728   1.213  0.00  0.00    -0.060 C 
ATOM     18  N   LIG    1       11.162  -2.822   2.397  0.00  0.00    +0.381 N 
ATOM     19  H   LIG    1       11.907  -2.147   2.305  0.00  0.00    -0.082 HD
ATOM     20  C   LIG    1       10.405  -2.499   3.608  0.00  0.00    -0.078 C 
ATOM     21  C   LIG    1        9.260  -3.497   3.792  0.00  0.00    -0.014 C 
ATOM     22  C   LIG    1       11.755  -4.157   2.500  0.00  0.00    -0.078 C 
ATOM     23  C   LIG    1       10.653  -5.212   2.646  0.00  0.00    -0.014 C 
ATOM     24  C   LIG    1        9.290  -4.508   2.635  0.00  0.00    +0.001 C 
ENDBRANCH  14  16
ENDBRANCH  13  14
ENDBRANCH   4  13
TORSDOF 4
