REMARK  Name = ZINC26655396
REMARK                            x       y       z     vdW  Elec       q    Type
REMARK                         _______ _______ _______ _____ _____    ______ ____
ROOT
ATOM      1  N   LIG    1        1.368  -2.645  -1.403  0.00  0.00    -0.273 N 
ATOM      2  H   LIG    1        1.411  -2.009  -2.134  0.00  0.00    +0.258 HD
ENDROOT
BRANCH   1   3
ATOM      3  C   LIG    1        1.416  -3.987  -1.661  0.00  0.00    +0.341 C 
ATOM      4  N   LIG    1        1.522  -4.421  -2.915  0.00  0.00    -0.292 N 
ATOM      5  H   LIG    1        1.557  -5.373  -3.098  0.00  0.00    +0.255 HD
ATOM      6  H   LIG    1        1.566  -3.785  -3.647  0.00  0.00    +0.255 HD
BRANCH   3   7
ATOM      7  N   LIG    1        1.356  -4.861  -0.657  0.00  0.00    -0.292 N 
ATOM      8  H   LIG    1        1.391  -5.813  -0.839  0.00  0.00    +0.255 HD
ATOM      9  H   LIG    1        1.279  -4.545   0.257  0.00  0.00    +0.255 HD
ENDBRANCH   3   7
ENDBRANCH   1   3
BRANCH   1  10
ATOM     10  C   LIG    1        1.250  -2.168  -0.023  0.00  0.00    +0.251 C 
BRANCH  10  15
ATOM     11  C   LIG    1       -0.017   1.382   0.010  0.00  0.00    +0.003 A 
ATOM     12  C   LIG    1        1.194   2.059   0.002  0.00  0.00    +0.020 A 
ATOM     13  C   LIG    1        2.370   1.334  -0.013  0.00  0.00    +0.111 A 
ATOM     14  N   LIG    1        2.350   0.015  -0.021  0.00  0.00    -0.257 NA
ATOM     15  C   LIG    1        1.218  -0.661  -0.014  0.00  0.00    +0.075 A 
ATOM     16  C   LIG    1        0.002  -0.004   0.002  0.00  0.00    +0.026 A 
ENDBRANCH  10  15
ENDBRANCH   1  10
TORSDOF 4
