REMARK  Name = ZINC45373881
REMARK                            x       y       z     vdW  Elec       q    Type
REMARK                         _______ _______ _______ _____ _____    ______ ____
ROOT
ATOM      1  C   LIG    1        0.099   1.255   0.091  0.00  0.00    +0.001 A 
ATOM      2  C   LIG    1        1.291   1.956   0.061  0.00  0.00    +0.005 A 
ATOM      3  C   LIG    1        2.495   1.292   0.208  0.00  0.00    -0.030 A 
ATOM      4  C   LIG    1        2.515  -0.076   0.384  0.00  0.00    +0.018 A 
ATOM      5  C   LIG    1        1.316  -0.790   0.415  0.00  0.00    +0.037 A 
ATOM      6  C   LIG    1        0.104  -0.113   0.267  0.00  0.00    +0.013 A 
ENDROOT
BRANCH   5   7
ATOM      7  C   LIG    1        1.330  -2.256   0.603  0.00  0.00    +0.248 C 
ATOM      8  N   LIG    1        0.171  -2.942   0.632  0.00  0.00    -0.281 N 
ATOM      9  H   LIG    1       -0.675  -2.468   0.598  0.00  0.00    +0.155 HD
ATOM     10  O   LIG    1        2.387  -2.843   0.731  0.00  0.00    -0.270 OA
BRANCH   8  11
ATOM     11  C   LIG    1        0.186  -4.339   0.712  0.00  0.00    +0.034 A 
ATOM     12  C   LIG    1        1.165  -4.984   1.457  0.00  0.00    +0.023 A 
ATOM     13  C   LIG    1        1.174  -6.361   1.529  0.00  0.00    +0.005 A 
ATOM     14  C   LIG    1        0.212  -7.105   0.863  0.00  0.00    -0.048 A 
ATOM     15  C   LIG    1       -0.764  -6.468   0.124  0.00  0.00    -0.060 A 
ATOM     16  C   LIG    1       -1.832  -7.238  -0.607  0.00  0.00    -0.046 C 
ATOM     17  N   LIG    1       -1.431  -8.636  -0.785  0.00  0.00    +0.382 N 
ATOM     18  H   LIG    1       -0.633  -8.682  -1.401  0.00  0.00    -0.085 HD
ATOM     19  H   LIG    1       -2.196  -9.159  -1.183  0.00  0.00    -0.085 HD
ATOM     20  C   LIG    1       -1.075  -9.203   0.525  0.00  0.00    -0.077 C 
ATOM     21  C   LIG    1        0.263  -8.608   0.967  0.00  0.00    +0.016 C 
ATOM     22  C   LIG    1       -0.779  -5.084   0.052  0.00  0.00    +0.025 A 
ENDBRANCH   8  11
ENDBRANCH   5   7
BRANCH   3  23
ATOM     23  C   LIG    1        3.789   2.065   0.174  0.00  0.00    +0.141 C 
BRANCH  23  24
ATOM     24  N   LIG    1        4.139   2.491   1.532  0.00  0.00    -0.295 N 
ATOM     25  H   LIG    1        3.561   2.261   2.276  0.00  0.00    +0.151 HD
ATOM     26  C   LIG    1        5.264   3.201   1.746  0.00  0.00    +0.304 C 
ATOM     27  N   LIG    1        5.585   3.593   2.995  0.00  0.00    -0.269 N 
ATOM     28  H   LIG    1        5.049   3.301   3.748  0.00  0.00    +0.156 HD
ATOM     29  O   LIG    1        5.988   3.489   0.813  0.00  0.00    -0.252 OA
BRANCH  27  30
ATOM     30  C   LIG    1        6.690   4.418   3.204  0.00  0.00    +0.035 A 
ATOM     31  C   LIG    1        7.032   5.374   2.252  0.00  0.00    +0.024 A 
ATOM     32  C   LIG    1        8.122   6.190   2.455  0.00  0.00    +0.015 A 
ATOM     33  C   LIG    1        8.885   6.058   3.619  0.00  0.00    +0.037 A 
ATOM     34  C   LIG    1        8.538   5.097   4.573  0.00  0.00    +0.015 A 
ATOM     35  C   LIG    1        7.444   4.288   4.366  0.00  0.00    +0.024 A 
BRANCH  33  36
ATOM     36  C   LIG    1       10.054   6.931   3.840  0.00  0.00    +0.242 C 
ATOM     37  N   LIG    1       10.789   6.802   4.963  0.00  0.00    -0.325 N 
ATOM     38  H   LIG    1       11.557   7.376   5.108  0.00  0.00    +0.145 HD
ATOM     39  H   LIG    1       10.549   6.136   5.626  0.00  0.00    +0.145 HD
ATOM     40  O   LIG    1       10.355   7.766   3.009  0.00  0.00    -0.270 OA
ENDBRANCH  33  36
ENDBRANCH  27  30
ENDBRANCH  23  24
ENDBRANCH   3  23
TORSDOF 6
