REMARK  Name = ZINC39434585
REMARK                            x       y       z     vdW  Elec       q    Type
REMARK                         _______ _______ _______ _____ _____    ______ ____
ROOT
ATOM      1  C   LIG    1        0.252   1.656   0.497  0.00  0.00    +0.002 A 
ATOM      2  C   LIG    1        1.462   2.280   0.269  0.00  0.00    +0.014 A 
ATOM      3  C   LIG    1        2.615   1.514   0.097  0.00  0.00    +0.050 A 
ATOM      4  C   LIG    1        2.549   0.112   0.155  0.00  0.00    +0.066 A 
ATOM      5  N   LIG    1        3.820  -0.424  -0.045  0.00  0.00    -0.258 N 
ATOM      6  C   LIG    1        4.736   0.541  -0.235  0.00  0.00    +0.292 C 
ATOM      7  O   LIG    1        5.921   0.376  -0.433  0.00  0.00    -0.266 OA
ATOM      8  C   LIG    1        1.322  -0.496   0.387  0.00  0.00    +0.063 A 
ATOM      9 CL   LIG    1        1.214  -2.227   0.463  0.00  0.00    -0.082 Cl
ATOM     10  C   LIG    1        4.025   1.860  -0.157  0.00  0.00    +0.250 C 
ATOM     11  O   LIG    1        4.506   2.968  -0.277  0.00  0.00    -0.282 OA
ATOM     12  C   LIG    1        0.185   0.274   0.555  0.00  0.00    +0.022 A 
ENDROOT
BRANCH   5  13
ATOM     13  C   LIG    1        4.120  -1.858  -0.048  0.00  0.00    +0.152 C 
BRANCH  13  14
ATOM     14  C   LIG    1        4.121  -2.368  -1.466  0.00  0.00    +0.006 A 
ATOM     15  C   LIG    1        3.006  -3.011  -1.970  0.00  0.00    +0.009 A 
ATOM     16  C   LIG    1        3.006  -3.479  -3.271  0.00  0.00    +0.016 A 
ATOM     17  C   LIG    1        4.122  -3.304  -4.069  0.00  0.00    +0.021 A 
ATOM     18 BR   LIG    1        4.122  -3.945  -5.848  0.00  0.00    -0.050 Br
ATOM     19  C   LIG    1        5.239  -2.662  -3.567  0.00  0.00    +0.054 A 
ATOM     20  C   LIG    1        5.237  -2.188  -2.265  0.00  0.00    +0.129 A 
ATOM     21  F   LIG    1        6.325  -1.555  -1.775  0.00  0.00    -0.205 F 
ENDBRANCH  13  14
ENDBRANCH   5  13
TORSDOF 2
