REMARK  Name = ZINC36188138
REMARK                            x       y       z     vdW  Elec       q    Type
REMARK                         _______ _______ _______ _____ _____    ______ ____
ROOT
ATOM      1  N   LIG    1        2.471  -0.013  -1.959  0.00  0.00    -0.300 NA
ATOM      2  C   LIG    1        2.972  -1.394  -1.995  0.00  0.00    +0.103 C 
ATOM      3  C   LIG    1        1.815  -2.344  -2.326  0.00  0.00    +0.124 C 
ATOM      4  N   LIG    1        1.172  -1.883  -3.565  0.00  0.00    -0.283 N 
ATOM      5  C   LIG    1        0.959  -2.731  -4.591  0.00  0.00    +0.303 C 
ATOM      6  N   LIG    1        1.426  -3.993  -4.530  0.00  0.00    -0.296 N 
ATOM      7  H   LIG    1        1.851  -4.314  -3.719  0.00  0.00    +0.151 HD
ATOM      8  O   LIG    1        0.345  -2.357  -5.571  0.00  0.00    -0.253 OA
ATOM      9  C   LIG    1        0.766  -0.472  -3.655  0.00  0.00    +0.124 C 
ATOM     10  C   LIG    1        1.963   0.404  -3.272  0.00  0.00    +0.103 C 
ENDROOT
BRANCH   6  11
ATOM     11  C   LIG    1        1.293  -4.880  -5.688  0.00  0.00    +0.082 C 
ATOM     12  C   LIG    1        0.841  -6.319  -5.428  0.00  0.00    +0.033 C 
ATOM     13  C   LIG    1        2.294  -6.031  -5.815  0.00  0.00    +0.041 C 
BRANCH  13  14
ATOM     14  C   LIG    1        2.734  -6.420  -7.203  0.00  0.00    -0.042 A 
ATOM     15  C   LIG    1        1.800  -6.842  -8.131  0.00  0.00    +0.004 A 
ATOM     16  C   LIG    1        2.204  -7.199  -9.404  0.00  0.00    +0.000 A 
ATOM     17  C   LIG    1        3.541  -7.134  -9.749  0.00  0.00    +0.000 A 
ATOM     18  C   LIG    1        4.474  -6.711  -8.821  0.00  0.00    +0.000 A 
ATOM     19  C   LIG    1        4.070  -6.350  -7.550  0.00  0.00    +0.004 A 
ENDBRANCH  13  14
ENDBRANCH   6  11
BRANCH   1  21
ATOM     20  C   LIG    1        3.834   0.594  -0.016  0.00  0.00    +0.020 C 
ATOM     21  C   LIG    1        3.508   0.909  -1.478  0.00  0.00    +0.081 C 
ENDBRANCH   1  21
TORSDOF 3
