REMARK  Name = ZINC29410849
REMARK                            x       y       z     vdW  Elec       q    Type
REMARK                         _______ _______ _______ _____ _____    ______ ____
ROOT
ATOM      1  C   LIG    1        0.000   1.080   2.488  0.00  0.00    +0.217 C 
ATOM      2  N   LIG    1       -0.453   1.393   3.718  0.00  0.00    -0.280 N 
ATOM      3  C   LIG    1       -1.662   2.223   3.914  0.00  0.00    +0.178 C 
ATOM      4  S   LIG    1       -1.380   2.869   5.621  0.00  0.00    -0.139 S 
ATOM      5  C   LIG    1       -0.431   1.409   6.242  0.00  0.00    +0.102 C 
ATOM      6  C   LIG    1        0.217   0.927   4.920  0.00  0.00    +0.173 C 
ATOM      7  O   LIG    1        0.994   0.397   2.363  0.00  0.00    -0.276 OA
ENDROOT
BRANCH   6   8
ATOM      8  C   LIG    1        0.227  -0.580   4.909  0.00  0.00    +0.237 C 
ATOM      9  N   LIG    1        0.796  -1.257   5.926  0.00  0.00    -0.300 N 
ATOM     10  C   LIG    1        1.446  -0.655   7.099  0.00  0.00    +0.108 C 
ATOM     11  C   LIG    1        1.969  -1.812   7.977  0.00  0.00    +0.020 C 
ATOM     12  C   LIG    1        2.091  -2.984   6.967  0.00  0.00    +0.020 C 
ATOM     13  C   LIG    1        0.876  -2.725   6.042  0.00  0.00    +0.108 C 
ATOM     14  O   LIG    1       -0.278  -1.183   3.986  0.00  0.00    -0.274 OA
ENDBRANCH   6   8
BRANCH   1  15
ATOM     15  C   LIG    1       -0.729   1.579   1.267  0.00  0.00    +0.096 C 
BRANCH  15  16
ATOM     16  C   LIG    1       -0.013   1.086   0.008  0.00  0.00    +0.009 C 
BRANCH  16  17
ATOM     17  C   LIG    1       -0.753   1.593  -1.232  0.00  0.00    +0.000 C 
BRANCH  17  19
ATOM     18  C   LIG    1       -0.777   1.606  -3.730  0.00  0.00    +0.004 C 
ATOM     19  C   LIG    1       -0.037   1.099  -2.490  0.00  0.00    -0.003 C 
ENDBRANCH  17  19
ENDBRANCH  16  17
ENDBRANCH  15  16
ENDBRANCH   1  15
TORSDOF 5
