REMARK  Name = ZINC13863224
REMARK                            x       y       z     vdW  Elec       q    Type
REMARK                         _______ _______ _______ _____ _____    ______ ____
ROOT
ATOM      1  C   LIG    1        4.897   2.187  -0.031  0.00  0.00    +0.249 C 
ATOM      2  O   LIG    1        5.335   1.054  -0.041  0.00  0.00    -0.282 OA
ENDROOT
BRANCH   1   3
ATOM      3  C   LIG    1        3.453   2.413  -0.017  0.00  0.00    +0.052 A 
ATOM      4  C   LIG    1        2.803   3.633  -0.004  0.00  0.00    +0.095 A 
ATOM      5  N   LIG    1        1.472   3.434   0.007  0.00  0.00    -0.360 N 
ATOM      6  C   LIG    1        1.179   2.085   0.002  0.00  0.00    +0.047 A 
ATOM      7  C   LIG    1       -0.017   1.374   0.010  0.00  0.00    +0.028 A 
ATOM      8  C   LIG    1        0.002  -0.004   0.002  0.00  0.00    +0.034 A 
ATOM      9  C   LIG    1        1.204  -0.694  -0.013  0.00  0.00    +0.122 A 
ATOM     10  C   LIG    1        2.400  -0.007  -0.020  0.00  0.00    +0.043 A 
ATOM     11  H   LIG    1        0.810   4.143   0.017  0.00  0.00    +0.165 HD
ATOM     12  C   LIG    1        2.395   1.384  -0.013  0.00  0.00    +0.013 A 
BRANCH   9  13
ATOM     13  N   LIG    1        1.205  -2.175  -0.021  0.00  0.00    +0.006 N 
ATOM     14  O   LIG    1        0.150  -2.784  -0.014  0.00  0.00    -0.130 OA
BRANCH  13  15
ATOM     15  O   LIG    1        2.260  -2.783  -0.035  0.00  0.00    -0.396 OA
ATOM     16  H   LIG    1        3.071  -2.314  -0.040  0.00  0.00    +0.329 HD
ENDBRANCH  13  15
ENDBRANCH   9  13
ENDBRANCH   1   3
BRANCH   1  19
ATOM     17  N   LIG    1        7.165   3.141  -0.046  0.00  0.00    -0.302 N 
ATOM     18  H   LIG    1        7.515   2.236  -0.054  0.00  0.00    +0.150 HD
ATOM     19  C   LIG    1        5.834   3.349  -0.033  0.00  0.00    +0.285 C 
ATOM     20  O   LIG    1        5.396   4.481  -0.022  0.00  0.00    -0.267 OA
BRANCH  17  22
ATOM     21  C   LIG    1        8.294   4.766  -1.484  0.00  0.00    +0.033 C 
ATOM     22  C   LIG    1        8.085   4.281  -0.048  0.00  0.00    +0.100 C 
BRANCH  22  23
ATOM     23  C   LIG    1        9.408   3.861   0.538  0.00  0.00    -0.027 A 
ATOM     24  C   LIG    1        9.933   2.618   0.238  0.00  0.00    +0.005 A 
ATOM     25  C   LIG    1       11.149   2.234   0.773  0.00  0.00    +0.000 A 
ATOM     26  C   LIG    1       11.835   3.089   1.615  0.00  0.00    +0.000 A 
ATOM     27  C   LIG    1       11.307   4.330   1.919  0.00  0.00    +0.000 A 
ATOM     28  C   LIG    1       10.094   4.716   1.381  0.00  0.00    +0.005 A 
ENDBRANCH  22  23
ENDBRANCH  17  22
ENDBRANCH   1  19
TORSDOF 6
