REMARK  Name = ZINC26995305
REMARK                            x       y       z     vdW  Elec       q    Type
REMARK                         _______ _______ _______ _____ _____    ______ ____
ROOT
ATOM      1  C   LIG    1       -0.753   1.593  -1.232  0.00  0.00    -0.010 C 
ENDROOT
BRANCH   1   2
ATOM      2  C   LIG    1       -0.013   1.086   0.008  0.00  0.00    +0.092 C 
BRANCH   2   3
ATOM      3  P   LIG    1       -0.866   1.674   1.508  0.00  0.00    +0.191 P 
ATOM      4  O   LIG    1       -2.255   1.161   1.518  0.00  0.00    -0.294 OA
ATOM      5  H   LIG    1       -1.027   2.755   1.630  0.00  0.00    +0.128 HD
BRANCH   3   6
ATOM      6  O   LIG    1       -0.087   1.140   2.812  0.00  0.00    -0.346 OA
ATOM      7  H   LIG    1        0.823   1.476   2.805  0.00  0.00    +0.217 HD
ENDBRANCH   3   6
ENDBRANCH   2   3
ENDBRANCH   1   2
BRANCH   1   8
ATOM      8  C   LIG    1       -0.037   1.099  -2.490  0.00  0.00    -0.086 C 
BRANCH   8   9
ATOM      9  N   LIG    1       -0.747   1.586  -3.680  0.00  0.00    +0.378 N 
ATOM     10  H   LIG    1       -1.779   1.205  -3.672  0.00  0.00    -0.090 HD
ATOM     11  H   LIG    1       -0.762   2.686  -3.674  0.00  0.00    -0.090 HD
ATOM     12  H   LIG    1       -0.232   1.231  -4.585  0.00  0.00    -0.090 HD
ENDBRANCH   8   9
ENDBRANCH   1   8
TORSDOF 5
