REMARK  Name = ZINC39042869
REMARK                            x       y       z     vdW  Elec       q    Type
REMARK                         _______ _______ _______ _____ _____    ______ ____
ROOT
ATOM      1  C   LIG    1       -2.849  -2.418   0.016  0.00  0.00    +0.144 A 
ATOM      2  C   LIG    1       -3.044  -3.793   0.017  0.00  0.00    +0.033 A 
ATOM      3  C   LIG    1       -4.377  -4.278  -0.006  0.00  0.00    +0.019 A 
ATOM      4  C   LIG    1       -4.642  -5.641   0.194  0.00  0.00    +0.017 A 
ATOM      5  C   LIG    1       -5.933  -6.085   0.211  0.00  0.00    -0.021 A 
ATOM      6  C   LIG    1       -6.986  -5.201   0.024  0.00  0.00    +0.009 A 
ATOM      7  C   LIG    1       -6.748  -3.860  -0.195  0.00  0.00    +0.047 A 
ATOM      8  C   LIG    1       -5.443  -3.386  -0.223  0.00  0.00    +0.139 A 
ATOM      9  O   LIG    1       -5.194  -2.079  -0.479  0.00  0.00    -0.422 OA
ATOM     10  C   LIG    1       -4.050  -1.563   0.032  0.00  0.00    +0.351 A 
ATOM     11  O   LIG    1       -4.013  -0.434   0.485  0.00  0.00    -0.244 OA
ENDROOT
BRANCH   1  12
ATOM     12  C   LIG    1       -1.497  -1.837   0.006  0.00  0.00    +0.346 C 
ATOM     13  O   LIG    1       -0.523  -2.564  -0.007  0.00  0.00    -0.245 OA
BRANCH  12  14
ATOM     14  O   LIG    1       -1.339  -0.499   0.012  0.00  0.00    -0.461 OA
BRANCH  14  16
ATOM     15  C   LIG    1       -0.019   1.526   0.010  0.00  0.00    +0.048 C 
ATOM     16  C   LIG    1        0.002  -0.004   0.002  0.00  0.00    +0.229 C 
ENDBRANCH  14  16
ENDBRANCH  12  14
ENDBRANCH   1  12
BRANCH   5  17
ATOM     17  C   LIG    1       -6.216  -7.548   0.433  0.00  0.00    +0.191 C 
BRANCH  17  18
ATOM     18  O   LIG    1       -6.362  -7.798   1.833  0.00  0.00    -0.390 OA
ATOM     19  H   LIG    1       -6.546  -8.722   2.051  0.00  0.00    +0.210 HD
ENDBRANCH  17  18
ENDBRANCH   5  17
TORSDOF 5
