REMARK  Name = ZINC14210457
REMARK                            x       y       z     vdW  Elec       q    Type
REMARK                         _______ _______ _______ _____ _____    ______ ____
ROOT
ATOM      1  C   LIG    1       -5.076  -0.565   0.054  0.00  0.00    +0.011 C 
ATOM      2  C   LIG    1       -4.323  -0.462  -1.274  0.00  0.00    -0.025 C 
ATOM      3  C   LIG    1       -4.655  -1.542  -2.306  0.00  0.00    +0.011 C 
ATOM      4  C   LIG    1       -4.005   0.940  -1.797  0.00  0.00    +0.018 C 
ATOM      5  C   LIG    1       -4.110   2.125  -0.813  0.00  0.00    +0.113 C 
ATOM      6  N   LIG    1       -3.516   1.619   0.446  0.00  0.00    -0.288 N 
ATOM      7  C   LIG    1       -3.938   1.841   1.707  0.00  0.00    +0.237 C 
ATOM      8  O   LIG    1       -3.381   1.298   2.637  0.00  0.00    -0.274 OA
ATOM      9  C   LIG    1       -2.353   0.814   0.005  0.00  0.00    +0.166 C 
ATOM     10  C   LIG    1       -2.845   0.073  -1.257  0.00  0.00    +0.030 C 
ENDROOT
BRANCH   9  11
ATOM     11  C   LIG    1       -1.190   1.712  -0.332  0.00  0.00    +0.234 C 
ATOM     12  N   LIG    1        0.053   1.198  -0.422  0.00  0.00    -0.304 N 
ATOM     13  H   LIG    1        0.199   0.252  -0.270  0.00  0.00    +0.149 HD
ATOM     14  O   LIG    1       -1.373   2.895  -0.522  0.00  0.00    -0.274 OA
BRANCH  12  15
ATOM     15  C   LIG    1        1.183   2.070  -0.755  0.00  0.00    +0.149 C 
BRANCH  15  16
ATOM     16  C   LIG    1        1.704   2.719   0.501  0.00  0.00    +0.237 C 
ATOM     17  O   LIG    1        1.455   2.235   1.579  0.00  0.00    -0.285 OA
BRANCH  16  18
ATOM     18  C   LIG    1        2.528   3.959   0.412  0.00  0.00    +0.279 C 
ATOM     19  N   LIG    1        2.994   4.540   1.535  0.00  0.00    -0.323 N 
ATOM     20  H   LIG    1        3.530   5.346   1.478  0.00  0.00    +0.145 HD
ATOM     21  H   LIG    1        2.794   4.151   2.401  0.00  0.00    +0.145 HD
ATOM     22  O   LIG    1        2.778   4.445  -0.671  0.00  0.00    -0.267 OA
ENDBRANCH  16  18
ENDBRANCH  15  16
BRANCH  15  23
ATOM     23  C   LIG    1        2.294   1.239  -1.399  0.00  0.00    +0.034 C 
BRANCH  23  24
ATOM     24  C   LIG    1        1.804   0.682  -2.737  0.00  0.00    -0.009 C 
ATOM     25  C   LIG    1        1.039  -0.646  -2.608  0.00  0.00    +0.003 C 
ATOM     26  C   LIG    1        1.771  -1.100  -3.884  0.00  0.00    +0.001 C 
ATOM     27  C   LIG    1        2.880  -0.102  -3.509  0.00  0.00    +0.003 C 
ENDBRANCH  23  24
ENDBRANCH  15  23
ENDBRANCH  12  15
ENDBRANCH   9  11
BRANCH   7  28
ATOM     28  C   LIG    1       -5.101   2.765   1.960  0.00  0.00    +0.166 C 
BRANCH  28  29
ATOM     29  N   LIG    1       -5.767   2.380   3.207  0.00  0.00    -0.288 N 
ATOM     30  H   LIG    1       -5.274   1.906   3.894  0.00  0.00    +0.151 HD
ATOM     31  C   LIG    1       -7.066   2.685   3.400  0.00  0.00    +0.301 C 
ATOM     32  N   LIG    1       -7.678   2.331   4.547  0.00  0.00    -0.295 N 
ATOM     33  H   LIG    1       -7.185   1.857   5.234  0.00  0.00    +0.151 HD
ATOM     34  O   LIG    1       -7.685   3.279   2.538  0.00  0.00    -0.253 OA
BRANCH  32  35
ATOM     35  C   LIG    1       -9.090   2.662   4.756  0.00  0.00    +0.028 C 
ATOM     36  C   LIG    1       -9.272   4.180   4.692  0.00  0.00    +0.031 C 
ATOM     37  C   LIG    1       -9.536   2.152   6.127  0.00  0.00    +0.031 C 
ATOM     38  C   LIG    1       -9.936   2.001   3.666  0.00  0.00    +0.031 C 
ENDBRANCH  32  35
ENDBRANCH  28  29
BRANCH  28  39
ATOM     39  C   LIG    1       -4.595   4.204   2.076  0.00  0.00    -0.011 C 
ATOM     40  C   LIG    1       -3.570   4.294   3.208  0.00  0.00    +0.013 C 
ATOM     41  C   LIG    1       -5.770   5.136   2.377  0.00  0.00    +0.013 C 
ATOM     42  C   LIG    1       -3.938   4.620   0.758  0.00  0.00    +0.013 C 
ENDBRANCH  28  39
ENDBRANCH   7  28
TORSDOF 10
