REMARK  Name = ZINC29050684
REMARK                            x       y       z     vdW  Elec       q    Type
REMARK                         _______ _______ _______ _____ _____    ______ ____
ROOT
ATOM      1  C   LIG    1        2.748   4.420  -1.422  0.00  0.00    -0.018 C 
ATOM      2  C   LIG    1        2.874   3.214  -2.356  0.00  0.00    +0.021 C 
ATOM      3  C   LIG    1        3.231   3.700  -3.763  0.00  0.00    +0.107 C 
ATOM      4  N   LIG    1        4.497   4.443  -3.719  0.00  0.00    -0.315 N 
ATOM      5  C   LIG    1        4.385   5.632  -2.865  0.00  0.00    +0.107 C 
ATOM      6  C   LIG    1        4.063   5.204  -1.431  0.00  0.00    +0.021 C 
ENDROOT
BRANCH   4   7
ATOM      7  C   LIG    1        4.915   4.785  -4.992  0.00  0.00    +0.134 A 
ATOM      8  C   LIG    1        5.091   3.803  -5.980  0.00  0.00    +0.059 A 
ATOM      9  C   LIG    1        4.935   2.351  -6.036  0.00  0.00    +0.032 A 
ATOM     10  C   LIG    1        5.259   1.974  -7.283  0.00  0.00    +0.085 A 
ATOM     11  N   LIG    1        5.610   3.072  -8.025  0.00  0.00    -0.346 N 
ATOM     12  H   LIG    1        5.908   2.953  -9.077  0.00  0.00    +0.167 HD
ATOM     13  C   LIG    1        5.518   4.202  -7.260  0.00  0.00    +0.143 A 
ATOM     14  N   LIG    1        5.739   5.497  -7.482  0.00  0.00    -0.218 NA
ATOM     15  C   LIG    1        5.561   6.383  -6.527  0.00  0.00    +0.225 A 
ATOM     16  N   LIG    1        5.156   6.053  -5.313  0.00  0.00    -0.220 NA
ENDBRANCH   4   7
BRANCH   1  17
ATOM     17  C   LIG    1        2.451   3.937  -0.001  0.00  0.00    -0.041 C 
BRANCH  17  21
ATOM     18  C   LIG    1       -1.219   1.751   0.017  0.00  0.00    +0.000 A 
ATOM     19  C   LIG    1       -0.013   1.076   0.008  0.00  0.00    +0.000 A 
ATOM     20  C   LIG    1        1.175   1.783   0.000  0.00  0.00    +0.002 A 
ATOM     21  C   LIG    1        1.156   3.165   0.008  0.00  0.00    -0.062 A 
ATOM     22  C   LIG    1       -0.050   3.840   0.023  0.00  0.00    +0.002 A 
ATOM     23  C   LIG    1       -1.238   3.133   0.030  0.00  0.00    +0.000 A 
ENDBRANCH  17  21
BRANCH  17  24
ATOM     24  N   LIG    1        2.337   5.094   0.897  0.00  0.00    +0.383 N 
ATOM     25  H   LIG    1        1.520   5.746   0.553  0.00  0.00    -0.089 HD
ATOM     26  H   LIG    1        2.124   4.747   1.918  0.00  0.00    -0.089 HD
ATOM     27  H   LIG    1        3.282   5.657   0.891  0.00  0.00    -0.089 HD
ENDBRANCH  17  24
ENDBRANCH   1  17
TORSDOF 4
