REMARK  Name = ZINC29135071
REMARK                            x       y       z     vdW  Elec       q    Type
REMARK                         _______ _______ _______ _____ _____    ______ ____
ROOT
ATOM      1  C   LIG    1        4.669   5.230  -0.013  0.00  0.00    +0.040 A 
ATOM      2  C   LIG    1        4.141   6.512  -0.001  0.00  0.00    +0.114 A 
ATOM      3  N   LIG    1        2.842   6.722   0.012  0.00  0.00    -0.237 NA
ATOM      4  C   LIG    1        1.973   5.719   0.014  0.00  0.00    +0.140 A 
ATOM      5  C   LIG    1        2.438   4.393   0.008  0.00  0.00    +0.046 A 
ATOM      6  C   LIG    1        1.239   3.539   0.009  0.00  0.00    +0.028 A 
ATOM      7  C   LIG    1        0.170   4.376   0.023  0.00  0.00    +0.095 A 
ATOM      8  N   LIG    1        0.598   5.670   0.027  0.00  0.00    -0.345 N 
ATOM      9  H   LIG    1        0.015   6.602   0.037  0.00  0.00    +0.167 HD
ATOM     10  C   LIG    1        3.811   4.144  -0.012  0.00  0.00    +0.054 A 
ATOM     11 CL   LIG    1        4.425   2.520  -0.026  0.00  0.00    -0.083 Cl
ENDROOT
BRANCH   6  12
ATOM     12  C   LIG    1        1.205   2.061   0.002  0.00  0.00    +0.078 A 
ATOM     13  C   LIG    1       -0.017   1.377   0.010  0.00  0.00    +0.048 A 
ATOM     14  C   LIG    1        0.002  -0.004   0.002  0.00  0.00    +0.116 A 
ATOM     15  N   LIG    1        1.166  -0.637  -0.013  0.00  0.00    -0.223 NA
ATOM     16  C   LIG    1        2.308   0.035  -0.020  0.00  0.00    +0.213 A 
ATOM     17  N   LIG    1        2.337   1.358  -0.013  0.00  0.00    -0.215 NA
BRANCH  16  18
ATOM     18  N   LIG    1        3.502  -0.666  -0.035  0.00  0.00    -0.327 N 
ATOM     19  H   LIG    1        3.494  -1.766  -0.040  0.00  0.00    +0.145 HD
ATOM     20  H   LIG    1        4.458  -0.123  -0.041  0.00  0.00    +0.145 HD
ENDBRANCH  16  18
ENDBRANCH   6  12
TORSDOF 2
