REMARK  Name = ZINC13985650
REMARK                            x       y       z     vdW  Elec       q    Type
REMARK                         _______ _______ _______ _____ _____    ______ ____
ROOT
ATOM      1  C   LIG    1        0.705  -0.707  -1.362  0.00  0.00    +0.239 C 
ENDROOT
BRANCH   1   3
ATOM      2  C   LIG    1       -0.456   1.216  -0.268  0.00  0.00    +0.016 C 
ATOM      3  C   LIG    1       -0.213  -0.294  -0.210  0.00  0.00    +0.013 C 
ATOM      4  C   LIG    1       -1.548  -1.030  -0.333  0.00  0.00    +0.016 C 
ATOM      5  C   LIG    1        0.447  -0.654   1.122  0.00  0.00    +0.016 C 
ENDBRANCH   1   3
BRANCH   1   6
ATOM      6  N   LIG    1        1.984  -0.002  -1.244  0.00  0.00    -0.283 N 
ATOM      7  H   LIG    1        2.425   0.063  -0.383  0.00  0.00    +0.152 HD
ATOM      8  C   LIG    1        2.548   0.558  -2.333  0.00  0.00    +0.220 C 
ATOM      9  O   LIG    1        1.958   0.552  -3.393  0.00  0.00    -0.275 OA
BRANCH   8  10
ATOM     10  C   LIG    1        3.912   1.190  -2.234  0.00  0.00    +0.131 C 
BRANCH  10  11
ATOM     11  C   LIG    1        4.311   1.737  -3.581  0.00  0.00    -0.035 A 
ATOM     12  C   LIG    1        4.995   0.936  -4.476  0.00  0.00    +0.008 A 
ATOM     13  C   LIG    1        5.364   1.433  -5.712  0.00  0.00    +0.049 A 
ATOM     14  C   LIG    1        5.046   2.737  -6.057  0.00  0.00    +0.161 A 
ATOM     15  C   LIG    1        4.357   3.543  -5.156  0.00  0.00    +0.162 A 
ATOM     16  C   LIG    1        3.987   3.037  -3.921  0.00  0.00    +0.053 A 
BRANCH  14  17
ATOM     17  O   LIG    1        5.408   3.228  -7.272  0.00  0.00    -0.491 OA
ATOM     18  C   LIG    1        6.114   2.344  -8.145  0.00  0.00    +0.277 C 
ENDBRANCH  14  17
BRANCH  15  19
ATOM     19  O   LIG    1        4.043   4.824  -5.490  0.00  0.00    -0.491 OA
ATOM     20  C   LIG    1        3.335   5.593  -4.516  0.00  0.00    +0.277 C 
ENDBRANCH  15  19
ENDBRANCH  10  11
ENDBRANCH   8  10
ENDBRANCH   1   6
BRANCH   1  21
ATOM     21  N   LIG    1        0.938  -2.152  -1.307  0.00  0.00    -0.253 N 
ATOM     22  H   LIG    1        1.141  -2.579  -0.460  0.00  0.00    +0.260 HD
BRANCH  21  23
ATOM     23  C   LIG    1        0.869  -2.906  -2.460  0.00  0.00    +0.440 C 
ATOM     24  N   LIG    1        1.181  -4.204  -2.429  0.00  0.00    +0.014 NA
BRANCH  23  25
ATOM     25  N   LIG    1        0.492  -2.341  -3.601  0.00  0.00    -0.069 NA
ATOM     26  C   LIG    1       -0.642  -2.746  -4.213  0.00  0.00    +0.151 A 
ATOM     27  C   LIG    1       -1.493  -3.668  -3.600  0.00  0.00    +0.046 A 
ATOM     28  C   LIG    1       -2.651  -4.075  -4.234  0.00  0.00    +0.006 A 
ATOM     29  C   LIG    1       -3.004  -3.594  -5.478  0.00  0.00    +0.026 A 
ATOM     30  C   LIG    1       -2.201  -2.675  -6.142  0.00  0.00    +0.050 A 
ATOM     31  N   LIG    1       -2.549  -2.195  -7.379  0.00  0.00    -0.361 N 
ATOM     32  H   LIG    1       -3.375  -2.513  -7.811  0.00  0.00    +0.165 HD
ATOM     33  C   LIG    1       -1.775  -1.296  -8.006  0.00  0.00    +0.083 A 
ATOM     34  C   LIG    1       -0.606  -0.838  -7.445  0.00  0.00    +0.018 A 
ATOM     35  C   LIG    1       -0.203  -1.295  -6.197  0.00  0.00    +0.015 A 
ATOM     36  C   LIG    1       -1.008  -2.224  -5.530  0.00  0.00    +0.040 A 
ENDBRANCH  23  25
BRANCH  24  37
ATOM     37  C   LIG    1        1.466  -4.804  -1.248  0.00  0.00    +0.296 C 
ATOM     38  N   LIG    1        1.704  -5.307  -0.258  0.00  0.00    -0.151 NA
ENDBRANCH  24  37
ENDBRANCH  21  23
ENDBRANCH   1  21
TORSDOF 10
