REMARK  Name = ZINC20016357
REMARK                            x       y       z     vdW  Elec       q    Type
REMARK                         _______ _______ _______ _____ _____    ______ ____
ROOT
ATOM      1  C   UNK A  0        3.696  -0.686  -0.037  0.00  0.00    +0.249 C 
ATOM      2  N   HIS A  1        4.273  -1.007  -1.212  0.00  0.00    -0.298 N 
ATOM      3  H   HIS A  1        3.841  -0.767  -2.047  0.00  0.00    +0.150 HD
ATOM      4  O   UNK A  0        4.237  -0.987   1.008  0.00  0.00    -0.270 OA
ENDROOT
BRANCH   1   9
ATOM      5  C   UNK A  0       -0.017   1.379   0.010  0.00  0.00    +0.004 A 
ATOM      6  C   UNK A  0        1.167   2.094   0.002  0.00  0.00    +0.039 A 
ATOM      7  C   UNK A  0        2.379   1.431  -0.013  0.00  0.00    +0.137 A 
ATOM      8  F   UNK A  0        3.535   2.130  -0.021  0.00  0.00    -0.205 F 
ATOM      9  C   UNK A  0        2.406   0.032  -0.021  0.00  0.00    +0.090 A 
ATOM     10  C   UNK A  0        1.205  -0.682  -0.013  0.00  0.00    +0.056 A 
ATOM     11 CL   UNK A  0        1.224  -2.418  -0.023  0.00  0.00    -0.083 Cl
ATOM     12  C   UNK A  0        0.002  -0.004   0.002  0.00  0.00    +0.021 A 
ENDBRANCH   1   9
BRANCH   2  13
ATOM     13  CA  HIS A  1        5.553  -1.719  -1.229  0.00  0.00    +0.188 C 
BRANCH  13  14
ATOM     14  C   HIS A  1        6.681  -0.727  -1.111  0.00  0.00    +0.326 C 
ATOM     15  O   HIS A  1        7.726  -1.053  -0.573  0.00  0.00    -0.249 OA
BRANCH  14  16
ATOM     16  OXT HIS A  1        6.550   0.401  -1.553  0.00  0.00    -0.479 OA
ATOM     17  HXT HIS A  1        5.747   0.652  -1.966  0.00  0.00    +0.295 HD
ENDBRANCH  14  16
ENDBRANCH  13  14
BRANCH  13  18
ATOM     18  CB  HIS A  1        5.689  -2.493  -2.542  0.00  0.00    +0.090 C 
BRANCH  18  19
ATOM     19  CG  HIS A  1        4.635  -3.567  -2.603  0.00  0.00    +0.061 A 
ATOM     20  ND1 HIS A  1        4.431  -4.526  -1.687  0.00  0.00    -0.241 NA
ATOM     21  CE1 HIS A  1        3.434  -5.278  -2.066  0.00  0.00    +0.196 A 
ATOM     22  NE2 HIS A  1        2.973  -4.822  -3.250  0.00  0.00    -0.351 N 
ATOM     23  HE2 HIS A  1        2.239  -5.194  -3.764  0.00  0.00    +0.166 HD
ATOM     24  CD2 HIS A  1        3.735  -3.737  -3.591  0.00  0.00    +0.107 A 
ENDBRANCH  18  19
ENDBRANCH  13  18
ENDBRANCH   2  13
TORSDOF 6
