REMARK  Name = ZINC14977914
REMARK                            x       y       z     vdW  Elec       q    Type
REMARK                         _______ _______ _______ _____ _____    ______ ____
ROOT
ATOM      1  C   LIG    1       -0.016   1.357   0.009  0.00  0.00    +0.090 A 
ATOM      2  C   LIG    1        1.253   1.819  -0.000  0.00  0.00    +0.008 A 
ATOM      3  C   LIG    1        2.115   0.711  -0.014  0.00  0.00    +0.075 A 
ATOM      4  C   LIG    1        1.310  -0.427  -0.013  0.00  0.00    +0.130 A 
ATOM      5  C   LIG    1        1.940  -1.694  -0.026  0.00  0.00    +0.297 A 
ATOM      6  N   LIG    1        3.284  -1.757  -0.039  0.00  0.00    -0.198 NA
ATOM      7  C   LIG    1        4.020  -0.680  -0.040  0.00  0.00    +0.201 A 
ATOM      8  O   LIG    1        1.272  -2.716  -0.025  0.00  0.00    -0.264 OA
ATOM      9  N   LIG    1        3.484   0.555  -0.028  0.00  0.00    -0.344 N 
ATOM     10  H   LIG    1        4.061   1.335  -0.030  0.00  0.00    +0.167 HD
ATOM     11  N   LIG    1        0.002  -0.004   0.002  0.00  0.00    -0.355 N 
ATOM     12  H   LIG    1       -0.778  -0.580   0.007  0.00  0.00    +0.166 HD
ENDROOT
BRANCH   2  13
ATOM     13  C   LIG    1        1.670   3.268   0.003  0.00  0.00    +0.123 C 
BRANCH  13  14
ATOM     14  N   LIG    1        2.023   3.678  -1.363  0.00  0.00    -0.297 NA
ATOM     15  C   LIG    1        3.472   3.540  -1.598  0.00  0.00    +0.091 C 
ATOM     16  C   LIG    1        3.423   4.881  -2.344  0.00  0.00    +0.042 C 
ATOM     17  C   LIG    1        2.206   5.139  -1.444  0.00  0.00    +0.091 C 
BRANCH  16  18
ATOM     18  C   LIG    1        4.615   5.798  -2.063  0.00  0.00    +0.161 C 
BRANCH  18  19
ATOM     19  O   LIG    1        4.528   6.959  -2.891  0.00  0.00    -0.395 OA
ATOM     20  H   LIG    1        5.253   7.586  -2.766  0.00  0.00    +0.209 HD
ENDBRANCH  18  19
ENDBRANCH  16  18
ENDBRANCH  13  14
ENDBRANCH   2  13
TORSDOF 4
