REMARK  Name = ZINC13776323
REMARK                            x       y       z     vdW  Elec       q    Type
REMARK                         _______ _______ _______ _____ _____    ______ ____
ROOT
ATOM      1  C   LIG    1       -0.068   5.349   0.030  0.00  0.00    +0.159 C 
ENDROOT
BRANCH   1   4
ATOM      2  C   LIG    1        1.174   1.783   0.000  0.00  0.00    +0.003 A 
ATOM      3  C   LIG    1        1.156   3.166   0.008  0.00  0.00    +0.005 A 
ATOM      4  C   LIG    1       -0.050   3.842   0.022  0.00  0.00    -0.025 A 
ATOM      5  C   LIG    1       -1.238   3.136   0.030  0.00  0.00    +0.043 A 
ATOM      6  C   LIG    1       -1.221   1.752   0.017  0.00  0.00    +0.124 A 
ATOM      7  F   LIG    1       -2.382   1.062   0.019  0.00  0.00    -0.205 F 
ATOM      8  C   LIG    1       -0.013   1.076   0.008  0.00  0.00    +0.038 A 
ENDBRANCH   1   4
BRANCH   1   9
ATOM      9  N   LIG    1       -0.087   5.844  -1.348  0.00  0.00    -0.322 N 
ATOM     10  C   LIG    1        1.019   6.231  -2.090  0.00  0.00    +0.106 A 
ATOM     11  C   LIG    1        0.593   6.615  -3.289  0.00  0.00    +0.102 A 
ATOM     12  N   LIG    1       -0.787   6.482  -3.314  0.00  0.00    -0.340 N 
ATOM     13  H   LIG    1       -1.367   6.693  -4.062  0.00  0.00    +0.167 HD
ATOM     14  C   LIG    1       -1.183   6.009  -2.116  0.00  0.00    +0.158 A 
ATOM     15  S   LIG    1       -2.796   5.675  -1.649  0.00  0.00    -0.013 S 
ENDBRANCH   1   9
TORSDOF 2
