REMARK  Name = ZINC72109887
REMARK                            x       y       z     vdW  Elec       q    Type
REMARK                         _______ _______ _______ _____ _____    ______ ____
ROOT
ATOM      1  N   LIG    1        0.030  -0.008   2.413  0.00  0.00    -0.280 N 
ATOM      2  C   LIG    1       -1.154   0.382   2.963  0.00  0.00    +0.028 A 
ATOM      3  C   LIG    1       -2.444   0.060   2.255  0.00  0.00    +0.064 C 
ATOM      4  C   LIG    1       -1.186   1.053   4.134  0.00  0.00    +0.068 A 
ATOM      5  C   LIG    1        0.018   1.357   4.801  0.00  0.00    +0.142 A 
ATOM      6  C   LIG    1        1.216   0.957   4.237  0.00  0.00    +0.124 A 
ATOM      7 BR   LIG    1        2.856   1.344   5.097  0.00  0.00    -0.041 Br
ATOM      8  C   LIG    1        1.199   0.259   3.023  0.00  0.00    +0.274 A 
ATOM      9  O   LIG    1        2.248  -0.104   2.515  0.00  0.00    -0.266 OA
ENDROOT
BRANCH   1  16
ATOM     10  C   LIG    1        0.180   1.505   0.013  0.00  0.00    +0.046 C 
ATOM     11  C   LIG    1        0.101   0.000   0.001  0.00  0.00    -0.026 A 
ATOM     12  C   LIG    1        0.107  -0.680  -1.196  0.00  0.00    +0.018 A 
ATOM     13  C   LIG    1        0.034  -2.075  -1.206  0.00  0.00    +0.037 A 
ATOM     14  C   LIG    1       -0.044  -2.776   0.001  0.00  0.00    +0.015 A 
ATOM     15  C   LIG    1       -0.049  -2.089   1.194  0.00  0.00    +0.027 A 
ATOM     16  C   LIG    1        0.029  -0.700   1.200  0.00  0.00    +0.053 A 
BRANCH  13  17
ATOM     17  C   LIG    1        0.039  -2.807  -2.488  0.00  0.00    +0.244 C 
ATOM     18  N   LIG    1       -0.031  -4.153  -2.495  0.00  0.00    -0.314 N 
ATOM     19  H   LIG    1       -0.085  -4.641  -1.659  0.00  0.00    +0.149 HD
ATOM     20  C   LIG    1       -0.026  -4.880  -3.768  0.00  0.00    +0.128 C 
ATOM     21  O   LIG    1        0.107  -2.196  -3.537  0.00  0.00    -0.270 OA
ENDBRANCH  13  17
ENDBRANCH   1  16
BRANCH   5  22
ATOM     22  O   LIG    1        0.002   2.030   5.976  0.00  0.00    -0.486 OA
BRANCH  22  23
ATOM     23  C   LIG    1       -0.465   3.380   5.944  0.00  0.00    +0.267 C 
BRANCH  23  24
ATOM     24  C   LIG    1       -0.295   4.002   7.306  0.00  0.00    +0.025 A 
ATOM     25  C   LIG    1        0.251   3.265   8.340  0.00  0.00    +0.012 A 
ATOM     26  C   LIG    1        0.408   3.835   9.589  0.00  0.00    +0.039 A 
ATOM     27  C   LIG    1        0.017   5.146   9.806  0.00  0.00    +0.126 A 
ATOM     28  F   LIG    1        0.170   5.702  11.028  0.00  0.00    -0.205 F 
ATOM     29  C   LIG    1       -0.530   5.885   8.772  0.00  0.00    +0.077 A 
ATOM     30  C   LIG    1       -0.681   5.315   7.520  0.00  0.00    +0.132 A 
ATOM     31  F   LIG    1       -1.210   6.037   6.508  0.00  0.00    -0.205 F 
ENDBRANCH  23  24
ENDBRANCH  22  23
ENDBRANCH   5  22
TORSDOF 5
