REMARK  Name = ZINC13829333
REMARK                            x       y       z     vdW  Elec       q    Type
REMARK                         _______ _______ _______ _____ _____    ______ ____
ROOT
ATOM      1  C   UNK    1        5.008  -1.430   3.949  0.00  0.00    +0.182 C 
ENDROOT
BRANCH   1   2
ATOM      2  C   UNK    1        3.969  -2.470   4.278  0.00  0.00    -0.012 A 
ATOM      3  C   UNK    1        4.303  -3.557   5.064  0.00  0.00    +0.007 A 
ATOM      4  C   UNK    1        3.351  -4.512   5.367  0.00  0.00    +0.003 A 
ATOM      5  C   UNK    1        2.063  -4.381   4.883  0.00  0.00    +0.038 A 
ATOM      6  C   UNK    1        1.727  -3.294   4.095  0.00  0.00    +0.124 A 
ATOM      7  F   UNK    1        0.468  -3.166   3.621  0.00  0.00    -0.205 F 
ATOM      8  C   UNK    1        2.680  -2.335   3.798  0.00  0.00    +0.044 A 
ENDBRANCH   1   2
BRANCH   1  14
ATOM      9  C   UNK    1        5.319  -1.605   1.466  0.00  0.00    +0.127 A 
ATOM     10  C   UNK    1        6.048  -2.007   0.357  0.00  0.00    +0.046 A 
ATOM     11  C   UNK    1        7.245  -2.676   0.525  0.00  0.00    +0.004 A 
ATOM     12  C   UNK    1        7.716  -2.945   1.797  0.00  0.00    +0.001 A 
ATOM     13  C   UNK    1        6.991  -2.545   2.904  0.00  0.00    +0.010 A 
ATOM     14  C   UNK    1        5.796  -1.871   2.742  0.00  0.00    +0.027 A 
BRANCH   9  15
ATOM     15  O   UNK    1        4.141  -0.946   1.304  0.00  0.00    -0.487 OA
BRANCH  15  16
ATOM     16  C   UNK    1        3.711  -0.707  -0.038  0.00  0.00    +0.264 C 
BRANCH  16  20
ATOM     17  C   UNK    1       -0.017   1.378   0.010  0.00  0.00    +0.000 A 
ATOM     18  C   UNK    1        1.171   2.086   0.002  0.00  0.00    +0.000 A 
ATOM     19  C   UNK    1        2.377   1.411  -0.013  0.00  0.00    +0.007 A 
ATOM     20  C   UNK    1        2.396   0.029  -0.020  0.00  0.00    -0.010 A 
ATOM     21  C   UNK    1        1.208  -0.679  -0.012  0.00  0.00    +0.007 A 
ATOM     22  C   UNK    1        0.002  -0.004   0.002  0.00  0.00    +0.000 A 
ENDBRANCH  16  20
ENDBRANCH  15  16
ENDBRANCH   9  15
ENDBRANCH   1  14
BRANCH   1  23
ATOM     23  O   UNK    1        5.891  -1.270   5.061  0.00  0.00    -0.368 OA
BRANCH  23  24
ATOM     24  C   UNK    1        5.473  -0.275   5.997  0.00  0.00    +0.156 C 
BRANCH  24  25
ATOM     25  C   UNK    1        6.487  -0.191   7.139  0.00  0.00    +0.062 C 
BRANCH  25  26
ATOM     26  N   UNK    1        6.486  -1.454   7.889  0.00  0.00    +0.388 N 
ATOM     27  H   UNK    1        7.155  -1.399   8.642  0.00  0.00    -0.089 HD
ATOM     28  H   UNK    1        6.737  -2.212   7.271  0.00  0.00    -0.089 HD
ATOM     29  H   UNK    1        5.566  -1.620   8.268  0.00  0.00    -0.089 HD
ENDBRANCH  25  26
BRANCH  25  30
ATOM     30  C   UNK    1        6.112   0.941   8.062  0.00  0.00    +0.292 C 
ATOM     31  O   UNK    1        5.370   0.736   9.007  0.00  0.00    -0.253 OA
BRANCH  30  32
ATOM     32  O   UNK    1        6.550   2.061   7.862  0.00  0.00    -0.482 OA
ATOM     33  H   UNK    1        7.120   2.218   7.135  0.00  0.00    +0.295 HD
ENDBRANCH  30  32
ENDBRANCH  25  30
ENDBRANCH  24  25
ENDBRANCH  23  24
ENDBRANCH   1  23
TORSDOF 11
