REMARK  Name = ZINC13831240
REMARK                            x       y       z     vdW  Elec       q    Type
REMARK                         _______ _______ _______ _____ _____    ______ ____
ROOT
ATOM      1  N   LIG    1       -0.499  -0.169  -1.484  0.00  0.00    -0.042 NA
ENDROOT
BRANCH   1   2
ATOM      2  S   LIG    1       -1.767   0.775  -1.978  0.00  0.00    +0.083 S 
ATOM      3  O   LIG    1       -2.639   0.900  -0.863  0.00  0.00    -0.151 OA
ATOM      4  O   LIG    1       -2.198   0.255  -3.228  0.00  0.00    -0.151 OA
BRANCH   2   5
ATOM      5  C   LIG    1       -1.124   2.384  -2.297  0.00  0.00    +0.108 A 
ATOM      6  C   LIG    1       -1.080   3.323  -1.282  0.00  0.00    +0.029 A 
ATOM      7  C   LIG    1       -0.578   4.585  -1.526  0.00  0.00    +0.010 A 
ATOM      8  C   LIG    1       -0.115   4.913  -2.799  0.00  0.00    -0.018 A 
ATOM      9  C   LIG    1       -0.162   3.964  -3.818  0.00  0.00    +0.010 A 
ATOM     10  C   LIG    1       -0.661   2.703  -3.561  0.00  0.00    +0.029 A 
BRANCH   8  11
ATOM     11  C   LIG    1        0.426   6.268  -3.068  0.00  0.00    -0.018 A 
ATOM     12  C   LIG    1        0.478   7.216  -2.048  0.00  0.00    +0.008 A 
ATOM     13  C   LIG    1        0.982   8.475  -2.304  0.00  0.00    +0.001 A 
ATOM     14  C   LIG    1        1.435   8.797  -3.570  0.00  0.00    +0.000 A 
ATOM     15  C   LIG    1        1.385   7.861  -4.587  0.00  0.00    +0.001 A 
ATOM     16  C   LIG    1        0.888   6.597  -4.341  0.00  0.00    +0.008 A 
ENDBRANCH   8  11
ENDBRANCH   2   5
ENDBRANCH   1   2
BRANCH   1  17
ATOM     17  C   LIG    1       -0.177  -0.276  -0.059  0.00  0.00    +0.199 C 
BRANCH  17  18
ATOM     18  C   LIG    1       -0.470  -1.675   0.418  0.00  0.00    +0.257 C 
ATOM     19  N   LIG    1       -0.856  -1.886   1.693  0.00  0.00    -0.196 N 
ATOM     20  H   LIG    1       -1.008  -1.132   2.284  0.00  0.00    +0.182 HD
ATOM     21  O   LIG    1       -0.360  -2.612  -0.344  0.00  0.00    -0.272 OA
BRANCH  19  22
ATOM     22  O   LIG    1       -1.037  -3.207   2.169  0.00  0.00    -0.295 OA
ATOM     23  H   LIG    1       -1.314  -3.257   3.094  0.00  0.00    +0.241 HD
ENDBRANCH  19  22
ENDBRANCH  17  18
BRANCH  17  25
ATOM     24  C   LIG    1        1.608   1.447  -0.350  0.00  0.00    +0.009 C 
ATOM     25  C   LIG    1        1.306   0.034   0.154  0.00  0.00    +0.013 C 
ATOM     26  C   LIG    1        1.638  -0.057   1.645  0.00  0.00    +0.009 C 
ENDBRANCH  17  25
ENDBRANCH   1  17
BRANCH   1  27
ATOM     27  O   LIG    1        0.274  -0.873  -2.439  0.00  0.00    -0.273 OA
BRANCH  27  28
ATOM     28  C   LIG    1       -0.297  -2.118  -2.846  0.00  0.00    +0.138 C 
ATOM     29  C   LIG    1        0.716  -3.242  -2.618  0.00  0.00    +0.040 C 
ATOM     30  C   LIG    1       -0.661  -2.052  -4.330  0.00  0.00    +0.040 C 
ENDBRANCH  27  28
ENDBRANCH   1  27
TORSDOF 9
