REMARK  Name = ZINC13808067
REMARK                            x       y       z     vdW  Elec       q    Type
REMARK                         _______ _______ _______ _____ _____    ______ ____
ROOT
ATOM      1  S   LIG    1        4.001   1.932  -0.026  0.00  0.00    +0.161 S 
ATOM      2  O   LIG    1        3.957   3.244  -0.570  0.00  0.00    -0.132 OA
ATOM      3  O   LIG    1        4.799   0.900  -0.590  0.00  0.00    -0.132 OA
ENDROOT
BRANCH   1   6
ATOM      4  C   LIG    1       -0.016   1.351   0.009  0.00  0.00    +0.010 A 
ATOM      5  C   LIG    1        1.183   2.038   0.002  0.00  0.00    +0.038 A 
ATOM      6  C   LIG    1        2.343   1.336  -0.013  0.00  0.00    +0.164 A 
ATOM      7  S   LIG    1        1.754  -0.349  -0.017  0.00  0.00    -0.075 S 
ATOM      8  C   LIG    1        0.002  -0.004   0.002  0.00  0.00    +0.047 A 
ENDBRANCH   1   6
BRANCH   1   9
ATOM      9  N   LIG    1        4.477   2.089   1.552  0.00  0.00    +0.062 NA
ATOM     10  C   LIG    1        5.676   2.518   1.831  0.00  0.00    +0.403 C 
BRANCH  10  11
ATOM     11  N   LIG    1        6.071   2.648   3.142  0.00  0.00    -0.288 N 
ATOM     12  H   LIG    1        6.963   2.967   3.349  0.00  0.00    +0.255 HD
ATOM     13  H   LIG    1        5.458   2.422   3.858  0.00  0.00    +0.255 HD
ENDBRANCH  10  11
BRANCH  10  14
ATOM     14  N   LIG    1        6.545   2.839   0.816  0.00  0.00    -0.288 N 
ATOM     15  H   LIG    1        6.262   2.745  -0.123  0.00  0.00    +0.255 HD
ATOM     16  H   LIG    1        7.437   3.157   1.024  0.00  0.00    +0.255 HD
ENDBRANCH  10  14
ENDBRANCH   1   9
TORSDOF 4
