REMARK  Name = ZINC17014699
REMARK                            x       y       z     vdW  Elec       q    Type
REMARK                         _______ _______ _______ _____ _____    ______ ____
ROOT
ATOM      1  C   LIG    1       -0.017   1.375   0.010  0.00  0.00    +0.001 A 
ATOM      2  C   LIG    1        1.173   2.087   0.002  0.00  0.00    +0.002 A 
ATOM      3  C   LIG    1        2.387   1.433  -0.011  0.00  0.00    +0.024 A 
ATOM      4  C   LIG    1        2.431   0.042  -0.018  0.00  0.00    +0.045 A 
ATOM      5  C   LIG    1        1.223  -0.675  -0.013  0.00  0.00    +0.045 A 
ATOM      6  C   LIG    1        1.278  -2.155  -0.031  0.00  0.00    +0.221 C 
ATOM      7  C   LIG    1        2.554  -2.728  -0.561  0.00  0.00    +0.211 C 
ATOM      8  C   LIG    1        3.777  -1.926  -0.282  0.00  0.00    +0.274 C 
ATOM      9  O   LIG    1        4.873  -2.452  -0.285  0.00  0.00    -0.268 OA
ATOM     10  N   LIG    1        2.593  -3.852  -1.222  0.00  0.00    -0.078 NA
ATOM     11  O   LIG    1        0.357  -2.849   0.355  0.00  0.00    -0.285 OA
ATOM     12  N   LIG    1        3.653  -0.610  -0.026  0.00  0.00    -0.279 N 
ATOM     13  H   LIG    1        4.454  -0.096   0.160  0.00  0.00    +0.155 HD
ATOM     14  C   LIG    1        0.002  -0.004   0.002  0.00  0.00    +0.013 A 
ENDROOT
BRANCH  10  15
ATOM     15  O   LIG    1        1.399  -4.575  -1.459  0.00  0.00    -0.409 OA
ATOM     16  H   LIG    1        1.427  -5.383  -1.934  0.00  0.00    +0.328 HD
ENDBRANCH  10  15
TORSDOF 1
