REMARK  Name = ZINC00024946
REMARK                            x       y       z     vdW  Elec       q    Type
REMARK                         _______ _______ _______ _____ _____    ______ ____
ROOT
ATOM      1  C   LIG    1       -5.442  -2.858  -1.383  0.00  0.00    +0.015 A 
ATOM      2  C   LIG    1       -6.286  -1.961  -2.009  0.00  0.00    +0.121 A 
ATOM      3  N   LIG    1       -6.668  -2.193  -3.256  0.00  0.00    -0.223 NA
ATOM      4  C   LIG    1       -6.252  -3.270  -3.907  0.00  0.00    +0.214 A 
ATOM      5  N   LIG    1       -5.444  -4.154  -3.342  0.00  0.00    -0.200 NA
ATOM      6  C   LIG    1       -5.016  -3.981  -2.095  0.00  0.00    +0.125 A 
ENDROOT
BRANCH   4   7
ATOM      7  N   LIG    1       -6.673  -3.476  -5.209  0.00  0.00    -0.327 N 
ATOM      8  H   LIG    1       -6.377  -4.261  -5.696  0.00  0.00    +0.145 HD
ATOM      9  H   LIG    1       -7.266  -2.837  -5.634  0.00  0.00    +0.145 HD
ENDBRANCH   4   7
BRANCH   6  10
ATOM     10  N   LIG    1       -4.166  -4.905  -1.509  0.00  0.00    -0.343 N 
ATOM     11  H   LIG    1       -3.875  -5.682  -2.010  0.00  0.00    +0.144 HD
ATOM     12  H   LIG    1       -3.862  -4.774  -0.597  0.00  0.00    +0.144 HD
ENDBRANCH   6  10
BRANCH   1  13
ATOM     13  C   LIG    1       -4.987  -2.627   0.035  0.00  0.00    +0.075 C 
BRANCH  13  17
ATOM     14  C   LIG    1       -1.201  -0.638   0.010  0.00  0.00    +0.161 A 
ATOM     15  C   LIG    1       -2.374   0.099   0.019  0.00  0.00    +0.049 A 
ATOM     16  C   LIG    1       -3.596  -0.546   0.027  0.00  0.00    +0.008 A 
ATOM     17  C   LIG    1       -3.652  -1.928   0.026  0.00  0.00    -0.039 A 
ATOM     18  C   LIG    1       -2.485  -2.669   0.017  0.00  0.00    +0.053 A 
ATOM     19  C   LIG    1       -1.257  -2.028   0.003  0.00  0.00    +0.162 A 
BRANCH  14  21
ATOM     20  C   LIG    1       -0.017   1.425   0.010  0.00  0.00    +0.277 C 
ATOM     21  O   LIG    1        0.002  -0.004   0.002  0.00  0.00    -0.491 OA
ENDBRANCH  14  21
BRANCH  19  22
ATOM     22  O   LIG    1       -0.108  -2.756  -0.012  0.00  0.00    -0.491 OA
ATOM     23  C   LIG    1       -0.242  -4.179  -0.018  0.00  0.00    +0.277 C 
ENDBRANCH  19  22
ENDBRANCH  13  17
ENDBRANCH   1  13
TORSDOF 6
