REMARK  Name = ZINC71297124
REMARK                            x       y       z     vdW  Elec       q    Type
REMARK                         _______ _______ _______ _____ _____    ______ ____
ROOT
ATOM      1  C   LIG    1       -2.076   2.082  -6.084  0.00  0.00    +0.090 A 
ATOM      2  C   LIG    1       -3.346   1.580  -6.386  0.00  0.00    +0.141 A 
ATOM      3  N   LIG    1       -3.964   1.957  -7.488  0.00  0.00    -0.236 NA
ATOM      4  C   LIG    1       -3.382   2.817  -8.317  0.00  0.00    +0.147 A 
ATOM      5  C   LIG    1       -2.107   3.324  -8.017  0.00  0.00    +0.166 A 
ATOM      6  N   LIG    1       -1.490   2.945  -6.902  0.00  0.00    -0.237 NA
ENDROOT
BRANCH   1  10
ATOM      7  C   LIG    1       -0.097   0.853  -2.527  0.00  0.00    +0.089 A 
ATOM      8  C   LIG    1       -1.304   0.275  -2.879  0.00  0.00    +0.027 A 
ATOM      9  C   LIG    1       -1.950   0.670  -4.033  0.00  0.00    +0.012 A 
ATOM     10  C   LIG    1       -1.386   1.654  -4.843  0.00  0.00    +0.002 A 
ATOM     11  C   LIG    1       -0.170   2.233  -4.483  0.00  0.00    +0.012 A 
ATOM     12  C   LIG    1        0.465   1.834  -3.324  0.00  0.00    +0.027 A 
BRANCH   7  13
ATOM     13  S   LIG    1        0.723   0.344  -1.053  0.00  0.00    +0.001 S 
ATOM     14  O   LIG    1        0.280  -0.989  -0.834  0.00  0.00    -0.169 OA
ATOM     15  O   LIG    1        2.097   0.620  -1.288  0.00  0.00    -0.169 OA
BRANCH  13  17
ATOM     16  C   LIG    1        0.290   2.896  -0.171  0.00  0.00    +0.033 C 
ATOM     17  C   LIG    1        0.078   1.438   0.242  0.00  0.00    +0.147 C 
BRANCH  17  18
ATOM     18  C   LIG    1        0.817   1.167   1.554  0.00  0.00    +0.110 C 
BRANCH  18  19
ATOM     19  N   LIG    1        0.614  -0.233   1.950  0.00  0.00    -0.307 NA
ATOM     20  C   LIG    1       -0.794  -0.487   2.283  0.00  0.00    +0.104 C 
ATOM     21  C   LIG    1        1.494  -0.596   3.069  0.00  0.00    +0.104 C 
ENDBRANCH  18  19
ENDBRANCH  17  18
ENDBRANCH  13  17
ENDBRANCH   7  13
ENDBRANCH   1  10
BRANCH   5  22
ATOM     22  C   LIG    1       -1.455   4.280  -8.935  0.00  0.00    +0.270 C 
ATOM     23  N   LIG    1       -0.191   4.685  -8.701  0.00  0.00    -0.280 N 
ATOM     24  H   LIG    1        0.318   4.291  -7.975  0.00  0.00    +0.155 HD
ATOM     25  O   LIG    1       -2.059   4.703  -9.902  0.00  0.00    -0.268 OA
BRANCH  23  26
ATOM     26  C   LIG    1        0.388   5.672  -9.505  0.00  0.00    +0.034 A 
ATOM     27  C   LIG    1        1.749   5.636  -9.780  0.00  0.00    +0.023 A 
ATOM     28  C   LIG    1        2.317   6.612 -10.575  0.00  0.00    +0.002 A 
ATOM     29  C   LIG    1        1.532   7.624 -11.097  0.00  0.00    +0.000 A 
ATOM     30  C   LIG    1        0.177   7.663 -10.825  0.00  0.00    +0.002 A 
ATOM     31  C   LIG    1       -0.399   6.686 -10.036  0.00  0.00    +0.023 A 
ENDBRANCH  23  26
ENDBRANCH   5  22
BRANCH   4  32
ATOM     32  N   LIG    1       -4.030   3.212  -9.472  0.00  0.00    -0.341 N 
ATOM     33  H   LIG    1       -3.818   4.066  -9.880  0.00  0.00    +0.144 HD
ATOM     34  H   LIG    1       -4.697   2.635  -9.875  0.00  0.00    +0.144 HD
ENDBRANCH   4  32
TORSDOF 8
