REMARK  Name = ZINC38212689
REMARK                            x       y       z     vdW  Elec       q    Type
REMARK                         _______ _______ _______ _____ _____    ______ ____
ROOT
ATOM      1  C   LIG    1       -0.016   1.329   0.009  0.00  0.00    +0.160 A 
ATOM      2  C   LIG    1        1.155   2.028   0.002  0.00  0.00    +0.205 A 
ATOM      3  F   LIG    1        1.150   3.379   0.009  0.00  0.00    -0.198 F 
ATOM      4  C   LIG    1        2.371   1.316  -0.013  0.00  0.00    +0.289 A 
ATOM      5  N   LIG    1        2.331  -0.033  -0.020  0.00  0.00    -0.275 N 
ATOM      6  C   LIG    1        1.133  -0.674  -0.012  0.00  0.00    +0.296 A 
ATOM      7  H   LIG    1        3.156  -0.544  -0.031  0.00  0.00    +0.173 HD
ATOM      8  O   LIG    1        3.438   1.907  -0.020  0.00  0.00    -0.265 OA
ATOM      9  N   LIG    1        0.002  -0.004   0.002  0.00  0.00    -0.202 NA
ENDROOT
BRANCH   6  10
ATOM     10  O   LIG    1        1.104  -2.023  -0.019  0.00  0.00    -0.480 OA
ATOM     11  H   LIG    1        1.905  -2.509  -0.030  0.00  0.00    +0.295 HD
ENDBRANCH   6  10
TORSDOF 1
