REMARK  Name = ZINC34392679
REMARK                            x       y       z     vdW  Elec       q    Type
REMARK                         _______ _______ _______ _____ _____    ______ ____
ROOT
ATOM      1  C   LIG    1       -0.356  -9.070  -3.346  0.00  0.00    +0.252 C 
ATOM      2  N   LIG    1       -0.733 -10.362  -3.421  0.00  0.00    -0.283 N 
ATOM      3  H   LIG    1       -1.155 -10.789  -2.659  0.00  0.00    +0.155 HD
ATOM      4  O   LIG    1        0.087  -8.511  -4.327  0.00  0.00    -0.272 OA
ENDROOT
BRANCH   2   5
ATOM      5  C   LIG    1       -0.513 -11.088  -4.596  0.00  0.00    +0.034 A 
ATOM      6  C   LIG    1        0.606 -10.828  -5.376  0.00  0.00    +0.025 A 
ATOM      7  C   LIG    1        0.819 -11.547  -6.536  0.00  0.00    +0.035 A 
ATOM      8  C   LIG    1       -0.080 -12.524  -6.921  0.00  0.00    +0.133 A 
ATOM      9  C   LIG    1       -1.196 -12.785  -6.147  0.00  0.00    +0.086 A 
ATOM     10  C   LIG    1       -1.411 -12.075  -4.983  0.00  0.00    +0.038 A 
BRANCH   9  11
ATOM     11  C   LIG    1       -2.173 -13.851  -6.571  0.00  0.00    +0.420 C 
ATOM     12  F   LIG    1       -1.517 -15.084  -6.645  0.00  0.00    -0.166 F 
ATOM     13  F   LIG    1       -2.700 -13.527  -7.826  0.00  0.00    -0.166 F 
ATOM     14  F   LIG    1       -3.211 -13.930  -5.636  0.00  0.00    -0.166 F 
ENDBRANCH   9  11
BRANCH   8  15
ATOM     15  N   LIG    1        0.152 -13.292  -8.165  0.00  0.00    +0.007 N 
ATOM     16  O   LIG    1        1.127 -13.065  -8.844  0.00  0.00    -0.130 OA
BRANCH  15  17
ATOM     17  O   LIG    1       -0.633 -14.147  -8.503  0.00  0.00    -0.396 OA
ATOM     18  H   LIG    1       -1.389 -14.323  -7.978  0.00  0.00    +0.329 HD
ENDBRANCH  15  17
ENDBRANCH   8  15
ENDBRANCH   2   5
BRANCH   1  19
ATOM     19  C   LIG    1       -0.487  -8.321  -2.045  0.00  0.00    +0.173 C 
ATOM     20  C   LIG    1        0.750  -8.578  -1.182  0.00  0.00    +0.055 C 
BRANCH  19  21
ATOM     21  O   LIG    1       -1.653  -8.770  -1.352  0.00  0.00    -0.376 OA
ATOM     22  H   LIG    1       -2.477  -8.637  -1.842  0.00  0.00    +0.211 HD
ENDBRANCH  19  21
BRANCH  19  23
ATOM     23  C   LIG    1       -0.607  -6.822  -2.330  0.00  0.00    +0.273 C 
BRANCH  23  24
ATOM     24  O   LIG    1       -0.614  -6.102  -1.095  0.00  0.00    -0.489 OA
BRANCH  24  28
ATOM     25  C   LIG    1       -0.924  -1.992  -1.325  0.00  0.00    +0.034 A 
ATOM     26  C   LIG    1       -0.832  -2.614  -0.087  0.00  0.00    +0.027 A 
ATOM     27  C   LIG    1       -0.729  -3.988  -0.011  0.00  0.00    +0.047 A 
ATOM     28  C   LIG    1       -0.716  -4.749  -1.171  0.00  0.00    +0.121 A 
ATOM     29  C   LIG    1       -0.808  -4.128  -2.409  0.00  0.00    +0.047 A 
ATOM     30  C   LIG    1       -0.917  -2.754  -2.486  0.00  0.00    +0.027 A 
BRANCH  25  33
ATOM     31  C   LIG    1       -1.987   1.463  -2.382  0.00  0.00    +0.109 C 
ATOM     32  C   LIG    1       -1.790  -0.031  -2.361  0.00  0.00    +0.214 C 
ATOM     33  N   LIG    1       -1.029  -0.597  -1.403  0.00  0.00    -0.286 N 
ATOM     34  H   LIG    1       -0.554  -0.039  -0.768  0.00  0.00    +0.155 HD
ATOM     35  O   LIG    1       -2.317  -0.724  -3.205  0.00  0.00    -0.276 OA
ENDBRANCH  25  33
ENDBRANCH  24  28
ENDBRANCH  23  24
ENDBRANCH  19  23
ENDBRANCH   1  19
TORSDOF 10
