REMARK  Name = ZINC14951858
REMARK                            x       y       z     vdW  Elec       q    Type
REMARK                         _______ _______ _______ _____ _____    ______ ____
ROOT
ATOM      1  C   LIG    1       -1.016   1.335  -0.043  0.00  0.00    +0.070 C 
ATOM      2  C   LIG    1       -0.781  -0.152  -0.090  0.00  0.00    +0.098 C 
ATOM      3  N   LIG    1       -1.099  -0.899   0.937  0.00  0.00    -0.074 NA
ENDROOT
BRANCH   2   4
ATOM      4  C   LIG    1       -0.216  -0.743  -1.246  0.00  0.00    +0.175 C 
ATOM      5  N   LIG    1        0.116  -2.003  -1.237  0.00  0.00    -0.118 NA
BRANCH   5   6
ATOM      6  N   LIG    1        0.137  -2.714  -0.030  0.00  0.00    -0.155 N 
ATOM      7  H   LIG    1       -0.007  -2.249   0.809  0.00  0.00    +0.292 HD
BRANCH   6   8
ATOM      8  C   LIG    1        0.363  -4.071  -0.035  0.00  0.00    +0.400 C 
ATOM      9  N   LIG    1        0.556  -4.696  -1.163  0.00  0.00    -0.128 NA
ATOM     10  H   LIG    1        0.715  -5.653  -1.167  0.00  0.00    +0.306 HD
BRANCH   8  11
ATOM     11  N   LIG    1        0.384  -4.769   1.150  0.00  0.00    -0.288 N 
ATOM     12  H   LIG    1        0.542  -5.726   1.147  0.00  0.00    +0.255 HD
ATOM     13  H   LIG    1        0.239  -4.305   1.990  0.00  0.00    +0.255 HD
ENDBRANCH   8  11
ENDBRANCH   6   8
ENDBRANCH   5   6
ENDBRANCH   2   4
BRANCH   3  14
ATOM     14  N   LIG    1       -1.614  -0.360   1.991  0.00  0.00    +0.044 NA
ATOM     15  C   LIG    1       -1.934  -1.112   3.026  0.00  0.00    +0.404 C 
BRANCH  15  16
ATOM     16  N   LIG    1       -2.482  -0.540   4.146  0.00  0.00    -0.287 N 
ATOM     17  H   LIG    1       -2.717  -1.093   4.907  0.00  0.00    +0.255 HD
ATOM     18  H   LIG    1       -2.633   0.417   4.176  0.00  0.00    +0.255 HD
ENDBRANCH  15  16
BRANCH  15  19
ATOM     19  N   LIG    1       -1.720  -2.466   2.982  0.00  0.00    -0.287 N 
ATOM     20  H   LIG    1       -1.956  -3.019   3.744  0.00  0.00    +0.255 HD
ATOM     21  H   LIG    1       -1.333  -2.871   2.191  0.00  0.00    +0.255 HD
ENDBRANCH  15  19
ENDBRANCH   3  14
TORSDOF 7
