REMARK  Name = ZINC16052058
REMARK                            x       y       z     vdW  Elec       q    Type
REMARK                         _______ _______ _______ _____ _____    ______ ____
ROOT
ATOM      1  C   LIG    1        1.370   1.839  -0.001  0.00  0.00    +0.253 C 
ATOM      2  C   LIG    1        2.073   0.852   0.957  0.00  0.00    +0.195 C 
ATOM      3  C   LIG    1        1.152  -0.389   0.959  0.00  0.00    +0.178 C 
ATOM      4  C   LIG    1        0.002  -0.004   0.002  0.00  0.00    +0.178 C 
ATOM      5  O   LIG    1       -0.018   1.440   0.010  0.00  0.00    -0.346 OA
ENDROOT
BRANCH   1  16
ATOM      6  C   LIG    1        0.632   3.874   1.299  0.00  0.00    +0.203 A 
ATOM      7  N   LIG    1        1.071   5.075   1.538  0.00  0.00    -0.229 NA
ATOM      8  C   LIG    1        2.249   5.259   0.893  0.00  0.00    +0.172 A 
ATOM      9  C   LIG    1        3.156   6.338   0.788  0.00  0.00    +0.280 A 
ATOM     10  N   LIG    1        4.267   6.172   0.036  0.00  0.00    -0.293 N 
ATOM     11  C   LIG    1        4.497   4.989  -0.601  0.00  0.00    +0.195 A 
ATOM     12  N   LIG    1        3.661   3.978  -0.511  0.00  0.00    -0.196 NA
ATOM     13  H   LIG    1        4.992   6.994  -0.065  0.00  0.00    +0.172 HD
ATOM     14  O   LIG    1        2.942   7.393   1.361  0.00  0.00    -0.265 OA
ATOM     15  C   LIG    1        2.541   4.069   0.215  0.00  0.00    +0.171 A 
ATOM     16  N   LIG    1        1.510   3.213   0.489  0.00  0.00    -0.285 N 
BRANCH  11  17
ATOM     17  N   LIG    1        5.633   4.849  -1.357  0.00  0.00    -0.329 N 
ATOM     18  H   LIG    1        6.343   5.685  -1.443  0.00  0.00    +0.145 HD
ATOM     19  H   LIG    1        5.835   3.901  -1.877  0.00  0.00    +0.145 HD
ENDBRANCH  11  17
ENDBRANCH   1  16
BRANCH   2  20
ATOM     20  O   LIG    1        3.371   0.511   0.466  0.00  0.00    -0.385 OA
ATOM     21  H   LIG    1        4.008  -0.185   1.032  0.00  0.00    +0.210 HD
ENDBRANCH   2  20
BRANCH   3  22
ATOM     22  O   LIG    1        1.852  -1.533   0.467  0.00  0.00    -0.386 OA
ATOM     23  H   LIG    1        1.341  -2.504   0.401  0.00  0.00    +0.210 HD
ENDBRANCH   3  22
BRANCH   4  24
ATOM     24  C   LIG    1       -1.328  -0.558   0.518  0.00  0.00    +0.206 C 
BRANCH  24  25
ATOM     25  O   LIG    1       -2.370  -0.228  -0.403  0.00  0.00    -0.284 OA
BRANCH  25  26
ATOM     26  P   LIG    1       -3.906  -0.654  -0.177  0.00  0.00    +0.483 P 
ATOM     27  O   LIG    1       -4.365  -0.165   1.142  0.00  0.00    -0.227 OA
BRANCH  26  28
ATOM     28  O   LIG    1       -4.031  -2.258  -0.229  0.00  0.00    -0.302 OA
ATOM     29  H   LIG    1       -3.482  -2.648   0.469  0.00  0.00    +0.222 HD
ENDBRANCH  26  28
BRANCH  26  30
ATOM     30  O   LIG    1       -4.818  -0.007  -1.336  0.00  0.00    -0.186 OA
BRANCH  30  31
ATOM     31  P   LIG    1       -6.391   0.304  -1.478  0.00  0.00    +0.490 P 
ATOM     32  O   LIG    1       -6.886   0.928  -0.230  0.00  0.00    -0.227 OA
BRANCH  31  33
ATOM     33  O   LIG    1       -7.188  -1.069  -1.743  0.00  0.00    -0.302 OA
ATOM     34  H   LIG    1       -7.044  -1.675  -0.999  0.00  0.00    +0.222 HD
ENDBRANCH  31  33
BRANCH  31  35
ATOM     35  O   LIG    1       -6.630   1.310  -2.712  0.00  0.00    -0.211 OA
BRANCH  35  36
ATOM     36  P   LIG    1       -7.828   2.300  -3.132  0.00  0.00    +0.312 P 
ATOM     37  S   LIG    1       -9.393   1.317  -3.369  0.00  0.00    +0.023 S 
BRANCH  36  38
ATOM     38  O   LIG    1       -7.449   3.047  -4.508  0.00  0.00    -0.327 OA
ATOM     39  H   LIG    1       -8.151   3.767  -4.953  0.00  0.00    +0.219 HD
ENDBRANCH  36  38
BRANCH  36  40
ATOM     40  O   LIG    1       -8.051   3.394  -1.972  0.00  0.00    -0.327 OA
ATOM     41  H   LIG    1       -8.833   4.160  -2.082  0.00  0.00    +0.219 HD
ENDBRANCH  36  40
ENDBRANCH  35  36
ENDBRANCH  31  35
ENDBRANCH  30  31
ENDBRANCH  26  30
ENDBRANCH  25  26
ENDBRANCH  24  25
ENDBRANCH   4  24
TORSDOF 15
