REMARK  Name = ZINC49109990
REMARK                            x       y       z     vdW  Elec       q    Type
REMARK                         _______ _______ _______ _____ _____    ______ ____
ROOT
ATOM      1  C   LIG    1        5.773  -3.575  -0.082  0.00  0.00    +0.248 C 
ATOM      2  N   LIG    1        5.012  -4.688  -0.087  0.00  0.00    -0.310 N 
ATOM      3  H   LIG    1        4.045  -4.614  -0.079  0.00  0.00    +0.149 HD
ATOM      4  O   LIG    1        6.985  -3.667  -0.092  0.00  0.00    -0.270 OA
ENDROOT
BRANCH   1   7
ATOM      5  N   LIG    1        3.623  -0.652  -0.037  0.00  0.00    -0.239 N 
ATOM      6  C   LIG    1        3.778  -1.988  -0.051  0.00  0.00    +0.128 A 
ATOM      7  C   LIG    1        5.135  -2.246  -0.065  0.00  0.00    +0.086 A 
ATOM      8  C   LIG    1        5.797  -0.998  -0.058  0.00  0.00    +0.178 A 
ATOM      9  N   LIG    1        4.891  -0.059  -0.048  0.00  0.00    -0.162 NA
BRANCH   5  13
ATOM     10  C   LIG    1       -0.017   1.379   0.010  0.00  0.00    +0.000 A 
ATOM     11  C   LIG    1        1.170   2.089   0.002  0.00  0.00    +0.002 A 
ATOM     12  C   LIG    1        2.377   1.419  -0.013  0.00  0.00    +0.028 A 
ATOM     13  C   LIG    1        2.400   0.031  -0.021  0.00  0.00    +0.065 A 
ATOM     14  C   LIG    1        1.207  -0.680  -0.013  0.00  0.00    +0.028 A 
ATOM     15  C   LIG    1        0.002  -0.004   0.002  0.00  0.00    +0.002 A 
ENDBRANCH   5  13
BRANCH   8  16
ATOM     16  C   LIG    1        7.289  -0.787  -0.068  0.00  0.00    +0.437 C 
ATOM     17  F   LIG    1        7.915  -1.859   0.577  0.00  0.00    -0.164 F 
ATOM     18  F   LIG    1        7.597   0.403   0.601  0.00  0.00    -0.164 F 
ATOM     19  F   LIG    1        7.740  -0.709  -1.389  0.00  0.00    -0.164 F 
ENDBRANCH   8  16
ENDBRANCH   1   7
BRANCH   2  20
ATOM     20  C   LIG    1        5.646  -6.008  -0.104  0.00  0.00    +0.123 C 
BRANCH  20  21
ATOM     21  C   LIG    1        4.566  -7.092  -0.106  0.00  0.00    +0.123 C 
BRANCH  21  22
ATOM     22  N   LIG    1        5.200  -8.413  -0.123  0.00  0.00    -0.310 N 
ATOM     23  H   LIG    1        6.168  -8.486  -0.131  0.00  0.00    +0.149 HD
ATOM     24  C   LIG    1        4.440  -9.525  -0.128  0.00  0.00    +0.246 C 
ATOM     25  O   LIG    1        3.228  -9.433  -0.118  0.00  0.00    -0.270 OA
BRANCH  24  26
ATOM     26  C   LIG    1        5.079 -10.856  -0.145  0.00  0.00    +0.055 A 
ATOM     27  C   LIG    1        4.297 -12.021  -0.157  0.00  0.00    +0.020 A 
ATOM     28  C   LIG    1        4.940 -13.241  -0.173  0.00  0.00    +0.068 A 
ATOM     29  C   LIG    1        6.331 -13.277  -0.177  0.00  0.00    +0.215 A 
ATOM     30  N   LIG    1        7.041 -12.160  -0.167  0.00  0.00    -0.221 NA
ATOM     31  C   LIG    1        6.469 -10.974  -0.157  0.00  0.00    +0.127 A 
BRANCH  29  32
ATOM     32  O   LIG    1        6.968 -14.473  -0.193  0.00  0.00    -0.467 OA
BRANCH  32  33
ATOM     33  C   LIG    1        8.397 -14.447  -0.197  0.00  0.00    +0.343 C 
BRANCH  33  34
ATOM     34  C   LIG    1        8.934 -15.880  -0.215  0.00  0.00    +0.424 C 
ATOM     35  F   LIG    1        8.483 -16.560   0.921  0.00  0.00    -0.167 F 
ATOM     36  F   LIG    1       10.332 -15.854  -0.219  0.00  0.00    -0.167 F 
ATOM     37  F   LIG    1        8.476 -16.535  -1.363  0.00  0.00    -0.167 F 
ENDBRANCH  33  34
ENDBRANCH  32  33
ENDBRANCH  29  32
ENDBRANCH  24  26
ENDBRANCH  21  22
ENDBRANCH  20  21
ENDBRANCH   2  20
TORSDOF 10
