REMARK  Name = ZINC28376640
REMARK                            x       y       z     vdW  Elec       q    Type
REMARK                         _______ _______ _______ _____ _____    ______ ____
ROOT
ATOM      1  C   LIG    1       -1.645   2.551   1.445  0.00  0.00    +0.084 A 
ATOM      2  N   LIG    1       -1.190   3.621   2.080  0.00  0.00    -0.307 N 
ATOM      3  H   LIG    1       -0.510   4.307   1.554  0.00  0.00    +0.170 HD
ATOM      4  C   LIG    1       -1.544   3.870   3.331  0.00  0.00    +0.327 A 
ATOM      5  O   LIG    1       -1.058   4.975   3.946  0.00  0.00    -0.247 OA
ATOM      6  N   LIG    1       -2.359   3.068   3.995  0.00  0.00    -0.274 N 
ATOM      7  H   LIG    1       -2.634   3.302   5.034  0.00  0.00    +0.173 HD
ATOM      8  C   LIG    1       -2.853   1.978   3.421  0.00  0.00    +0.273 A 
ATOM      9  O   LIG    1       -3.688   1.159   4.106  0.00  0.00    -0.266 OA
ATOM     10  C   LIG    1       -2.504   1.690   2.102  0.00  0.00    +0.128 A 
ATOM     11 CL   LIG    1       -3.134   0.283   1.303  0.00  0.00    -0.076 Cl
ENDROOT
BRANCH   1  12
ATOM     12  C   LIG    1       -1.230   2.276   0.023  0.00  0.00    +0.280 C 
BRANCH  12  16
ATOM     13  C   LIG    1        1.496  -0.423   0.053  0.00  0.00    +0.055 C 
ATOM     14  C   LIG    1        2.207   0.880   0.483  0.00  0.00    +0.127 C 
ATOM     15  C   LIG    1        1.262   1.968   0.011  0.00  0.00    +0.239 C 
ATOM     16  N   LIG    1       -0.011   1.462   0.018  0.00  0.00    -0.222 N 
ATOM     17  N   LIG    1        1.599   3.166  -0.338  0.00  0.00    -0.292 N 
ATOM     18  H   LIG    1        2.655   3.471  -0.307  0.00  0.00    +0.301 HD
ATOM     19  H   LIG    1        0.830   3.881  -0.666  0.00  0.00    +0.301 HD
ATOM     20  C   LIG    1        0.012  -0.005   0.015  0.00  0.00    +0.226 C 
ENDBRANCH  12  16
ENDBRANCH   1  12
TORSDOF 2
