REMARK  Name = ZINC18222880
REMARK                            x       y       z     vdW  Elec       q    Type
REMARK                         _______ _______ _______ _____ _____    ______ ____
ROOT
ATOM      1  C   LIG    1        7.968  -1.881  -0.967  0.00  0.00    +0.026 A 
ATOM      2  C   LIG    1        7.092  -1.211  -0.107  0.00  0.00    +0.017 A 
ATOM      3  C   LIG    1        6.273  -1.925   0.743  0.00  0.00    +0.002 A 
ATOM      4  C   LIG    1        6.310  -3.306   0.750  0.00  0.00    +0.013 A 
ATOM      5  C   LIG    1        7.180  -3.989  -0.103  0.00  0.00    +0.038 A 
ATOM      6  C   LIG    1        8.006  -3.276  -0.968  0.00  0.00    +0.030 A 
ENDROOT
BRANCH   5   7
ATOM      7  C   LIG    1        7.218  -5.468  -0.092  0.00  0.00    +0.247 C 
ATOM      8  N   LIG    1        8.396  -6.112  -0.208  0.00  0.00    -0.295 N 
ATOM      9  C   LIG    1        9.665  -5.368  -0.224  0.00  0.00    +0.127 C 
ATOM     10  C   LIG    1       10.604  -5.995   0.819  0.00  0.00    +0.125 C 
ATOM     11  N   LIG    1       10.725  -7.436   0.558  0.00  0.00    -0.312 N 
ATOM     12  C   LIG    1        9.433  -8.116   0.714  0.00  0.00    +0.125 C 
ATOM     13  C   LIG    1        8.446  -7.577  -0.327  0.00  0.00    +0.127 C 
ATOM     14  O   LIG    1        6.187  -6.101   0.020  0.00  0.00    -0.270 OA
BRANCH  11  15
ATOM     15  C   LIG    1       11.693  -8.010   1.375  0.00  0.00    +0.121 A 
ATOM     16  C   LIG    1       12.989  -7.503   1.369  0.00  0.00    +0.043 A 
ATOM     17  C   LIG    1       13.941  -8.084   2.187  0.00  0.00    +0.005 A 
ATOM     18  C   LIG    1       13.565  -9.157   2.985  0.00  0.00    +0.020 A 
ATOM     19  C   LIG    1       12.261  -9.608   2.939  0.00  0.00    +0.113 A 
ATOM     20  N   LIG    1       11.371  -9.031   2.154  0.00  0.00    -0.240 NA
ENDBRANCH  11  15
ENDBRANCH   5   7
BRANCH   1  22
ATOM     21  C   LIG    1        9.514  -0.531  -2.572  0.00  0.00    -0.061 C 
ATOM     22  C   LIG    1        8.818  -1.139  -1.849  0.00  0.00    -0.061 C 
BRANCH  21  26
ATOM     23  C   LIG    1       12.007   1.647  -5.159  0.00  0.00    +0.000 A 
ATOM     24  C   LIG    1       11.143   2.316  -4.310  0.00  0.00    +0.001 A 
ATOM     25  C   LIG    1       10.322   1.608  -3.458  0.00  0.00    +0.017 A 
ATOM     26  C   LIG    1       10.364   0.211  -3.453  0.00  0.00    +0.025 A 
ATOM     27  C   LIG    1       11.239  -0.457  -4.313  0.00  0.00    +0.017 A 
ATOM     28  C   LIG    1       12.054   0.264  -5.160  0.00  0.00    +0.001 A 
ENDBRANCH  21  26
ENDBRANCH   1  22
TORSDOF 4
