REMARK  Name = ZINC00034746
REMARK                            x       y       z     vdW  Elec       q    Type
REMARK                         _______ _______ _______ _____ _____    ______ ____
ROOT
ATOM      1  C   LIG    1       -0.852   3.508   0.394  0.00  0.00    +0.080 A 
ATOM      2  C   LIG    1        0.415   3.994   0.552  0.00  0.00    +0.076 A 
ATOM      3  S   LIG    1        1.368   2.486   0.428  0.00  0.00    -0.060 S 
ATOM      4  C   LIG    1       -0.006   1.370   0.180  0.00  0.00    +0.163 A 
ATOM      5  N   LIG    1       -1.031   2.203   0.205  0.00  0.00    -0.225 NA
ENDROOT
BRANCH   1  12
ATOM      6  C   LIG    1       -1.824   5.793   0.624  0.00  0.00    +0.011 A 
ATOM      7  C   LIG    1       -2.910   6.644   0.649  0.00  0.00    +0.020 A 
ATOM      8  C   LIG    1       -4.190   6.142   0.488  0.00  0.00    +0.041 A 
ATOM      9 CL   LIG    1       -5.552   7.217   0.527  0.00  0.00    -0.084 Cl
ATOM     10  C   LIG    1       -4.387   4.785   0.296  0.00  0.00    +0.020 A 
ATOM     11  C   LIG    1       -3.307   3.926   0.265  0.00  0.00    +0.011 A 
ATOM     12  C   LIG    1       -2.016   4.427   0.426  0.00  0.00    +0.001 A 
ENDBRANCH   1  12
BRANCH   4  13
ATOM     13  N   LIG    1        0.002  -0.004   0.002  0.00  0.00    -0.294 N 
ATOM     14  H   LIG    1       -0.835  -0.493  -0.039  0.00  0.00    +0.154 HD
BRANCH  13  15
ATOM     15  C   LIG    1        1.219  -0.687  -0.118  0.00  0.00    +0.033 A 
ATOM     16  C   LIG    1        2.301  -0.074  -0.736  0.00  0.00    +0.025 A 
ATOM     17  C   LIG    1        3.502  -0.746  -0.850  0.00  0.00    +0.024 A 
ATOM     18  C   LIG    1        3.624  -2.038  -0.357  0.00  0.00    +0.025 A 
ATOM     19  C   LIG    1        2.541  -2.653   0.256  0.00  0.00    +0.024 A 
ATOM     20  C   LIG    1        1.341  -1.980   0.375  0.00  0.00    +0.025 A 
BRANCH  18  21
ATOM     21  N   LIG    1        4.840  -2.721  -0.477  0.00  0.00    -0.358 N 
ATOM     22  H   LIG    1        5.598  -2.291  -0.905  0.00  0.00    +0.142 HD
ATOM     23  H   LIG    1        4.926  -3.623  -0.132  0.00  0.00    +0.142 HD
ENDBRANCH  18  21
ENDBRANCH  13  15
ENDBRANCH   4  13
TORSDOF 4
