REMARK  Name = ZINC13822602
REMARK                            x       y       z     vdW  Elec       q    Type
REMARK                         _______ _______ _______ _____ _____    ______ ____
ROOT
ATOM      1  C   LIG    1        1.749   2.029  -0.004  0.00  0.00    +0.083 A 
ATOM      2  C   LIG    1        2.189   0.712  -0.015  0.00  0.00    +0.228 A 
ATOM      3  N   LIG    1        1.305  -0.254  -0.012  0.00  0.00    -0.205 NA
ATOM      4  C   LIG    1        0.002  -0.004   0.002  0.00  0.00    +0.113 A 
ATOM      5  S   LIG    1       -0.022   1.783   0.012  0.00  0.00    -0.063 S 
ENDROOT
BRANCH   1   9
ATOM      6  C   LIG    1        3.988   5.637  -0.006  0.00  0.00    +0.000 A 
ATOM      7  C   LIG    1        2.605   5.685   0.007  0.00  0.00    +0.001 A 
ATOM      8  C   LIG    1        1.871   4.516   0.008  0.00  0.00    +0.009 A 
ATOM      9  C   LIG    1        2.528   3.284  -0.005  0.00  0.00    -0.006 A 
ATOM     10  C   LIG    1        3.924   3.243  -0.013  0.00  0.00    +0.009 A 
ATOM     11  C   LIG    1        4.645   4.419  -0.019  0.00  0.00    +0.001 A 
ENDBRANCH   1   9
BRANCH   4  12
ATOM     12  C   LIG    1       -1.130  -0.953   0.008  0.00  0.00    +0.010 A 
ATOM     13  C   LIG    1       -2.454  -0.494   0.030  0.00  0.00    +0.030 A 
ATOM     14  C   LIG    1       -3.480  -1.415   0.029  0.00  0.00    +0.111 A 
ATOM     15  N   LIG    1       -3.228  -2.711   0.020  0.00  0.00    -0.263 NA
ATOM     16  C   LIG    1       -1.997  -3.185   0.005  0.00  0.00    +0.111 A 
ATOM     17  C   LIG    1       -0.911  -2.336  -0.001  0.00  0.00    +0.030 A 
ENDBRANCH   4  12
BRANCH   2  18
ATOM     18  O   LIG    1        3.519   0.429  -0.030  0.00  0.00    -0.492 OA
ATOM     19  H   LIG    1        3.895   0.352  -0.917  0.00  0.00    +0.294 HD
ENDBRANCH   2  18
TORSDOF 3
