REMARK  Name = ZINC71296558
REMARK                            x       y       z     vdW  Elec       q    Type
REMARK                         _______ _______ _______ _____ _____    ______ ____
ROOT
ATOM      1  C   LIG    1        0.213  -0.319  -2.510  0.00  0.00    +0.265 C 
ATOM      2  N   LIG    1        0.383   0.992  -2.772  0.00  0.00    -0.293 N 
ATOM      3  C   LIG    1        0.576   1.954  -1.677  0.00  0.00    +0.127 C 
ATOM      4  C   LIG    1        1.877   2.726  -1.927  0.00  0.00    +0.124 C 
ATOM      5  N   LIG    1        1.872   3.219  -3.312  0.00  0.00    -0.324 N 
ATOM      6  C   LIG    1        1.679   2.257  -4.406  0.00  0.00    +0.124 C 
ATOM      7  C   LIG    1        0.383   1.485  -4.156  0.00  0.00    +0.127 C 
ATOM      8  O   LIG    1        0.176  -1.121  -3.424  0.00  0.00    -0.268 OA
ENDROOT
BRANCH   1  11
ATOM      9  C   LIG    1        0.705  -3.187  -1.473  0.00  0.00    +0.173 C 
ATOM     10  N   LIG    1        0.290  -2.047  -0.652  0.00  0.00    -0.262 N 
ATOM     11  C   LIG    1        0.075  -0.780  -1.119  0.00  0.00    +0.124 A 
ATOM     12  C   LIG    1       -0.298  -0.019  -0.029  0.00  0.00    +0.062 A 
ATOM     13  C   LIG    1       -0.283  -0.904   1.065  0.00  0.00    +0.093 A 
ATOM     14  N   LIG    1        0.070  -2.089   0.612  0.00  0.00    -0.171 NA
BRANCH  13  15
ATOM     15  C   LIG    1       -0.612  -0.565   2.472  0.00  0.00    +0.002 A 
ATOM     16  C   LIG    1       -0.984   0.735   2.809  0.00  0.00    +0.011 A 
ATOM     17  C   LIG    1       -1.289   1.045   4.119  0.00  0.00    +0.020 A 
ATOM     18  C   LIG    1       -1.226   0.067   5.097  0.00  0.00    +0.041 A 
ATOM     19 CL   LIG    1       -1.609   0.464   6.743  0.00  0.00    -0.084 Cl
ATOM     20  C   LIG    1       -0.857  -1.226   4.767  0.00  0.00    +0.020 A 
ATOM     21  C   LIG    1       -0.556  -1.547   3.459  0.00  0.00    +0.011 A 
ENDBRANCH  13  15
ENDBRANCH   1  11
BRANCH   5  22
ATOM     22  C   LIG    1        2.048   4.581  -3.583  0.00  0.00    +0.072 A 
ATOM     23  C   LIG    1        3.322   5.091  -3.787  0.00  0.00    +0.027 A 
ATOM     24  C   LIG    1        3.492   6.436  -4.055  0.00  0.00    +0.002 A 
ATOM     25  C   LIG    1        2.396   7.276  -4.121  0.00  0.00    +0.004 A 
ATOM     26  C   LIG    1        1.123   6.775  -3.919  0.00  0.00    +0.047 A 
ATOM     27  C   LIG    1        0.943   5.427  -3.655  0.00  0.00    +0.141 A 
BRANCH  27  28
ATOM     28  O   LIG    1       -0.309   4.932  -3.461  0.00  0.00    -0.493 OA
ATOM     29  C   LIG    1       -1.394   5.858  -3.549  0.00  0.00    +0.277 C 
ENDBRANCH  27  28
ENDBRANCH   5  22
TORSDOF 4
