REMARK  Name = ZINC35077985
REMARK                            x       y       z     vdW  Elec       q    Type
REMARK                         _______ _______ _______ _____ _____    ______ ____
ROOT
ATOM      1  C   LIG    1        0.033  -0.637   2.387  0.00  0.00    +0.196 C 
ATOM      2  N   LIG    1       -1.257  -0.340   2.441  0.00  0.00    -0.288 NA
ATOM      3  H   LIG    1       -1.708  -0.024   1.642  0.00  0.00    +0.125 HD
ATOM      4  C   LIG    1       -1.939  -0.469   3.569  0.00  0.00    +0.106 C 
ATOM      5  C   LIG    1       -1.291  -0.919   4.704  0.00  0.00    +0.129 C 
ATOM      6 CL   LIG    1       -2.147  -1.101   6.203  0.00  0.00    -0.117 Cl
ATOM      7  C   LIG    1        0.070  -1.225   4.616  0.00  0.00    +0.161 C 
ATOM      8  N   LIG    1        0.690  -1.077   3.450  0.00  0.00    -0.270 NA
ATOM      9  H   LIG    1        1.458  -0.425   3.609  0.00  0.00    +0.126 HD
ENDROOT
BRANCH   1  10
ATOM     10  N   LIG    1        0.711  -0.489   1.189  0.00  0.00    -0.281 NA
ATOM     11  H   LIG    1        1.654  -0.707   1.135  0.00  0.00    +0.125 HD
BRANCH  10  13
ATOM     12  C   LIG    1       -0.019   1.526   0.010  0.00  0.00    +0.031 C 
ATOM     13  C   LIG    1        0.002  -0.004   0.002  0.00  0.00    +0.102 C 
BRANCH  13  14
ATOM     14  C   LIG    1        0.707  -0.490  -1.238  0.00  0.00    +0.058 A 
ATOM     15  C   LIG    1        0.001  -0.617  -2.420  0.00  0.00    +0.028 A 
ATOM     16  C   LIG    1        0.658  -1.064  -3.555  0.00  0.00    +0.042 A 
ATOM     17  C   LIG    1        2.010  -1.370  -3.459  0.00  0.00    +0.141 A 
ATOM     18  F   LIG    1        2.691  -1.810  -4.539  0.00  0.00    -0.204 F 
ATOM     19  C   LIG    1        2.650  -1.218  -2.241  0.00  0.00    +0.149 A 
ATOM     20  N   LIG    1        1.992  -0.784  -1.183  0.00  0.00    -0.255 NA
ENDBRANCH  13  14
ENDBRANCH  10  13
ENDBRANCH   1  10
BRANCH   7  21
ATOM     21  N   LIG    1        0.761  -1.681   5.729  0.00  0.00    -0.313 N 
ATOM     22  H   LIG    1        0.301  -1.789   6.575  0.00  0.00    +0.149 HD
BRANCH  21  23
ATOM     23  C   LIG    1        2.118  -1.982   5.630  0.00  0.00    +0.119 A 
ATOM     24  C   LIG    1        2.885  -1.883   4.510  0.00  0.00    +0.111 A 
ATOM     25  C   LIG    1        4.187  -2.278   4.845  0.00  0.00    +0.236 A 
ATOM     26  N   LIG    1        4.203  -2.611   6.113  0.00  0.00    -0.135 NA
ATOM     27  N   LIG    1        2.914  -2.435   6.632  0.00  0.00    -0.261 N 
ATOM     28  H   LIG    1        2.639  -2.607   7.547  0.00  0.00    +0.190 HD
BRANCH  25  29
ATOM     29  O   LIG    1        5.250  -2.314   3.998  0.00  0.00    -0.473 OA
BRANCH  29  30
ATOM     30  C   LIG    1        6.496  -2.756   4.540  0.00  0.00    +0.169 C 
ATOM     31  C   LIG    1        7.647  -2.075   3.797  0.00  0.00    +0.051 C 
ATOM     32  C   LIG    1        6.612  -4.274   4.380  0.00  0.00    +0.051 C 
ENDBRANCH  29  30
ENDBRANCH  25  29
ENDBRANCH  21  23
ENDBRANCH   7  21
TORSDOF 7
