REMARK  Name = ZINC16740073
REMARK                            x       y       z     vdW  Elec       q    Type
REMARK                         _______ _______ _______ _____ _____    ______ ____
ROOT
ATOM      1  C   LIG    1        0.249  -0.149   0.302  0.00  0.00    +0.138 C 
ATOM      2  N   LIG    1        0.084   1.305   0.239  0.00  0.00    -0.271 N 
ATOM      3  C   LIG    1        1.220   2.069   0.024  0.00  0.00    +0.045 A 
ATOM      4  C   LIG    1        2.387   1.685   0.688  0.00  0.00    +0.024 A 
ATOM      5  C   LIG    1        3.556   2.393   0.521  0.00  0.00    +0.002 A 
ATOM      6  C   LIG    1        3.585   3.500  -0.311  0.00  0.00    +0.001 A 
ATOM      7  C   LIG    1        2.446   3.894  -0.974  0.00  0.00    +0.012 A 
ATOM      8  C   LIG    1        1.247   3.182  -0.814  0.00  0.00    +0.022 A 
ATOM      9  C   LIG    1        0.066   3.662  -1.549  0.00  0.00    +0.077 C 
ATOM     10  N   LIG    1       -1.128   3.706  -1.074  0.00  0.00    -0.251 NA
ATOM     11  C   LIG    1       -1.435   3.263   0.285  0.00  0.00    +0.280 C 
ATOM     12  C   LIG    1       -1.147   1.790   0.389  0.00  0.00    +0.262 C 
ATOM     13  O   LIG    1       -2.059   1.024   0.618  0.00  0.00    -0.271 OA
ENDROOT
BRANCH   9  14
ATOM     14  C   LIG    1        0.268   4.129  -2.940  0.00  0.00    +0.001 A 
ATOM     15  C   LIG    1       -0.639   5.016  -3.519  0.00  0.00    +0.010 A 
ATOM     16  C   LIG    1       -0.443   5.450  -4.814  0.00  0.00    +0.001 A 
ATOM     17  C   LIG    1        0.644   5.000  -5.541  0.00  0.00    +0.000 A 
ATOM     18  C   LIG    1        1.544   4.116  -4.974  0.00  0.00    +0.001 A 
ATOM     19  C   LIG    1        1.362   3.678  -3.678  0.00  0.00    +0.010 A 
ENDBRANCH   9  14
BRANCH  11  20
ATOM     20  N   LIG    1       -0.606   4.000   1.242  0.00  0.00    -0.270 N 
ATOM     21  H   LIG    1        0.334   3.781   1.337  0.00  0.00    +0.153 HD
ATOM     22  C   LIG    1       -1.149   4.981   1.988  0.00  0.00    +0.306 C 
ATOM     23  N   LIG    1       -0.386   5.660   2.868  0.00  0.00    -0.269 N 
ATOM     24  H   LIG    1        0.567   5.487   2.917  0.00  0.00    +0.156 HD
ATOM     25  O   LIG    1       -2.328   5.255   1.869  0.00  0.00    -0.252 OA
BRANCH  23  26
ATOM     26  C   LIG    1       -0.969   6.613   3.711  0.00  0.00    +0.035 A 
ATOM     27  C   LIG    1       -2.014   7.403   3.250  0.00  0.00    +0.023 A 
ATOM     28  C   LIG    1       -2.590   8.340   4.085  0.00  0.00    +0.002 A 
ATOM     29  C   LIG    1       -2.120   8.498   5.376  0.00  0.00    +0.012 A 
ATOM     30  C   LIG    1       -1.077   7.717   5.837  0.00  0.00    +0.057 A 
ATOM     31  C   LIG    1       -0.500   6.774   5.008  0.00  0.00    +0.035 A 
BRANCH  30  32
ATOM     32  C   LIG    1       -0.568   7.893   7.244  0.00  0.00    +0.417 C 
ATOM     33  F   LIG    1       -0.069   6.674   7.716  0.00  0.00    -0.166 F 
ATOM     34  F   LIG    1       -1.615   8.319   8.069  0.00  0.00    -0.166 F 
ATOM     35  F   LIG    1        0.452   8.850   7.255  0.00  0.00    -0.166 F 
ENDBRANCH  30  32
ENDBRANCH  23  26
ENDBRANCH  11  20
TORSDOF 4
