REMARK  Name = ZINC14949355
REMARK                            x       y       z     vdW  Elec       q    Type
REMARK                         _______ _______ _______ _____ _____    ______ ____
ROOT
ATOM      1  C   LIG    1       -6.165  -4.506  -4.135  0.00  0.00    +0.000 A 
ATOM      2  C   LIG    1       -4.819  -4.700  -4.385  0.00  0.00    +0.000 A 
ATOM      3  C   LIG    1       -3.920  -3.678  -4.151  0.00  0.00    +0.005 A 
ATOM      4  C   LIG    1       -4.364  -2.459  -3.667  0.00  0.00    -0.025 A 
ATOM      5  C   LIG    1       -5.708  -2.266  -3.417  0.00  0.00    -0.025 A 
ATOM      6  C   LIG    1       -5.911  -0.864  -2.901  0.00  0.00    +0.143 C 
ATOM      7  N   LIG    1       -4.598  -0.212  -2.853  0.00  0.00    -0.294 N 
ATOM      8  C   LIG    1       -4.342   1.048  -2.450  0.00  0.00    +0.202 C 
ATOM      9  O   LIG    1       -5.249   1.762  -2.078  0.00  0.00    -0.277 OA
ATOM     10  C   LIG    1       -3.619  -1.192  -3.334  0.00  0.00    +0.143 C 
ATOM     11  C   LIG    1       -6.609  -3.291  -3.651  0.00  0.00    +0.005 A 
ENDROOT
BRANCH   8  12
ATOM     12  C   LIG    1       -2.928   1.570  -2.460  0.00  0.00    +0.016 C 
BRANCH  12  13
ATOM     13  C   LIG    1       -2.188   1.063  -1.221  0.00  0.00    -0.017 C 
ATOM     14  C   LIG    1       -0.753   1.593  -1.232  0.00  0.00    +0.002 C 
ATOM     15  C   LIG    1       -0.013   1.086   0.008  0.00  0.00    +0.000 C 
ATOM     16  C   LIG    1       -0.729   1.579   1.267  0.00  0.00    +0.000 C 
ATOM     17  C   LIG    1       -2.164   1.050   1.278  0.00  0.00    +0.000 C 
ATOM     18  C   LIG    1       -2.904   1.556   0.038  0.00  0.00    +0.002 C 
ENDBRANCH  12  13
BRANCH  12  19
ATOM     19  N   LIG    1       -2.962   3.043  -2.473  0.00  0.00    +0.386 N 
ATOM     20  H   LIG    1       -3.490   3.361  -3.294  0.00  0.00    -0.089 HD
ATOM     21  H   LIG    1       -2.014   3.413  -2.524  0.00  0.00    -0.089 HD
ATOM     22  H   LIG    1       -3.416   3.389  -1.630  0.00  0.00    -0.089 HD
ENDBRANCH  12  19
ENDBRANCH   8  12
TORSDOF 3
