REMARK  Name = ZINC28398044
REMARK                            x       y       z     vdW  Elec       q    Type
REMARK                         _______ _______ _______ _____ _____    ______ ____
ROOT
ATOM      1  N   LIG    1        2.515   1.440  -0.014  0.00  0.00    -0.321 N 
ATOM      2  C   LIG    1        1.180   1.783   0.000  0.00  0.00    +0.087 A 
ATOM      3  C   LIG    1       -0.013   1.076   0.008  0.00  0.00    +0.138 A 
ATOM      4  N   LIG    1       -1.164   1.717   0.017  0.00  0.00    -0.261 NA
ATOM      5  C   LIG    1       -1.239   3.038   0.029  0.00  0.00    +0.113 A 
ATOM      6  C   LIG    1       -0.117   3.816   0.023  0.00  0.00    +0.049 A 
ATOM      7  C   LIG    1        1.138   3.192   0.008  0.00  0.00    +0.093 A 
ATOM      8  N   LIG    1        2.409   3.630  -0.002  0.00  0.00    -0.226 NA
ATOM      9  C   LIG    1        3.230   2.606  -0.015  0.00  0.00    +0.167 A 
ENDROOT
BRANCH   9  10
ATOM     10  C   LIG    1        4.707   2.700  -0.027  0.00  0.00    +0.190 A 
ATOM     11  C   LIG    1        5.559   3.911  -0.035  0.00  0.00    +0.191 A 
ATOM     12  N   LIG    1        6.771   3.406  -0.042  0.00  0.00    -0.033 NA
ATOM     13  O   LIG    1        6.705   2.200  -0.048  0.00  0.00    -0.240 OA
ATOM     14  N   LIG    1        5.593   1.727  -0.040  0.00  0.00    -0.044 NA
BRANCH  11  15
ATOM     15  N   LIG    1        5.174   5.245  -0.032  0.00  0.00    -0.339 N 
ATOM     16  H   LIG    1        4.106   5.509  -0.024  0.00  0.00    +0.144 HD
ATOM     17  H   LIG    1        5.936   6.038  -0.039  0.00  0.00    +0.144 HD
ENDBRANCH  11  15
ENDBRANCH   9  10
BRANCH   1  19
ATOM     18  C   LIG    1        3.243  -0.384  -1.471  0.00  0.00    +0.027 C 
ATOM     19  C   LIG    1        3.065   0.082  -0.025  0.00  0.00    +0.120 C 
ENDBRANCH   1  19
TORSDOF 3
