REMARK  Name = ZINC13829371
REMARK                            x       y       z     vdW  Elec       q    Type
REMARK                         _______ _______ _______ _____ _____    ______ ____
ROOT
ATOM      1  C   LIG    1        1.359   1.545   0.676  0.00  0.00    +0.040 C 
ATOM      2  C   LIG    1        0.921   0.113   0.365  0.00  0.00    +0.147 C 
ATOM      3  C   LIG    1       -0.594   0.081   0.071  0.00  0.00    +0.163 C 
ATOM      4  C   LIG    1       -1.037  -1.236   0.764  0.00  0.00    +0.089 C 
ATOM      5  C   LIG    1       -0.084  -1.261   1.985  0.00  0.00    +0.225 C 
ATOM      6  O   LIG    1        1.161  -0.726   1.501  0.00  0.00    -0.351 OA
ENDROOT
BRANCH   5   7
ATOM      7  N   LIG    1       -0.616  -0.423   3.063  0.00  0.00    -0.288 N 
ATOM      8  C   LIG    1       -0.172   0.817   3.414  0.00  0.00    +0.203 A 
ATOM      9  N   LIG    1       -0.871   1.273   4.413  0.00  0.00    -0.231 NA
ATOM     10  C   LIG    1       -1.805   0.357   4.765  0.00  0.00    +0.147 A 
ATOM     11  C   LIG    1       -2.812   0.298   5.743  0.00  0.00    +0.147 A 
ATOM     12  N   LIG    1       -3.581  -0.784   5.796  0.00  0.00    -0.219 NA
ATOM     13  C   LIG    1       -3.401  -1.792   4.962  0.00  0.00    +0.225 A 
ATOM     14  N   LIG    1       -2.468  -1.783   4.034  0.00  0.00    -0.216 NA
ATOM     15  C   LIG    1       -1.656  -0.740   3.899  0.00  0.00    +0.167 A 
BRANCH  11  16
ATOM     16  N   LIG    1       -3.009   1.350   6.620  0.00  0.00    -0.341 N 
ATOM     17  H   LIG    1       -3.708   1.298   7.291  0.00  0.00    +0.144 HD
ATOM     18  H   LIG    1       -2.449   2.140   6.564  0.00  0.00    +0.144 HD
ENDBRANCH  11  16
ENDBRANCH   5   7
BRANCH   3  19
ATOM     19  O   LIG    1       -0.838   0.026  -1.336  0.00  0.00    -0.280 OA
BRANCH  19  20
ATOM     20  P   LIG    1       -1.669   1.156  -2.127  0.00  0.00    +0.484 P 
ATOM     21  O   LIG    1       -3.054   1.333  -1.467  0.00  0.00    -0.227 OA
BRANCH  20  22
ATOM     22  O   LIG    1       -0.898   2.494  -2.072  0.00  0.00    -0.302 OA
ATOM     23  H   LIG    1       -0.784   2.764  -1.148  0.00  0.00    +0.222 HD
ENDBRANCH  20  22
BRANCH  20  24
ATOM     24  O   LIG    1       -1.858   0.708  -3.662  0.00  0.00    -0.186 OA
BRANCH  24  25
ATOM     25  P   LIG    1       -2.811   1.202  -4.861  0.00  0.00    +0.492 P 
ATOM     26  O   LIG    1       -4.223   1.501  -4.308  0.00  0.00    -0.226 OA
BRANCH  25  27
ATOM     27  O   LIG    1       -2.224   2.483  -5.492  0.00  0.00    -0.302 OA
ATOM     28  H   LIG    1       -2.166   3.179  -4.819  0.00  0.00    +0.222 HD
ENDBRANCH  25  27
BRANCH  25  29
ATOM     29  O   LIG    1       -2.907   0.048  -5.980  0.00  0.00    -0.186 OA
BRANCH  29  30
ATOM     30  P   LIG    1       -3.890  -0.223  -7.226  0.00  0.00    +0.481 P 
ATOM     31  O   LIG    1       -4.101   1.090  -8.011  0.00  0.00    -0.227 OA
BRANCH  30  32
ATOM     32  O   LIG    1       -5.252  -0.736  -6.705  0.00  0.00    -0.302 OA
ATOM     33  H   LIG    1       -5.646  -0.069  -6.121  0.00  0.00    +0.222 HD
ENDBRANCH  30  32
BRANCH  30  34
ATOM     34  O   LIG    1       -3.236  -1.330  -8.195  0.00  0.00    -0.302 OA
ATOM     35  H   LIG    1       -3.775  -1.543  -8.969  0.00  0.00    +0.222 HD
ENDBRANCH  30  34
ENDBRANCH  29  30
ENDBRANCH  25  29
ENDBRANCH  24  25
ENDBRANCH  20  24
ENDBRANCH  19  20
ENDBRANCH   3  19
TORSDOF 12
