REMARK  Name = ZINC28107226
REMARK                            x       y       z     vdW  Elec       q    Type
REMARK                         _______ _______ _______ _____ _____    ______ ____
ROOT
ATOM      1  C   LIG    1        0.724   0.745  -0.770  0.00  0.00    +0.039 C 
ATOM      2  C   LIG    1        0.593  -0.756  -0.732  0.00  0.00    -0.073 C 
ATOM      3  C   LIG    1        0.988  -1.421   0.325  0.00  0.00    +0.012 C 
ENDROOT
BRANCH   2   4
ATOM      4  C   LIG    1        0.007  -1.491  -1.910  0.00  0.00    +0.030 C 
BRANCH   4   5
ATOM      5  C   LIG    1       -1.519  -1.501  -1.798  0.00  0.00    +0.011 C 
BRANCH   5   6
ATOM      6  C   LIG    1       -2.119  -2.120  -3.062  0.00  0.00    +0.029 C 
ATOM      7  C   LIG    1       -1.950  -3.669  -3.052  0.00  0.00    +0.071 C 
ATOM      8  C   LIG    1       -0.611  -4.179  -2.517  0.00  0.00    +0.042 C 
ATOM      9  C   LIG    1       -2.332  -4.134  -4.489  0.00  0.00    +0.037 C 
ATOM     10  C   LIG    1       -3.872  -3.957  -4.509  0.00  0.00    +0.035 C 
ATOM     11  C   LIG    1       -4.175  -3.413  -3.081  0.00  0.00    +0.125 C 
ATOM     12  O   LIG    1       -3.135  -4.081  -2.294  0.00  0.00    -0.370 OA
ATOM     13  C   LIG    1       -3.658  -1.938  -3.084  0.00  0.00    -0.003 C 
ATOM     14  C   LIG    1       -4.100  -1.209  -4.355  0.00  0.00    +0.014 C 
ATOM     15  C   LIG    1       -4.134  -1.192  -1.836  0.00  0.00    +0.014 C 
ENDBRANCH   5   6
ENDBRANCH   4   5
ENDBRANCH   2   4
BRANCH   3  16
ATOM     16  C   LIG    1        1.459  -0.680   1.549  0.00  0.00    +0.256 C 
BRANCH  16  17
ATOM     17  O   LIG    1        0.795  -1.197   2.704  0.00  0.00    -0.488 OA
BRANCH  17  18
ATOM     18  C   LIG    1        1.109  -0.634   3.899  0.00  0.00    +0.124 A 
ATOM     19  C   LIG    1        2.039   0.403   3.951  0.00  0.00    +0.046 A 
ATOM     20  C   LIG    1        2.365   0.979   5.144  0.00  0.00    +0.015 A 
ATOM     21  C   LIG    1        1.762   0.526   6.324  0.00  0.00    +0.018 A 
ATOM     22  C   LIG    1        2.093   1.125   7.618  0.00  0.00    +0.018 A 
ATOM     23  C   LIG    1        1.474   0.641   8.726  0.00  0.00    +0.092 A 
ATOM     24  C   LIG    1        0.542  -0.410   8.606  0.00  0.00    +0.337 A 
ATOM     25  O   LIG    1        0.243  -0.955   7.416  0.00  0.00    -0.422 OA
ATOM     26  O   LIG    1       -0.006  -0.835   9.607  0.00  0.00    -0.245 OA
ATOM     27  C   LIG    1        0.823  -0.521   6.277  0.00  0.00    +0.143 A 
ATOM     28  C   LIG    1        0.499  -1.091   5.055  0.00  0.00    +0.092 A 
ENDBRANCH  17  18
ENDBRANCH  16  17
ENDBRANCH   3  16
TORSDOF 6
