REMARK  Name = ZINC40414015
REMARK                            x       y       z     vdW  Elec       q    Type
REMARK                         _______ _______ _______ _____ _____    ______ ____
ROOT
ATOM      1  N   LIG    1        4.152  -0.952   1.338  0.00  0.00    -0.260 N 
ATOM      2  C   LIG    1        4.945  -0.077   2.075  0.00  0.00    +0.048 A 
ATOM      3  C   LIG    1        5.494   1.158   1.754  0.00  0.00    +0.026 A 
ATOM      4  C   LIG    1        6.260   1.841   2.679  0.00  0.00    +0.030 A 
ATOM      5  C   LIG    1        6.492   1.308   3.937  0.00  0.00    +0.106 A 
ATOM      6  C   LIG    1        5.956   0.083   4.278  0.00  0.00    +0.042 A 
ATOM      7  C   LIG    1        5.181  -0.615   3.351  0.00  0.00    +0.050 A 
ATOM      8  C   LIG    1        4.482  -1.913   3.397  0.00  0.00    +0.250 C 
ATOM      9  O   LIG    1        4.436  -2.696   4.322  0.00  0.00    -0.282 OA
ATOM     10  C   LIG    1        3.837  -2.048   2.050  0.00  0.00    +0.292 C 
ATOM     11  O   LIG    1        3.156  -2.978   1.671  0.00  0.00    -0.266 OA
ENDROOT
BRANCH   5  12
ATOM     12  S   LIG    1        7.471   2.195   5.102  0.00  0.00    +0.061 S 
ATOM     13  O   LIG    1        8.309   3.063   4.351  0.00  0.00    -0.153 OA
ATOM     14  O   LIG    1        7.991   1.234   6.011  0.00  0.00    -0.153 OA
BRANCH  12  15
ATOM     15  N   LIG    1        6.445   3.162   5.970  0.00  0.00    -0.175 NA
ATOM     16  C   LIG    1        6.154   4.516   5.497  0.00  0.00    +0.120 C 
ATOM     17  C   LIG    1        4.676   4.614   5.103  0.00  0.00    +0.086 C 
ATOM     18  S   LIG    1        3.660   4.153   6.538  0.00  0.00    -0.158 S 
ATOM     19  C   LIG    1        4.322   2.526   7.009  0.00  0.00    +0.086 C 
ATOM     20  C   LIG    1        5.834   2.649   7.197  0.00  0.00    +0.120 C 
ENDBRANCH  12  15
ENDBRANCH   5  12
BRANCH   1  21
ATOM     21  C   LIG    1        3.711  -0.707  -0.038  0.00  0.00    +0.149 C 
BRANCH  21  25
ATOM     22  C   LIG    1       -0.017   1.378   0.010  0.00  0.00    +0.000 A 
ATOM     23  C   LIG    1        1.171   2.086   0.002  0.00  0.00    +0.000 A 
ATOM     24  C   LIG    1        2.377   1.411  -0.013  0.00  0.00    +0.005 A 
ATOM     25  C   LIG    1        2.396   0.029  -0.020  0.00  0.00    -0.030 A 
ATOM     26  C   LIG    1        1.208  -0.679  -0.012  0.00  0.00    +0.005 A 
ATOM     27  C   LIG    1        0.002  -0.004   0.002  0.00  0.00    +0.000 A 
ENDBRANCH  21  25
ENDBRANCH   1  21
TORSDOF 4
