REMARK  Name = ZINC64857890
REMARK                            x       y       z     vdW  Elec       q    Type
REMARK                         _______ _______ _______ _____ _____    ______ ____
ROOT
ATOM      1  C   LIG    1        4.425 -12.120  -7.600  0.00  0.00    +0.217 C 
ATOM      2  N   LIG    1        5.006 -12.781  -8.621  0.00  0.00    -0.285 N 
ATOM      3  H   LIG    1        5.347 -12.290  -9.385  0.00  0.00    +0.155 HD
ATOM      4  O   LIG    1        3.924 -12.739  -6.685  0.00  0.00    -0.275 OA
ENDROOT
BRANCH   2   5
ATOM      5  C   LIG    1        5.118 -14.175  -8.579  0.00  0.00    +0.033 A 
ATOM      6  C   LIG    1        6.235 -14.800  -9.118  0.00  0.00    +0.023 A 
ATOM      7  C   LIG    1        6.342 -16.176  -9.075  0.00  0.00    +0.006 A 
ATOM      8  C   LIG    1        5.340 -16.932  -8.495  0.00  0.00    -0.036 A 
ATOM      9  C   LIG    1        4.226 -16.313  -7.958  0.00  0.00    +0.006 A 
ATOM     10  C   LIG    1        4.116 -14.936  -7.992  0.00  0.00    +0.023 A 
BRANCH   8  11
ATOM     11  C   LIG    1        5.460 -18.433  -8.450  0.00  0.00    +0.162 C 
BRANCH  11  12
ATOM     12  P   LIG    1        6.305 -18.929  -6.912  0.00  0.00    +0.332 P 
ATOM     13  O   LIG    1        7.662 -18.198  -6.812  0.00  0.00    -0.258 OA
BRANCH  12  14
ATOM     14  O   LIG    1        5.426 -18.552  -5.698  0.00  0.00    -0.324 OA
ATOM     15  H   LIG    1        5.278 -17.594  -5.691  0.00  0.00    +0.220 HD
ENDBRANCH  12  14
BRANCH  12  16
ATOM     16  O   LIG    1        6.551 -20.520  -6.924  0.00  0.00    -0.324 OA
ATOM     17  H   LIG    1        6.997 -20.855  -6.134  0.00  0.00    +0.220 HD
ENDBRANCH  12  16
ENDBRANCH  11  12
ENDBRANCH   8  11
ENDBRANCH   2   5
BRANCH   1  18
ATOM     18  C   LIG    1        4.397 -10.614  -7.596  0.00  0.00    +0.096 C 
BRANCH  18  19
ATOM     19  C   LIG    1        3.684 -10.120  -6.336  0.00  0.00    +0.009 C 
BRANCH  19  20
ATOM     20  C   LIG    1        3.656  -8.590  -6.332  0.00  0.00    +0.000 C 
BRANCH  20  21
ATOM     21  C   LIG    1        2.943  -8.097  -5.071  0.00  0.00    +0.000 C 
BRANCH  21  22
ATOM     22  C   LIG    1        2.915  -6.567  -5.067  0.00  0.00    +0.000 C 
BRANCH  22  23
ATOM     23  C   LIG    1        2.202  -6.073  -3.806  0.00  0.00    +0.000 C 
BRANCH  23  24
ATOM     24  C   LIG    1        2.174  -4.544  -3.802  0.00  0.00    -0.000 C 
BRANCH  24  25
ATOM     25  C   LIG    1        1.462  -4.050  -2.542  0.00  0.00    -0.000 C 
BRANCH  25  26
ATOM     26  C   LIG    1        1.433  -2.520  -2.538  0.00  0.00    -0.000 C 
BRANCH  26  27
ATOM     27  C   LIG    1        0.721  -2.027  -1.277  0.00  0.00    -0.000 C 
BRANCH  27  28
ATOM     28  C   LIG    1        0.692  -0.497  -1.273  0.00  0.00    -0.000 C 
BRANCH  28  30
ATOM     29  C   LIG    1       -0.049   1.526  -0.008  0.00  0.00    +0.004 C 
ATOM     30  C   LIG    1       -0.020  -0.003  -0.012  0.00  0.00    -0.003 C 
ENDBRANCH  28  30
ENDBRANCH  27  28
ENDBRANCH  26  27
ENDBRANCH  25  26
ENDBRANCH  24  25
ENDBRANCH  23  24
ENDBRANCH  22  23
ENDBRANCH  21  22
ENDBRANCH  20  21
ENDBRANCH  19  20
ENDBRANCH  18  19
ENDBRANCH   1  18
TORSDOF 17
