REMARK  Name = ZINC13805807
REMARK                            x       y       z     vdW  Elec       q    Type
REMARK                         _______ _______ _______ _____ _____    ______ ____
ROOT
ATOM      1  C   LIG    1        3.936   3.233   0.762  0.00  0.00    -0.016 A 
ATOM      2  C   LIG    1        5.294   3.660   0.431  0.00  0.00    +0.007 A 
ATOM      3  C   LIG    1        6.124   4.687   0.893  0.00  0.00    +0.056 A 
ATOM      4  C   LIG    1        7.388   4.834   0.360  0.00  0.00    +0.121 A 
ATOM      5  C   LIG    1        7.837   3.967  -0.633  0.00  0.00    +0.047 A 
ATOM      6  C   LIG    1        7.029   2.952  -1.096  0.00  0.00    +0.030 A 
ATOM      7  C   LIG    1        5.751   2.785  -0.572  0.00  0.00    +0.047 A 
ATOM      8  N   LIG    1        4.737   1.885  -0.827  0.00  0.00    -0.354 N 
ATOM      9  H   LIG    1        4.779   1.167  -1.477  0.00  0.00    +0.166 HD
ATOM     10  C   LIG    1        3.657   2.161  -0.021  0.00  0.00    +0.051 A 
ENDROOT
BRANCH  10  11
ATOM     11  C   LIG    1        2.385   1.407  -0.013  0.00  0.00    -0.001 A 
ATOM     12  C   LIG    1        1.167   2.088   0.002  0.00  0.00    +0.010 A 
ATOM     13  C   LIG    1       -0.017   1.379   0.010  0.00  0.00    +0.001 A 
ATOM     14  C   LIG    1        0.002  -0.004   0.002  0.00  0.00    +0.000 A 
ATOM     15  C   LIG    1        1.206  -0.685  -0.013  0.00  0.00    +0.001 A 
ATOM     16  C   LIG    1        2.397   0.012  -0.020  0.00  0.00    +0.010 A 
ENDBRANCH  10  11
BRANCH   4  17
ATOM     17  O   LIG    1        8.199   5.831   0.805  0.00  0.00    -0.495 OA
ATOM     18  C   LIG    1        9.495   5.927   0.211  0.00  0.00    +0.277 C 
ENDBRANCH   4  17
BRANCH   1  19
ATOM     19  C   LIG    1        3.020   3.862   1.780  0.00  0.00    +0.019 C 
BRANCH  19  20
ATOM     20  C   LIG    1        3.236   3.196   3.140  0.00  0.00    -0.075 C 
BRANCH  20  22
ATOM     21  C   LIG    1        0.937   3.524   3.824  0.00  0.00    -0.097 C 
ATOM     22  N   LIG    1        2.348   3.838   4.132  0.00  0.00    +0.376 N 
ATOM     23  H   LIG    1        2.479   4.856   4.088  0.00  0.00    -0.083 HD
ATOM     24  C   LIG    1        2.685   3.368   5.492  0.00  0.00    -0.097 C 
ENDBRANCH  20  22
ENDBRANCH  19  20
ENDBRANCH   1  19
TORSDOF 5
