REMARK  Name = ZINC40395390
REMARK                            x       y       z     vdW  Elec       q    Type
REMARK                         _______ _______ _______ _____ _____    ______ ____
ROOT
ATOM      1  C   LIG    1       -0.017   1.380   0.010  0.00  0.00    +0.004 A 
ATOM      2  C   LIG    1        1.168   2.089   0.002  0.00  0.00    +0.014 A 
ATOM      3  C   LIG    1        2.383   1.404  -0.013  0.00  0.00    +0.051 A 
ATOM      4  C   LIG    1        2.407   0.001  -0.021  0.00  0.00    +0.083 A 
ATOM      5  N   LIG    1        3.728  -0.445  -0.036  0.00  0.00    -0.257 N 
ATOM      6  C   LIG    1        4.593   0.583  -0.039  0.00  0.00    +0.292 C 
ATOM      7  O   LIG    1        5.804   0.502  -0.052  0.00  0.00    -0.266 OA
ATOM      8  C   LIG    1        1.203  -0.694  -0.012  0.00  0.00    +0.145 A 
ATOM      9  F   LIG    1        1.204  -2.045  -0.019  0.00  0.00    -0.204 F 
ATOM     10  C   LIG    1        3.789   1.849  -0.025  0.00  0.00    +0.250 C 
ATOM     11  O   LIG    1        4.205   2.990  -0.023  0.00  0.00    -0.282 OA
ATOM     12  C   LIG    1        0.002  -0.004   0.002  0.00  0.00    +0.040 A 
ENDROOT
BRANCH   5  13
ATOM     13  C   LIG    1        4.123  -1.856  -0.048  0.00  0.00    +0.149 C 
BRANCH  13  14
ATOM     14  C   LIG    1        4.244  -2.332  -1.472  0.00  0.00    -0.030 A 
ATOM     15  C   LIG    1        3.146  -2.868  -2.118  0.00  0.00    +0.006 A 
ATOM     16  C   LIG    1        3.256  -3.305  -3.425  0.00  0.00    +0.015 A 
ATOM     17  C   LIG    1        4.467  -3.205  -4.087  0.00  0.00    +0.018 A 
ATOM     18 BR   LIG    1        4.619  -3.803  -5.874  0.00  0.00    -0.050 Br
ATOM     19  C   LIG    1        5.566  -2.669  -3.440  0.00  0.00    +0.015 A 
ATOM     20  C   LIG    1        5.453  -2.228  -2.135  0.00  0.00    +0.006 A 
ENDBRANCH  13  14
ENDBRANCH   5  13
TORSDOF 2
