REMARK  Name = ZINC13798289
REMARK                            x       y       z     vdW  Elec       q    Type
REMARK                         _______ _______ _______ _____ _____    ______ ____
ROOT
ATOM      1  C   LIG    1        4.084   1.971  -0.243  0.00  0.00    +0.123 A 
ATOM      2  C   LIG    1        3.282   3.109  -0.235  0.00  0.00    +0.048 A 
ATOM      3  C   LIG    1        1.924   3.007  -0.441  0.00  0.00    +0.032 A 
ATOM      4  C   LIG    1        1.348   1.763  -0.657  0.00  0.00    +0.074 A 
ATOM      5  C   LIG    1        2.150   0.609  -0.667  0.00  0.00    +0.093 A 
ATOM      6  N   LIG    1        1.326  -0.445  -0.899  0.00  0.00    -0.235 NA
ATOM      7  C   LIG    1        0.101  -0.025  -1.029  0.00  0.00    +0.205 A 
ATOM      8  N   LIG    1        0.054   1.329  -0.889  0.00  0.00    -0.299 N 
ATOM      9  C   LIG    1        3.527   0.726  -0.457  0.00  0.00    +0.075 A 
ENDROOT
BRANCH   8  10
ATOM     10  C   LIG    1       -1.090   2.134  -0.972  0.00  0.00    +0.048 A 
ATOM     11  C   LIG    1       -1.363   3.059   0.027  0.00  0.00    +0.026 A 
ATOM     12  C   LIG    1       -2.488   3.856  -0.060  0.00  0.00    +0.002 A 
ATOM     13  C   LIG    1       -3.348   3.724  -1.135  0.00  0.00    +0.000 A 
ATOM     14  C   LIG    1       -3.082   2.799  -2.128  0.00  0.00    +0.002 A 
ATOM     15  C   LIG    1       -1.955   2.005  -2.049  0.00  0.00    +0.026 A 
ENDBRANCH   8  10
BRANCH   1  16
ATOM     16  O   LIG    1        5.423   2.086  -0.038  0.00  0.00    -0.489 OA
BRANCH  16  18
ATOM     17  C   LIG    1        6.542   0.387  -1.343  0.00  0.00    +0.051 C 
ATOM     18  C   LIG    1        6.171   0.872   0.060  0.00  0.00    +0.167 C 
ATOM     19  C   LIG    1        7.447   1.123   0.867  0.00  0.00    +0.051 C 
ENDBRANCH  16  18
ENDBRANCH   1  16
TORSDOF 3
