REMARK  Name = ZINC45356797
REMARK                            x       y       z     vdW  Elec       q    Type
REMARK                         _______ _______ _______ _____ _____    ______ ____
ROOT
ATOM      1  C   LIG    1        4.163   2.224   1.425  0.00  0.00    -0.064 C 
ATOM      2  C   LIG    1        3.124   2.956   2.277  0.00  0.00    +0.006 C 
ATOM      3  C   LIG    1        2.933   4.376   1.735  0.00  0.00    +0.105 C 
ATOM      4  N   LIG    1        4.243   5.040   1.677  0.00  0.00    -0.315 N 
ATOM      5  C   LIG    1        5.340   4.377   0.959  0.00  0.00    +0.105 C 
ATOM      6  C   LIG    1        5.503   2.957   1.510  0.00  0.00    +0.006 C 
ENDROOT
BRANCH   4   7
ATOM      7  C   LIG    1        4.439   6.265   2.287  0.00  0.00    +0.134 A 
ATOM      8  C   LIG    1        4.211   7.461   1.589  0.00  0.00    +0.059 A 
ATOM      9  C   LIG    1        3.773   7.804   0.237  0.00  0.00    +0.032 A 
ATOM     10  C   LIG    1        3.748   9.145   0.166  0.00  0.00    +0.085 A 
ATOM     11  N   LIG    1        4.136   9.681   1.366  0.00  0.00    -0.346 N 
ATOM     12  H   LIG    1        4.196  10.630   1.557  0.00  0.00    +0.167 HD
ATOM     13  C   LIG    1        4.425   8.682   2.254  0.00  0.00    +0.143 A 
ATOM     14  N   LIG    1        4.835   8.654   3.521  0.00  0.00    -0.218 NA
ATOM     15  C   LIG    1        5.036   7.509   4.137  0.00  0.00    +0.225 A 
ATOM     16  N   LIG    1        4.842   6.340   3.552  0.00  0.00    -0.220 NA
ENDBRANCH   4   7
BRANCH   1  17
ATOM     17  N   LIG    1        4.324   0.851   1.922  0.00  0.00    +0.382 N 
ATOM     18  H   LIG    1        3.440   0.367   1.866  0.00  0.00    -0.089 HD
ATOM     19  H   LIG    1        4.633   0.875   2.882  0.00  0.00    -0.089 HD
ATOM     20  H   LIG    1        5.008   0.367   1.360  0.00  0.00    -0.089 HD
ENDBRANCH   1  17
BRANCH   1  21
ATOM     21  C   LIG    1        3.694   2.187  -0.031  0.00  0.00    +0.024 C 
BRANCH  21  24
ATOM     22  C   LIG    1       -0.015   1.522  -0.280  0.00  0.00    +0.002 A 
ATOM     23  C   LIG    1        1.197   2.184  -0.202  0.00  0.00    +0.005 A 
ATOM     24  C   LIG    1        2.374   1.464  -0.115  0.00  0.00    -0.029 A 
ATOM     25  C   LIG    1        2.340   0.081  -0.106  0.00  0.00    +0.062 A 
ATOM     26 CL   LIG    1        3.818  -0.823   0.003  0.00  0.00    -0.082 Cl
ATOM     27  C   LIG    1        1.127  -0.581  -0.184  0.00  0.00    +0.060 A 
ATOM     28 CL   LIG    1        1.083  -2.317  -0.173  0.00  0.00    -0.082 Cl
ATOM     29  C   LIG    1       -0.050   0.140  -0.271  0.00  0.00    +0.021 A 
ENDBRANCH  21  24
ENDBRANCH   1  21
TORSDOF 4
