REMARK  Name = ZINC38428237
REMARK                            x       y       z     vdW  Elec       q    Type
REMARK                         _______ _______ _______ _____ _____    ______ ____
ROOT
ATOM      1  C   LIG    1        0.339  -3.680  -2.219  0.00  0.00    -0.077 C 
ENDROOT
BRANCH   1   2
ATOM      2  N   LIG    1        0.953  -2.876  -1.154  0.00  0.00    +0.382 N 
ATOM      3  H   LIG    1        1.830  -3.292  -0.882  0.00  0.00    -0.085 HD
ATOM      4  H   LIG    1        1.116  -1.939  -1.492  0.00  0.00    -0.085 HD
BRANCH   2   5
ATOM      5  C   LIG    1        0.052  -2.828   0.005  0.00  0.00    -0.043 C 
BRANCH   5  11
ATOM      6  C   LIG    1        0.626  -0.618   1.042  0.00  0.00    +0.121 A 
ATOM      7  C   LIG    1        1.202   0.139   2.051  0.00  0.00    +0.046 A 
ATOM      8  C   LIG    1        1.835  -0.488   3.107  0.00  0.00    +0.004 A 
ATOM      9  C   LIG    1        1.895  -1.869   3.158  0.00  0.00    +0.000 A 
ATOM     10  C   LIG    1        1.321  -2.625   2.153  0.00  0.00    +0.005 A 
ATOM     11  C   LIG    1        0.682  -2.003   1.097  0.00  0.00    -0.023 A 
BRANCH   6  13
ATOM     12  C   LIG    1       -0.017   1.425   0.010  0.00  0.00    +0.277 C 
ATOM     13  O   LIG    1        0.002  -0.004   0.002  0.00  0.00    -0.495 OA
ENDBRANCH   6  13
ENDBRANCH   5  11
ENDBRANCH   2   5
ENDBRANCH   1   2
BRANCH   1  14
ATOM     14  C   LIG    1        1.276  -3.729  -3.427  0.00  0.00    +0.020 C 
BRANCH  14  15
ATOM     15  C   LIG    1        0.646  -4.554  -4.519  0.00  0.00    -0.004 A 
ATOM     16  C   LIG    1        0.954  -5.896  -4.635  0.00  0.00    +0.053 A 
ATOM     17  C   LIG    1        0.374  -6.656  -5.640  0.00  0.00    +0.134 A 
ATOM     18  C   LIG    1       -0.515  -6.068  -6.529  0.00  0.00    +0.058 A 
ATOM     19  I   LIG    1       -1.390  -7.215  -8.048  0.00  0.00    -0.040 I 
ATOM     20  C   LIG    1       -0.822  -4.726  -6.413  0.00  0.00    +0.064 A 
ATOM     21  C   LIG    1       -0.246  -3.968  -5.404  0.00  0.00    +0.124 A 
BRANCH  17  22
ATOM     22  O   LIG    1        0.677  -7.977  -5.755  0.00  0.00    -0.494 OA
ATOM     23  C   LIG    1        1.599  -8.516  -4.806  0.00  0.00    +0.277 C 
ENDBRANCH  17  22
BRANCH  21  24
ATOM     24  O   LIG    1       -0.553  -2.648  -5.285  0.00  0.00    -0.495 OA
ATOM     25  C   LIG    1       -1.479  -2.111  -6.231  0.00  0.00    +0.277 C 
ENDBRANCH  21  24
ENDBRANCH  14  15
ENDBRANCH   1  14
TORSDOF 8
