REMARK  Name = ZINC19632917
REMARK                            x       y       z     vdW  Elec       q    Type
REMARK                         _______ _______ _______ _____ _____    ______ ____
ROOT
ATOM      1  C   LIG    1       -0.688   3.070   1.197  0.00  0.00    +0.310 C 
ATOM      2  N   LIG    1       -0.188   4.075   0.573  0.00  0.00    -0.044 NA
ATOM      3  C   LIG    1       -0.314   5.379   0.938  0.00  0.00    +0.185 A 
ATOM      4  C   LIG    1        0.818   6.197   0.811  0.00  0.00    +0.057 A 
ATOM      5  C   LIG    1        0.761   7.528   1.153  0.00  0.00    +0.024 A 
ATOM      6  C   LIG    1       -0.421   8.076   1.628  0.00  0.00    +0.042 A 
ATOM      7 CL   LIG    1       -0.487   9.758   2.053  0.00  0.00    -0.084 Cl
ATOM      8  C   LIG    1       -1.543   7.289   1.764  0.00  0.00    +0.034 A 
ATOM      9  C   LIG    1       -1.505   5.930   1.425  0.00  0.00    +0.054 A 
ATOM     10  C   LIG    1       -2.736   5.144   1.609  0.00  0.00    +0.094 C 
ATOM     11  N   LIG    1       -2.765   3.938   2.063  0.00  0.00    -0.205 N 
ATOM     12  C   LIG    1       -1.543   3.231   2.423  0.00  0.00    +0.288 C 
ENDROOT
BRANCH  10  13
ATOM     13  C   LIG    1       -4.024   5.780   1.250  0.00  0.00    +0.002 A 
ATOM     14  C   LIG    1       -5.158   5.554   2.029  0.00  0.00    +0.010 A 
ATOM     15  C   LIG    1       -6.355   6.154   1.692  0.00  0.00    +0.001 A 
ATOM     16  C   LIG    1       -6.433   6.969   0.577  0.00  0.00    +0.000 A 
ATOM     17  C   LIG    1       -5.313   7.193  -0.203  0.00  0.00    +0.001 A 
ATOM     18  C   LIG    1       -4.110   6.603   0.127  0.00  0.00    +0.010 A 
ENDBRANCH  10  13
BRANCH   1  20
ATOM     19  C   LIG    1        0.387   1.626  -0.469  0.00  0.00    +0.273 C 
ATOM     20  N   LIG    1       -0.438   1.811   0.728  0.00  0.00    -0.238 N 
ATOM     21  H   LIG    1       -0.857   0.937   1.248  0.00  0.00    +0.291 HD
ENDBRANCH   1  20
BRANCH  11  22
ATOM     22  O   LIG    1       -4.012   3.285   2.213  0.00  0.00    -0.430 OA
ATOM     23  H   LIG    1       -4.805   3.730   1.984  0.00  0.00    +0.325 HD
ENDBRANCH  11  22
TORSDOF 3
