REMARK  Name = ZINC15987659
REMARK                            x       y       z     vdW  Elec       q    Type
REMARK                         _______ _______ _______ _____ _____    ______ ____
ROOT
ATOM      1  C   LIG    1       -2.025  -4.733   1.957  0.00  0.00    +0.196 C 
ENDROOT
BRANCH   1   2
ATOM      2  N   LIG    1       -1.978  -6.197   1.970  0.00  0.00    -0.274 N 
ATOM      3  H   LIG    1       -1.182  -6.660   1.662  0.00  0.00    +0.258 HD
BRANCH   2   4
ATOM      4  C   LIG    1       -3.040  -6.903   2.410  0.00  0.00    +0.411 C 
ATOM      5  N   LIG    1       -2.996  -8.249   2.422  0.00  0.00    +0.094 NA
BRANCH   4   6
ATOM      6  N   LIG    1       -4.146  -6.260   2.838  0.00  0.00    -0.287 N 
ATOM      7  H   LIG    1       -4.942  -6.764   3.067  0.00  0.00    +0.255 HD
ATOM      8  H   LIG    1       -4.145  -5.293   2.916  0.00  0.00    +0.255 HD
ENDBRANCH   4   6
BRANCH   5   9
ATOM      9  N   LIG    1       -4.044  -8.925   2.753  0.00  0.00    +0.176 N 
ATOM     10  O   LIG    1       -4.879  -9.341   1.824  0.00  0.00    -0.095 OA
BRANCH   9  11
ATOM     11  O   LIG    1       -4.278  -9.199   4.019  0.00  0.00    -0.370 OA
ATOM     12  H   LIG    1       -3.684  -8.902   4.681  0.00  0.00    +0.332 HD
ENDBRANCH   9  11
ENDBRANCH   5   9
ENDBRANCH   2   4
ENDBRANCH   1   2
BRANCH   1  13
ATOM     13  C   LIG    1       -0.703  -4.185   1.416  0.00  0.00    +0.036 C 
BRANCH  13  14
ATOM     14  C   LIG    1       -0.752  -2.656   1.402  0.00  0.00    -0.002 C 
BRANCH  14  15
ATOM     15  C   LIG    1        0.570  -2.108   0.862  0.00  0.00    +0.036 C 
BRANCH  15  16
ATOM     16  N   LIG    1        1.658  -2.453   1.787  0.00  0.00    +0.387 N 
ATOM     17  H   LIG    1        1.720  -3.456   1.873  0.00  0.00    -0.089 HD
ATOM     18  H   LIG    1        1.471  -2.048   2.692  0.00  0.00    -0.089 HD
ATOM     19  H   LIG    1        2.530  -2.091   1.430  0.00  0.00    -0.089 HD
ENDBRANCH  15  16
BRANCH  15  20
ATOM     20  C   LIG    1        0.477  -0.609   0.733  0.00  0.00    +0.292 C 
ATOM     21  O   LIG    1        0.961   0.102   1.582  0.00  0.00    -0.253 OA
BRANCH  20  23
ATOM     22  C   LIG    1       -0.194   1.363  -0.384  0.00  0.00    +0.280 C 
ATOM     23  O   LIG    1       -0.143  -0.064  -0.326  0.00  0.00    -0.469 OA
ENDBRANCH  20  23
ENDBRANCH  15  20
ENDBRANCH  14  15
ENDBRANCH  13  14
ENDBRANCH   1  13
TORSDOF 11
