REMARK  Name = ZINC28238024
REMARK                            x       y       z     vdW  Elec       q    Type
REMARK                         _______ _______ _______ _____ _____    ______ ____
ROOT
ATOM      1  N   LIG    1        0.023   1.393   0.030  0.00  0.00    -0.333 N 
ATOM      2  C   LIG    1       -0.800   1.915  -1.070  0.00  0.00    +0.086 C 
ATOM      3  C   LIG    1       -0.859   3.441  -0.980  0.00  0.00    -0.059 C 
ATOM      4  N   LIG    1        0.504   3.987  -1.041  0.00  0.00    +0.385 N 
ATOM      5  H   LIG    1        0.958   3.661  -1.989  0.00  0.00    -0.081 HD
ATOM      6  C   LIG    1        1.327   3.465   0.059  0.00  0.00    -0.059 C 
ATOM      7  C   LIG    1        1.387   1.938  -0.032  0.00  0.00    +0.086 C 
ENDROOT
BRANCH   1  11
ATOM      8  C   LIG    1        0.080  -2.770   0.006  0.00  0.00    +0.000 A 
ATOM      9  C   LIG    1       -1.127  -2.097   0.066  0.00  0.00    +0.002 A 
ATOM     10  C   LIG    1       -1.149  -0.716   0.075  0.00  0.00    +0.023 A 
ATOM     11  C   LIG    1        0.042  -0.004   0.022  0.00  0.00    +0.030 A 
ATOM     12  C   LIG    1        1.252  -0.683  -0.044  0.00  0.00    +0.023 A 
ATOM     13  C   LIG    1        1.268  -2.064  -0.046  0.00  0.00    +0.002 A 
ENDBRANCH   1  11
BRANCH   4  14
ATOM     14  C   LIG    1        0.484   5.456  -1.033  0.00  0.00    -0.039 C 
ATOM     15  C   LIG    1       -0.438   5.959  -2.146  0.00  0.00    -0.013 C 
ATOM     16  C   LIG    1       -0.458   7.489  -2.138  0.00  0.00    -0.001 C 
ATOM     17  C   LIG    1        0.958   8.020  -2.369  0.00  0.00    +0.002 C 
ATOM     18  C   LIG    1        1.879   7.516  -1.256  0.00  0.00    +0.030 C 
ATOM     19  C   LIG    1        1.900   5.986  -1.264  0.00  0.00    +0.101 C 
BRANCH  19  20
ATOM     20  O   LIG    1        2.382   5.523  -2.528  0.00  0.00    -0.393 OA
ATOM     21  H   LIG    1        3.389   5.804  -2.869  0.00  0.00    +0.210 HD
ENDBRANCH  19  20
ENDBRANCH   4  14
TORSDOF 3
