REMARK  Name = ZINC13781236
REMARK                            x       y       z     vdW  Elec       q    Type
REMARK                         _______ _______ _______ _____ _____    ______ ____
ROOT
ATOM      1  C   LIG    1        3.618   3.150  -0.436  0.00  0.00    +0.078 C 
ATOM      2  C   LIG    1        3.646   1.860   0.393  0.00  0.00    +0.027 C 
ATOM      3  C   LIG    1        2.465   0.989  -0.031  0.00  0.00    +0.037 C 
ATOM      4  C   LIG    1        1.184   1.781   0.000  0.00  0.00    -0.044 A 
ATOM      5  C   LIG    1       -0.013   1.076   0.008  0.00  0.00    +0.004 A 
ATOM      6  C   LIG    1       -1.220   1.744   0.017  0.00  0.00    +0.000 A 
ATOM      7  C   LIG    1       -1.239   3.126   0.030  0.00  0.00    +0.000 A 
ATOM      8  C   LIG    1       -0.052   3.828   0.026  0.00  0.00    +0.004 A 
ATOM      9  C   LIG    1        1.165   3.157   0.013  0.00  0.00    -0.042 A 
ATOM     10  C   LIG    1        2.422   3.986   0.016  0.00  0.00    +0.057 C 
ENDROOT
BRANCH   1  12
ATOM     11  C   LIG    1        5.284   4.777  -1.152  0.00  0.00    +0.213 C 
ATOM     12  N   LIG    1        4.856   3.902  -0.220  0.00  0.00    -0.312 N 
ATOM     13  H   LIG    1        5.368   3.770   0.593  0.00  0.00    +0.149 HD
ATOM     14  O   LIG    1        4.643   4.942  -2.169  0.00  0.00    -0.276 OA
BRANCH  11  16
ATOM     15  C   LIG    1        6.813   6.466  -2.129  0.00  0.00    +0.013 C 
ATOM     16  C   LIG    1        6.558   5.551  -0.930  0.00  0.00    +0.092 C 
ENDBRANCH  11  16
ENDBRANCH   1  12
TORSDOF 2
