REMARK  Name = ZINC16051731
REMARK                            x       y       z     vdW  Elec       q    Type
REMARK                         _______ _______ _______ _____ _____    ______ ____
ROOT
ATOM      1  C   LIG    1        1.835   4.318  -0.311  0.00  0.00    +0.004 A 
ATOM      2  C   LIG    1        2.201   3.025  -0.637  0.00  0.00    +0.005 A 
ATOM      3  C   LIG    1        1.237   2.043  -0.769  0.00  0.00    -0.030 A 
ATOM      4  C   LIG    1       -0.096   2.351  -0.583  0.00  0.00    +0.046 A 
ATOM      5  C   LIG    1       -0.467   3.648  -0.250  0.00  0.00    +0.100 A 
ATOM      6  C   LIG    1        0.504   4.632  -0.118  0.00  0.00    +0.042 A 
ENDROOT
BRANCH   5   7
ATOM      7  N   LIG    1       -1.816   3.962  -0.055  0.00  0.00    -0.246 N 
ATOM      8  H   LIG    1       -2.417   3.303   0.325  0.00  0.00    +0.265 HD
BRANCH   7   9
ATOM      9  C   LIG    1       -2.289   5.208  -0.402  0.00  0.00    +0.346 C 
ATOM     10  N   LIG    1       -1.446   6.022  -1.020  0.00  0.00    -0.292 N 
ATOM     11  H   LIG    1       -0.487   5.714  -1.219  0.00  0.00    +0.255 HD
ATOM     12  H   LIG    1       -1.750   6.956  -1.297  0.00  0.00    +0.255 HD
BRANCH   9  13
ATOM     13  N   LIG    1       -3.585   5.558  -0.105  0.00  0.00    -0.292 N 
ATOM     14  H   LIG    1       -3.919   6.435  -0.349  0.00  0.00    +0.255 HD
ATOM     15  H   LIG    1       -4.166   4.927   0.349  0.00  0.00    +0.255 HD
ENDBRANCH   9  13
ENDBRANCH   7   9
ENDBRANCH   5   7
BRANCH   3  16
ATOM     16  C   LIG    1        1.641   0.635  -1.125  0.00  0.00    +0.137 C 
BRANCH  16  17
ATOM     17  C   LIG    1        2.568   0.096  -0.066  0.00  0.00    +0.313 C 
ATOM     18  O   LIG    1        2.869   0.784   0.880  0.00  0.00    -0.250 OA
BRANCH  17  19
ATOM     19  O   LIG    1        3.058  -1.149  -0.174  0.00  0.00    -0.480 OA
ATOM     20  H   LIG    1        2.825  -1.683  -0.908  0.00  0.00    +0.295 HD
ENDBRANCH  17  19
ENDBRANCH  16  17
BRANCH  16  21
ATOM     21  C   LIG    1        2.358   0.636  -2.477  0.00  0.00    +0.085 C 
BRANCH  21  22
ATOM     22  S   LIG    1        2.712  -1.072  -2.974  0.00  0.00    -0.177 S 
ATOM     23  H   LIG    1        3.334  -0.943  -4.160  0.00  0.00    +0.102 HD
ENDBRANCH  21  22
ENDBRANCH  16  21
ENDBRANCH   3  16
TORSDOF 8
