REMARK  Name = ZINC40977366
REMARK                            x       y       z     vdW  Elec       q    Type
REMARK                         _______ _______ _______ _____ _____    ______ ____
ROOT
ATOM      1  N   LIG    1        3.580   2.134  -0.021  0.00  0.00    -0.214 N 
ATOM      2  C   LIG    1        4.741   1.761   0.596  0.00  0.00    +0.168 A 
ATOM      3  C   LIG    1        5.682   2.773   0.326  0.00  0.00    +0.078 A 
ATOM      4  C   LIG    1        6.981   2.635   0.852  0.00  0.00    +0.130 A 
ATOM      5  N   LIG    1        7.256   1.556   1.578  0.00  0.00    -0.220 NA
ATOM      6  C   LIG    1        6.340   0.632   1.805  0.00  0.00    +0.225 A 
ATOM      7  C   LIG    1        5.030   3.743  -0.467  0.00  0.00    +0.148 A 
ATOM      8  N   LIG    1        5.114   0.718   1.335  0.00  0.00    -0.216 NA
ATOM      9  N   LIG    1        3.802   3.356  -0.668  0.00  0.00    -0.172 NA
ENDROOT
BRANCH   1  12
ATOM     10  C   LIG    1       -0.017   1.393   0.010  0.00  0.00    +0.021 A 
ATOM     11  C   LIG    1        1.167   2.096   0.002  0.00  0.00    +0.029 A 
ATOM     12  C   LIG    1        2.381   1.417  -0.013  0.00  0.00    +0.068 A 
ATOM     13  C   LIG    1        2.404   0.027  -0.021  0.00  0.00    +0.029 A 
ATOM     14  C   LIG    1        1.224  -0.683  -0.013  0.00  0.00    +0.021 A 
ATOM     15  C   LIG    1        0.002  -0.004   0.002  0.00  0.00    +0.052 A 
BRANCH  15  16
ATOM     16  C   LIG    1       -1.227  -0.739   0.010  0.00  0.00    +0.099 C 
ATOM     17  N   LIG    1       -2.202  -1.321   0.017  0.00  0.00    -0.191 NA
ENDBRANCH  15  16
ENDBRANCH   1  12
BRANCH   4  18
ATOM     18  N   LIG    1        7.945   3.596   0.619  0.00  0.00    -0.342 N 
ATOM     19  H   LIG    1        8.836   3.488   0.987  0.00  0.00    +0.144 HD
ATOM     20  H   LIG    1        7.731   4.378   0.086  0.00  0.00    +0.144 HD
ENDBRANCH   4  18
TORSDOF 3
