REMARK  Name = ZINC13765438
REMARK                            x       y       z     vdW  Elec       q    Type
REMARK                         _______ _______ _______ _____ _____    ______ ____
ROOT
ATOM      1  C   UNK A  2       -0.797  -4.058   2.598  0.00  0.00    +0.000 A 
ATOM      2  C   UNK A  2        0.209  -4.699   1.900  0.00  0.00    +0.000 A 
ATOM      3  C   UNK A  2        0.970  -3.992   0.991  0.00  0.00    +0.005 A 
ATOM      4  C   UNK A  2        0.733  -2.642   0.774  0.00  0.00    -0.027 A 
ATOM      5  C   UNK A  2       -0.262  -1.999   1.476  0.00  0.00    -0.040 A 
ATOM      6  C   UNK A  2       -0.555  -0.530   1.317  0.00  0.00    +0.069 C 
ATOM      7  C   UNK A  2        0.002  -0.004  -0.004  0.00  0.00    +0.189 C 
ATOM      8  N   UNK A  2        1.388  -0.483  -0.135  0.00  0.00    -0.285 N 
ATOM      9  C   TYR A  1        2.427   0.376  -0.155  0.00  0.00    +0.202 C 
ATOM     10  O   TYR A  1        2.239   1.559   0.032  0.00  0.00    -0.277 OA
ATOM     11  C   UNK A  2        1.593  -1.931  -0.241  0.00  0.00    +0.144 C 
ATOM     12  C   UNK A  2       -1.030  -2.715   2.386  0.00  0.00    +0.004 A 
ENDROOT
BRANCH   7  13
ATOM     13  C   UNK A  2       -0.019   1.503  -0.002  0.00  0.00    +0.326 C 
ATOM     14  O   UNK A  2       -0.408   2.104  -0.976  0.00  0.00    -0.249 OA
BRANCH  13  15
ATOM     15  O   UNK A  2        0.389   2.178   1.084  0.00  0.00    -0.479 OA
ATOM     16  H   UNK A  2        0.691   1.713   1.839  0.00  0.00    +0.295 HD
ENDBRANCH  13  15
ENDBRANCH   7  13
BRANCH   9  17
ATOM     17  CA  TYR A  1        3.821  -0.136  -0.408  0.00  0.00    +0.017 C 
BRANCH  17  18
ATOM     18  N   TYR A  1        4.663   0.981  -0.873  0.00  0.00    +0.386 N 
ATOM     19  H1  TYR A  1        4.248   1.388  -1.719  0.00  0.00    -0.089 HD
ATOM     20  H2  TYR A  1        5.600   0.645  -1.091  0.00  0.00    -0.089 HD
ATOM     21  H3  TYR A  1        4.720   1.699  -0.152  0.00  0.00    -0.089 HD
ENDBRANCH  17  18
BRANCH  17  22
ATOM     22  CB  TYR A  1        4.388  -0.732   0.881  0.00  0.00    +0.028 C 
BRANCH  22  23
ATOM     23  CG  TYR A  1        5.732  -1.353   0.599  0.00  0.00    -0.048 A 
ATOM     24  CD2 TYR A  1        5.814  -2.682   0.228  0.00  0.00    +0.007 A 
ATOM     25  CE2 TYR A  1        7.045  -3.252  -0.037  0.00  0.00    +0.045 A 
ATOM     26  CZ  TYR A  1        8.200  -2.493   0.081  0.00  0.00    +0.117 A 
ATOM     27  CE1 TYR A  1        8.115  -1.161   0.460  0.00  0.00    +0.045 A 
ATOM     28  CD1 TYR A  1        6.882  -0.594   0.718  0.00  0.00    +0.007 A 
BRANCH  26  29
ATOM     29  OH  TYR A  1        9.411  -3.052  -0.173  0.00  0.00    -0.507 OA
ATOM     30  HH  TYR A  1        9.831  -3.451   0.601  0.00  0.00    +0.292 HD
ENDBRANCH  26  29
ENDBRANCH  22  23
ENDBRANCH  17  22
ENDBRANCH   9  17
TORSDOF 7
