REMARK  Name = ZINC22449469
REMARK                            x       y       z     vdW  Elec       q    Type
REMARK                         _______ _______ _______ _____ _____    ______ ____
ROOT
ATOM      1  C   LIG    1        6.365  -9.133   5.105  0.00  0.00    +0.051 C 
ATOM      2  C   LIG    1        6.375  -9.887   6.276  0.00  0.00    +0.068 C 
ATOM      3  C   LIG    1        5.871  -9.479   7.601  0.00  0.00    +0.010 A 
ATOM      4  C   LIG    1        5.275  -8.315   8.084  0.00  0.00    +0.011 A 
ATOM      5  C   LIG    1        4.908  -8.229   9.396  0.00  0.00    +0.016 A 
ATOM      6  C   LIG    1        5.128  -9.309  10.260  0.00  0.00    +0.061 A 
ATOM      7  C   LIG    1        5.724 -10.480   9.786  0.00  0.00    +0.039 A 
ATOM      8  C   LIG    1        6.099 -10.571   8.456  0.00  0.00    +0.042 A 
ATOM      9  N   LIG    1        6.699 -11.584   7.718  0.00  0.00    -0.281 N 
ATOM     10  H   LIG    1        6.959 -12.446   8.077  0.00  0.00    +0.155 HD
ATOM     11  C   LIG    1        6.865 -11.210   6.438  0.00  0.00    +0.251 C 
ATOM     12  O   LIG    1        7.359 -11.895   5.559  0.00  0.00    -0.270 OA
ENDROOT
BRANCH   1  13
ATOM     13  C   LIG    1        6.778  -9.747   3.830  0.00  0.00    -0.003 A 
ATOM     14  C   LIG    1        7.709  -9.103   3.010  0.00  0.00    +0.010 A 
ATOM     15  C   LIG    1        8.090  -9.683   1.818  0.00  0.00    +0.001 A 
ATOM     16  C   LIG    1        7.554 -10.900   1.434  0.00  0.00    +0.000 A 
ATOM     17  C   LIG    1        6.631 -11.543   2.241  0.00  0.00    +0.001 A 
ATOM     18  C   LIG    1        6.245 -10.978   3.438  0.00  0.00    +0.010 A 
ENDBRANCH   1  13
BRANCH   1  19
ATOM     19  N   LIG    1        5.973  -7.822   5.139  0.00  0.00    -0.313 N 
ATOM     20  H   LIG    1        6.438  -7.191   5.710  0.00  0.00    +0.152 HD
BRANCH  19  24
ATOM     21  C   LIG    1        2.781  -6.542   2.784  0.00  0.00    +0.036 A 
ATOM     22  C   LIG    1        3.548  -5.614   3.478  0.00  0.00    +0.025 A 
ATOM     23  C   LIG    1        4.605  -6.038   4.258  0.00  0.00    +0.025 A 
ATOM     24  C   LIG    1        4.901  -7.392   4.349  0.00  0.00    +0.031 A 
ATOM     25  C   LIG    1        4.133  -8.320   3.656  0.00  0.00    +0.025 A 
ATOM     26  C   LIG    1        3.073  -7.896   2.881  0.00  0.00    +0.025 A 
BRANCH  21  28
ATOM     27  C   LIG    1        1.940  -5.385   0.881  0.00  0.00    +0.234 C 
ATOM     28  N   LIG    1        1.708  -6.111   1.993  0.00  0.00    -0.273 N 
ATOM     29  C   LIG    1        0.335  -6.450   2.373  0.00  0.00    +0.138 C 
ATOM     30  O   LIG    1        3.068  -5.026   0.616  0.00  0.00    -0.274 OA
BRANCH  27  31
ATOM     31  C   LIG    1        0.798  -5.021  -0.032  0.00  0.00    +0.180 C 
BRANCH  31  37
ATOM     32  C   LIG    1        1.891  -1.234  -4.059  0.00  0.00    -0.096 C 
ATOM     33  N   LIG    1        1.343  -1.981  -2.919  0.00  0.00    +0.379 N 
ATOM     34  H   LIG    1        0.577  -1.464  -2.515  0.00  0.00    -0.082 HD
ATOM     35  C   LIG    1        0.862  -3.291  -3.378  0.00  0.00    -0.064 C 
ATOM     36  C   LIG    1        0.274  -4.062  -2.193  0.00  0.00    +0.066 C 
ATOM     37  N   LIG    1        1.308  -4.234  -1.163  0.00  0.00    -0.298 NA
ATOM     38  C   LIG    1        1.818  -2.932  -0.712  0.00  0.00    +0.066 C 
ATOM     39  C   LIG    1        2.392  -2.170  -1.908  0.00  0.00    -0.064 C 
ENDBRANCH  31  37
ENDBRANCH  27  31
ENDBRANCH  21  28
ENDBRANCH  19  24
ENDBRANCH   1  19
BRANCH   6  40
ATOM     40  C   LIG    1        4.729  -9.210  11.675  0.00  0.00    +0.339 C 
ATOM     41  O   LIG    1        4.918 -10.146  12.427  0.00  0.00    -0.245 OA
BRANCH  40  42
ATOM     42  O   LIG    1        4.153  -8.082  12.136  0.00  0.00    -0.464 OA
ATOM     43  C   LIG    1        3.792  -8.055  13.518  0.00  0.00    +0.280 C 
ENDBRANCH  40  42
ENDBRANCH   6  40
TORSDOF 8
