REMARK  Name = ZINC28822898
REMARK                            x       y       z     vdW  Elec       q    Type
REMARK                         _______ _______ _______ _____ _____    ______ ____
ROOT
ATOM      1  C   LIG    1       -2.794   5.004  -1.381  0.00  0.00    +0.244 C 
ATOM      2  N   LIG    1       -3.566   4.073  -0.786  0.00  0.00    -0.307 N 
ATOM      3  H   LIG    1       -3.112   3.154  -0.389  0.00  0.00    +0.149 HD
ATOM      4  O   LIG    1       -3.297   6.020  -1.819  0.00  0.00    -0.270 OA
ENDROOT
BRANCH   1  10
ATOM      5  C   LIG    1       -0.757   3.621  -1.002  0.00  0.00    +0.013 A 
ATOM      6  C   LIG    1        0.605   3.429  -1.111  0.00  0.00    +0.005 A 
ATOM      7  C   LIG    1        1.394   4.387  -1.722  0.00  0.00    -0.043 A 
ATOM      8  C   LIG    1        0.826   5.545  -2.223  0.00  0.00    +0.005 A 
ATOM      9  C   LIG    1       -0.534   5.751  -2.116  0.00  0.00    +0.013 A 
ATOM     10  C   LIG    1       -1.336   4.789  -1.500  0.00  0.00    +0.037 A 
BRANCH   7  11
ATOM     11  C   LIG    1        2.880   4.168  -1.844  0.00  0.00    -0.019 C 
ATOM     12  C   LIG    1        3.740   4.460  -0.613  0.00  0.00    +0.010 C 
ATOM     13  C   LIG    1        3.781   5.404  -1.817  0.00  0.00    +0.010 C 
BRANCH  11  14
ATOM     14  C   LIG    1        3.305   3.004  -2.742  0.00  0.00    -0.067 C 
BRANCH  14  15
ATOM     15  N   LIG    1        2.692   3.160  -4.068  0.00  0.00    +0.380 N 
ATOM     16  H   LIG    1        1.606   3.082  -3.907  0.00  0.00    -0.082 HD
ATOM     17  C   LIG    1        3.067   4.462  -4.678  0.00  0.00    -0.079 C 
ATOM     18  C   LIG    1        2.805   4.234  -6.188  0.00  0.00    -0.020 C 
ATOM     19  C   LIG    1        3.249   2.768  -6.398  0.00  0.00    -0.020 C 
ATOM     20  C   LIG    1        3.178   2.122  -5.002  0.00  0.00    -0.079 C 
ENDBRANCH  14  15
ENDBRANCH  11  14
ENDBRANCH   7  11
ENDBRANCH   1  10
BRANCH   2  21
ATOM     21  C   LIG    1       -5.011   4.286  -0.667  0.00  0.00    +0.093 C 
ATOM     22  C   LIG    1       -5.766   2.980  -0.989  0.00  0.00    +0.024 C 
ATOM     23  C   LIG    1       -6.958   2.977  -0.001  0.00  0.00    +0.004 C 
ATOM     24  C   LIG    1       -6.334   3.563   1.290  0.00  0.00    +0.024 C 
ATOM     25  C   LIG    1       -5.372   4.657   0.781  0.00  0.00    +0.093 C 
BRANCH  25  26
ATOM     26  N   LIG    1       -4.163   4.686   1.609  0.00  0.00    -0.306 N 
ATOM     27  H   LIG    1       -3.465   3.837   1.591  0.00  0.00    +0.149 HD
ATOM     28  C   LIG    1       -3.908   5.753   2.391  0.00  0.00    +0.251 C 
ATOM     29  O   LIG    1       -4.681   6.693   2.411  0.00  0.00    -0.270 OA
BRANCH  28  30
ATOM     30  C   LIG    1       -2.699   5.782   3.218  0.00  0.00    +0.075 A 
ATOM     31  C   LIG    1       -2.255   6.771   4.082  0.00  0.00    +0.022 A 
ATOM     32  C   LIG    1       -1.075   6.541   4.742  0.00  0.00    +0.028 A 
ATOM     33  C   LIG    1       -0.407   5.376   4.522  0.00  0.00    +0.079 A 
ATOM     34 CL   LIG    1        1.089   4.841   5.221  0.00  0.00    -0.076 Cl
ATOM     35  S   LIG    1       -1.419   4.550   3.381  0.00  0.00    -0.072 S 
ENDBRANCH  28  30
ENDBRANCH  25  26
ENDBRANCH   2  21
TORSDOF 7
