REMARK  Name = ZINC34026964
REMARK                            x       y       z     vdW  Elec       q    Type
REMARK                         _______ _______ _______ _____ _____    ______ ____
ROOT
ATOM      1  C   LIG    1        1.873   1.206   5.833  0.00  0.00    +0.012 C 
ATOM      2  C   LIG    1        2.514   0.577   4.599  0.00  0.00    -0.018 C 
ATOM      3  C   LIG    1        2.184   1.373   3.358  0.00  0.00    +0.008 C 
ATOM      4  C   LIG    1        0.674   1.237   3.078  0.00  0.00    +0.005 C 
ATOM      5  C   LIG    1        0.301  -0.218   2.846  0.00  0.00    +0.004 C 
ATOM      6  C   LIG    1        0.667  -1.093   4.055  0.00  0.00    -0.003 C 
ATOM      7  C   LIG    1       -0.312  -0.844   5.191  0.00  0.00    +0.006 C 
ATOM      8  C   LIG    1       -1.697  -1.365   4.780  0.00  0.00    +0.023 C 
ATOM      9  C   LIG    1       -1.733  -1.605   3.276  0.00  0.00    +0.083 C 
ATOM     10  N   LIG    1       -3.102  -1.880   2.833  0.00  0.00    -0.308 N 
ATOM     11  H   LIG    1       -3.885  -2.106   3.571  0.00  0.00    +0.149 HD
ATOM     12  C   LIG    1       -3.384  -1.853   1.513  0.00  0.00    +0.237 C 
ATOM     13  O   LIG    1       -4.463  -2.239   1.108  0.00  0.00    -0.271 OA
ATOM     14  C   LIG    1       -2.372  -1.348   0.568  0.00  0.00    +0.063 C 
ATOM     15  C   LIG    1       -1.309  -0.689   1.023  0.00  0.00    -0.013 C 
ATOM     16  C   LIG    1       -1.171  -0.412   2.504  0.00  0.00    +0.008 C 
ATOM     17  C   LIG    1       -1.988   0.838   2.829  0.00  0.00    +0.017 C 
ATOM     18  C   LIG    1        4.015   0.409   4.903  0.00  0.00    +0.081 C 
ATOM     19  C   LIG    1        4.076  -0.875   5.772  0.00  0.00    +0.013 C 
ATOM     20  C   LIG    1        2.684  -1.560   5.643  0.00  0.00    +0.005 C 
ATOM     21  C   LIG    1        2.111  -0.895   4.387  0.00  0.00    -0.001 C 
ENDROOT
BRANCH  18  22
ATOM     22  C   LIG    1        4.517   1.595   5.679  0.00  0.00    +0.221 C 
ATOM     23  N   LIG    1        5.455   1.429   6.633  0.00  0.00    -0.285 N 
ATOM     24  H   LIG    1        5.910   0.440   6.790  0.00  0.00    +0.155 HD
ATOM     25  O   LIG    1        4.078   2.701   5.446  0.00  0.00    -0.275 OA
BRANCH  23  26
ATOM     26  C   LIG    1        5.849   2.515   7.422  0.00  0.00    +0.046 A 
ATOM     27  C   LIG    1        5.772   3.807   6.918  0.00  0.00    +0.036 A 
ATOM     28  C   LIG    1        6.162   4.876   7.701  0.00  0.00    +0.057 A 
ATOM     29  C   LIG    1        6.629   4.661   8.985  0.00  0.00    +0.013 A 
ATOM     30  C   LIG    1        6.708   3.376   9.489  0.00  0.00    +0.015 A 
ATOM     31  C   LIG    1        6.314   2.303   8.714  0.00  0.00    +0.076 A 
BRANCH  28  32
ATOM     32  C   LIG    1        6.077   6.278   7.155  0.00  0.00    +0.417 C 
ATOM     33  F   LIG    1        6.256   6.250   5.768  0.00  0.00    -0.166 F 
ATOM     34  F   LIG    1        7.075   7.066   7.738  0.00  0.00    -0.166 F 
ATOM     35  F   LIG    1        4.822   6.819   7.452  0.00  0.00    -0.166 F 
ENDBRANCH  28  32
BRANCH  31  36
ATOM     36  C   LIG    1        6.393   0.903   9.267  0.00  0.00    +0.419 C 
ATOM     37  F   LIG    1        7.249   0.135   8.470  0.00  0.00    -0.166 F 
ATOM     38  F   LIG    1        5.117   0.330   9.269  0.00  0.00    -0.166 F 
ATOM     39  F   LIG    1        6.887   0.946  10.575  0.00  0.00    -0.166 F 
ENDBRANCH  31  36
ENDBRANCH  23  26
ENDBRANCH  18  22
TORSDOF 4
