REMARK  Name = ZINC33966194
REMARK                            x       y       z     vdW  Elec       q    Type
REMARK                         _______ _______ _______ _____ _____    ______ ____
ROOT
ATOM      1  C   LIG    1       -0.215   1.246  -0.274  0.00  0.00    +0.011 C 
ATOM      2  C   LIG    1       -0.103  -0.273  -0.130  0.00  0.00    -0.034 C 
ATOM      3  C   LIG    1       -1.493  -0.912  -0.109  0.00  0.00    +0.011 C 
ATOM      4  C   LIG    1        0.751  -0.865  -1.279  0.00  0.00    +0.007 C 
ATOM      5  C   LIG    1        1.257  -2.199  -0.677  0.00  0.00    +0.006 C 
ATOM      6  C   LIG    1        1.543  -1.863   0.801  0.00  0.00    -0.034 C 
ATOM      7  C   LIG    1        0.679  -0.638   1.149  0.00  0.00    +0.012 C 
ENDROOT
BRANCH   6   8
ATOM      8  C   LIG    1        1.158  -3.046   1.692  0.00  0.00    -0.079 C 
BRANCH   8   9
ATOM      9  N   LIG    1        1.985  -4.210   1.345  0.00  0.00    +0.378 N 
ATOM     10  H   LIG    1        1.782  -4.968   1.979  0.00  0.00    -0.090 HD
ATOM     11  H   LIG    1        2.960  -3.963   1.416  0.00  0.00    -0.090 HD
ATOM     12  H   LIG    1        1.779  -4.498   0.400  0.00  0.00    -0.090 HD
ENDBRANCH   8   9
ENDBRANCH   6   8
BRANCH   6  13
ATOM     13  C   LIG    1        3.025  -1.528   0.985  0.00  0.00    +0.125 C 
BRANCH  13  14
ATOM     14  C   LIG    1        3.264  -1.071   2.401  0.00  0.00    +0.305 C 
ATOM     15  O   LIG    1        2.354  -1.093   3.211  0.00  0.00    -0.251 OA
BRANCH  14  16
ATOM     16  O   LIG    1        4.369  -0.678   2.736  0.00  0.00    -0.481 OA
ATOM     17  H   LIG    1        5.069  -0.661   2.113  0.00  0.00    +0.295 HD
ENDBRANCH  14  16
ENDBRANCH  13  14
ENDBRANCH   6  13
TORSDOF 5
