REMARK  Name = ZINC34662381
REMARK                            x       y       z     vdW  Elec       q    Type
REMARK                         _______ _______ _______ _____ _____    ______ ____
ROOT
ATOM      1  C   LIG    1        2.073  -4.547  -3.580  0.00  0.00    +0.332 C 
ATOM      2  O   LIG    1        2.565  -3.874  -4.463  0.00  0.00    -0.246 OA
ENDROOT
BRANCH   1   3
ATOM      3  C   LIG    1        2.131  -6.022  -3.656  0.00  0.00    +0.098 C 
ATOM      4  C   LIG    1        2.728  -6.618  -4.701  0.00  0.00    +0.098 C 
BRANCH   4   5
ATOM      5  C   LIG    1        2.786  -8.090  -4.777  0.00  0.00    +0.330 C 
ATOM      6  O   LIG    1        2.290  -8.768  -3.887  0.00  0.00    -0.246 OA
BRANCH   5   7
ATOM      7  O   LIG    1        3.329  -8.633  -5.728  0.00  0.00    -0.478 OA
ATOM      8  H   LIG    1        3.708  -8.113  -6.410  0.00  0.00    +0.295 HD
ENDBRANCH   5   7
ENDBRANCH   4   5
ENDBRANCH   1   3
BRANCH   1   9
ATOM      9  O   LIG    1        1.474  -3.950  -2.532  0.00  0.00    -0.462 OA
BRANCH   9  10
ATOM     10  C   LIG    1        1.455  -2.521  -2.524  0.00  0.00    +0.232 C 
BRANCH  10  11
ATOM     11  C   LIG    1        0.739  -2.027  -1.265  0.00  0.00    +0.041 C 
BRANCH  11  12
ATOM     12  C   LIG    1        0.718  -0.497  -1.257  0.00  0.00    +0.003 C 
BRANCH  12  14
ATOM     13  C   LIG    1       -0.019   1.526   0.010  0.00  0.00    +0.004 C 
ATOM     14  C   LIG    1        0.002  -0.004   0.002  0.00  0.00    -0.003 C 
ENDBRANCH  12  14
ENDBRANCH  11  12
ENDBRANCH  10  11
ENDBRANCH   9  10
ENDBRANCH   1   9
TORSDOF 8
