REMARK  Name = ZINC49538664
REMARK                            x       y       z     vdW  Elec       q    Type
REMARK                         _______ _______ _______ _____ _____    ______ ____
ROOT
ATOM      1  C   LIG    1        3.696  -0.685  -0.037  0.00  0.00    +0.014 A 
ATOM      2  C   LIG    1        4.555  -0.572  -1.140  0.00  0.00    +0.081 A 
ATOM      3  C   LIG    1        5.784  -1.260  -1.147  0.00  0.00    +0.045 A 
ATOM      4  C   LIG    1        6.151  -2.047  -0.073  0.00  0.00    +0.051 A 
ATOM      5  C   LIG    1        5.307  -2.170   1.029  0.00  0.00    +0.070 A 
ATOM      6  N   LIG    1        5.398  -2.861   2.208  0.00  0.00    -0.275 N 
ATOM      7  H   LIG    1        6.142  -3.425   2.474  0.00  0.00    +0.189 HD
ATOM      8  N   LIG    1        4.256  -2.613   2.977  0.00  0.00    -0.158 NA
ATOM      9  C   LIG    1        3.448  -1.814   2.333  0.00  0.00    +0.146 A 
ATOM     10  C   LIG    1        4.077  -1.484   1.054  0.00  0.00    +0.050 A 
ENDROOT
BRANCH   1  14
ATOM     11  C   LIG    1       -0.017   1.379   0.010  0.00  0.00    +0.000 A 
ATOM     12  C   LIG    1        1.168   2.093   0.002  0.00  0.00    +0.001 A 
ATOM     13  C   LIG    1        2.377   1.429  -0.013  0.00  0.00    +0.008 A 
ATOM     14  C   LIG    1        2.403   0.034  -0.021  0.00  0.00    -0.016 A 
ATOM     15  C   LIG    1        1.204  -0.680  -0.013  0.00  0.00    +0.008 A 
ATOM     16  C   LIG    1        0.002  -0.004   0.002  0.00  0.00    +0.001 A 
ENDBRANCH   1  14
BRANCH   3  17
ATOM     17  N   LIG    1        6.635  -1.145  -2.242  0.00  0.00    -0.357 N 
ATOM     18  H   LIG    1        7.482  -1.617  -2.250  0.00  0.00    +0.142 HD
ATOM     19  H   LIG    1        6.381  -0.593  -2.998  0.00  0.00    +0.142 HD
ENDBRANCH   3  17
BRANCH   9  20
ATOM     20  N   LIG    1        2.207  -1.357   2.784  0.00  0.00    -0.341 N 
ATOM     21  H   LIG    1        1.874  -1.634   3.652  0.00  0.00    +0.144 HD
ATOM     22  H   LIG    1        1.679  -0.762   2.229  0.00  0.00    +0.144 HD
ENDBRANCH   9  20
BRANCH   2  23
ATOM     23  C   LIG    1        4.183   0.242  -2.258  0.00  0.00    +0.102 C 
ATOM     24  N   LIG    1        3.888   0.888  -3.145  0.00  0.00    -0.191 NA
ENDBRANCH   2  23
TORSDOF 4
