REMARK  Name = ZINC40164426
REMARK                            x       y       z     vdW  Elec       q    Type
REMARK                         _______ _______ _______ _____ _____    ______ ____
ROOT
ATOM      1  C   LIG    1        3.584  -2.247   4.844  0.00  0.00    +0.178 C 
ATOM      2  C   LIG    1        4.906  -1.718   5.407  0.00  0.00    +0.177 C 
ATOM      3  C   LIG    1        5.189  -2.400   6.750  0.00  0.00    +0.179 C 
ATOM      4  C   LIG    1        5.210  -3.917   6.545  0.00  0.00    +0.201 C 
ATOM      5  C   LIG    1        3.877  -4.361   5.938  0.00  0.00    +0.285 C 
ATOM      6  O   LIG    1        3.660  -3.668   4.707  0.00  0.00    -0.340 OA
ENDROOT
BRANCH   4   7
ATOM      7  O   LIG    1        5.403  -4.566   7.803  0.00  0.00    -0.384 OA
ATOM      8  H   LIG    1        5.426  -5.531   7.749  0.00  0.00    +0.210 HD
ENDBRANCH   4   7
BRANCH   3   9
ATOM      9  O   LIG    1        6.455  -1.965   7.248  0.00  0.00    -0.386 OA
ATOM     10  H   LIG    1        6.699  -2.357   8.098  0.00  0.00    +0.210 HD
ENDBRANCH   3   9
BRANCH   2  11
ATOM     11  O   LIG    1        4.812  -0.305   5.598  0.00  0.00    -0.386 OA
ATOM     12  H   LIG    1        5.616   0.098   5.953  0.00  0.00    +0.210 HD
ENDBRANCH   2  11
BRANCH   1  13
ATOM     13  C   LIG    1        3.324  -1.616   3.474  0.00  0.00    +0.197 C 
BRANCH  13  14
ATOM     14  O   LIG    1        2.034  -2.013   3.004  0.00  0.00    -0.346 OA
BRANCH  14  19
ATOM     15  C   LIG    1        0.864   0.680   0.858  0.00  0.00    +0.178 C 
ATOM     16  C   LIG    1       -0.339  -0.008   0.207  0.00  0.00    +0.177 C 
ATOM     17  C   LIG    1        0.027  -1.458  -0.121  0.00  0.00    +0.179 C 
ATOM     18  C   LIG    1        0.475  -2.163   1.163  0.00  0.00    +0.201 C 
ATOM     19  C   LIG    1        1.647  -1.393   1.776  0.00  0.00    +0.282 C 
ATOM     20  O   LIG    1        1.249  -0.044   2.029  0.00  0.00    -0.341 OA
BRANCH  18  21
ATOM     21  O   LIG    1        0.887  -3.497   0.856  0.00  0.00    -0.384 OA
ATOM     22  H   LIG    1        1.284  -3.967   1.602  0.00  0.00    +0.210 HD
ENDBRANCH  18  21
BRANCH  17  23
ATOM     23  O   LIG    1       -1.112  -2.128  -0.664  0.00  0.00    -0.386 OA
ATOM     24  H   LIG    1       -0.952  -3.053  -0.895  0.00  0.00    +0.210 HD
ENDBRANCH  17  23
BRANCH  16  25
ATOM     25  O   LIG    1       -1.447   0.014   1.110  0.00  0.00    -0.386 OA
ATOM     26  H   LIG    1       -2.246  -0.406   0.762  0.00  0.00    +0.210 HD
ENDBRANCH  16  25
BRANCH  15  27
ATOM     27  C   LIG    1        0.487   2.111   1.244  0.00  0.00    +0.190 C 
BRANCH  27  28
ATOM     28  O   LIG    1        1.641   2.789   1.745  0.00  0.00    -0.392 OA
ATOM     29  H   LIG    1        1.475   3.705   2.010  0.00  0.00    +0.210 HD
ENDBRANCH  27  28
ENDBRANCH  15  27
ENDBRANCH  14  19
ENDBRANCH  13  14
ENDBRANCH   1  13
BRANCH   5  30
ATOM     30  O   LIG    1        2.816  -4.061   6.847  0.00  0.00    -0.313 OA
BRANCH  30  31
ATOM     31  C   LIG    1        1.744  -5.006   6.822  0.00  0.00    +0.225 C 
ATOM     32  C   LIG    1        0.561  -4.480   7.663  0.00  0.00    +0.207 C 
ATOM     33  C   LIG    1       -0.369  -3.871   6.578  0.00  0.00    +0.179 C 
ATOM     34  C   LIG    1       -0.117  -4.840   5.396  0.00  0.00    +0.178 C 
ATOM     35  O   LIG    1        1.278  -5.176   5.478  0.00  0.00    -0.336 OA
BRANCH  33  36
ATOM     36  O   LIG    1       -1.736  -3.908   6.993  0.00  0.00    -0.386 OA
ATOM     37  H   LIG    1       -2.353  -3.538   6.346  0.00  0.00    +0.210 HD
ENDBRANCH  33  36
BRANCH  32  38
ATOM     38  O   LIG    1        0.999  -3.478   8.584  0.00  0.00    -0.384 OA
ATOM     39  H   LIG    1        0.292  -3.116   9.135  0.00  0.00    +0.210 HD
ENDBRANCH  32  38
BRANCH  31  40
ATOM     40  C   LIG    1        2.222  -6.348   7.379  0.00  0.00    +0.223 C 
BRANCH  40  41
ATOM     41  O   LIG    1        3.173  -6.925   6.481  0.00  0.00    -0.390 OA
ATOM     42  H   LIG    1        3.520  -7.780   6.771  0.00  0.00    +0.210 HD
ENDBRANCH  40  41
ENDBRANCH  31  40
BRANCH  34  43
ATOM     43  C   LIG    1       -0.421  -4.147   4.066  0.00  0.00    +0.190 C 
BRANCH  43  44
ATOM     44  O   LIG    1       -0.326  -5.096   3.002  0.00  0.00    -0.392 OA
ATOM     45  H   LIG    1       -0.481  -4.720   2.125  0.00  0.00    +0.210 HD
ENDBRANCH  43  44
ENDBRANCH  34  43
ENDBRANCH  30  31
ENDBRANCH   5  30
TORSDOF 19
