REMARK  Name = ZINC13776733
REMARK                            x       y       z     vdW  Elec       q    Type
REMARK                         _______ _______ _______ _____ _____    ______ ____
ROOT
ATOM      1  C   LIG    1       -0.105   0.974   2.509  0.00  0.00    +0.011 C 
ATOM      2  C   LIG    1       -0.743   1.587   1.261  0.00  0.00    +0.028 C 
ATOM      3  C   LIG    1       -0.013   1.086   0.008  0.00  0.00    +0.019 C 
ATOM      4  C   LIG    1       -0.765   1.599  -1.223  0.00  0.00    +0.124 C 
ATOM      5  C   LIG    1       -1.054   3.064  -1.071  0.00  0.00    +0.236 C 
ATOM      6  N   LIG    1       -0.991   3.699   0.034  0.00  0.00    -0.279 N 
ATOM      7  H   LIG    1       -1.227   4.773   0.066  0.00  0.00    +0.303 HD
ATOM      8  C   LIG    1       -0.621   3.111   1.315  0.00  0.00    +0.236 C 
ENDROOT
BRANCH   5   9
ATOM      9  N   LIG    1       -1.407   3.767  -2.193  0.00  0.00    -0.254 N 
ATOM     10  H   LIG    1       -1.471   3.255  -3.164  0.00  0.00    +0.288 HD
ATOM     11  H   LIG    1       -1.626   4.843  -2.122  0.00  0.00    +0.288 HD
ENDBRANCH   5   9
TORSDOF 1
