REMARK  Name = ZINC43172197
REMARK                            x       y       z     vdW  Elec       q    Type
REMARK                         _______ _______ _______ _____ _____    ______ ____
ROOT
ATOM      1  N   LIG    1        4.916  -2.516  -0.060  0.00  0.00    -0.291 NA
ATOM      2  C   LIG    1        6.153  -1.728  -0.172  0.00  0.00    +0.067 C 
ATOM      3  C   LIG    1        7.009  -2.324  -1.294  0.00  0.00    -0.063 C 
ATOM      4  N   LIG    1        7.221  -3.755  -1.039  0.00  0.00    +0.381 N 
ATOM      5  H   LIG    1        7.631  -3.874  -0.125  0.00  0.00    -0.082 HD
ATOM      6  C   LIG    1        5.940  -4.469  -1.097  0.00  0.00    -0.063 C 
ATOM      7  C   LIG    1        5.032  -3.979   0.041  0.00  0.00    +0.067 C 
ENDROOT
BRANCH   1  15
ATOM      8  C   LIG    1       -1.144  -0.899  -0.017  0.00  0.00    +0.000 C 
ATOM      9  C   LIG    1       -1.016  -2.286  -0.051  0.00  0.00    +0.002 C 
ATOM     10  C   LIG    1        0.210  -2.877  -0.066  0.00  0.00    +0.019 C 
ATOM     11  C   LIG    1        1.369  -2.081  -0.047  0.00  0.00    +0.058 C 
ATOM     12  C   LIG    1        1.236  -0.672  -0.013  0.00  0.00    +0.006 C 
ATOM     13  C   LIG    1        2.398   0.127   0.005  0.00  0.00    +0.008 C 
ATOM     14  C   LIG    1        3.609  -0.496  -0.010  0.00  0.00    +0.035 C 
ATOM     15  C   LIG    1        3.675  -1.896  -0.044  0.00  0.00    +0.124 C 
ATOM     16  N   LIG    1        2.586  -2.637  -0.062  0.00  0.00    -0.298 NA
ATOM     17  H   LIG    1        2.668  -3.603  -0.085  0.00  0.00    +0.124 HD
ATOM     18  C   LIG    1       -0.044  -0.096   0.002  0.00  0.00    +0.005 C 
ENDBRANCH   1  15
BRANCH   4  19
ATOM     19  C   LIG    1        8.131  -4.301  -2.055  0.00  0.00    -0.079 C 
BRANCH  19  20
ATOM     20  C   LIG    1        8.453  -5.759  -1.719  0.00  0.00    -0.018 C 
BRANCH  20  21
ATOM     21  C   LIG    1        9.400  -6.329  -2.777  0.00  0.00    +0.006 C 
BRANCH  21  22
ATOM     22  C   LIG    1        9.722  -7.786  -2.442  0.00  0.00    +0.076 C 
BRANCH  22  23
ATOM     23  C   LIG    1       10.655  -8.347  -3.484  0.00  0.00    +0.130 A 
ATOM     24  N   LIG    1       11.050  -7.584  -4.464  0.00  0.00    -0.237 NA
ATOM     25  C   LIG    1       11.882  -8.027  -5.420  0.00  0.00    +0.052 A 
ATOM     26  C   LIG    1       12.336  -9.302  -5.369  0.00  0.00    +0.040 A 
ATOM     27  C   LIG    1       13.287  -9.877  -6.382  0.00  0.00    +0.042 C 
ATOM     28  C   LIG    1       13.302  -9.024  -7.649  0.00  0.00    +0.005 C 
ATOM     29  C   LIG    1       13.519  -7.561  -7.243  0.00  0.00    +0.006 C 
ATOM     30  C   LIG    1       11.904 -10.134  -4.308  0.00  0.00    +0.274 A 
ATOM     31  O   LIG    1       12.284 -11.290  -4.233  0.00  0.00    -0.266 OA
ATOM     32  C   LIG    1       12.266  -7.071  -6.519  0.00  0.00    +0.056 C 
ATOM     33  N   LIG    1       11.069  -9.625  -3.380  0.00  0.00    -0.219 N 
BRANCH  33  34
ATOM     34  N   LIG    1       10.640 -10.403  -2.342  0.00  0.00    -0.294 N 
ATOM     35  H   LIG    1       10.856  -9.974  -1.455  0.00  0.00    +0.163 HD
ATOM     36  H   LIG    1       11.033 -11.331  -2.399  0.00  0.00    +0.163 HD
ENDBRANCH  33  34
ENDBRANCH  22  23
ENDBRANCH  21  22
ENDBRANCH  20  21
ENDBRANCH  19  20
ENDBRANCH   4  19
TORSDOF 7
