REMARK  Name = ZINC00021914
REMARK                            x       y       z     vdW  Elec       q    Type
REMARK                         _______ _______ _______ _____ _____    ______ ____
ROOT
ATOM      1  C   LIG    1        3.042   3.040  -0.021  0.00  0.00    +0.067 A 
ATOM      2  C   LIG    1        3.564   1.761  -0.060  0.00  0.00    +0.006 A 
ATOM      3  C   LIG    1        2.483   0.875  -0.025  0.00  0.00    +0.110 A 
ATOM      4  C   LIG    1        2.766  -0.564  -0.031  0.00  0.00    +0.183 A 
ATOM      5  N   LIG    1        2.045  -1.621  -0.238  0.00  0.00    -0.127 NA
ATOM      6  N   LIG    1        2.790  -2.674  -0.191  0.00  0.00    -0.128 NA
ATOM      7  C   LIG    1        4.044  -2.333   0.064  0.00  0.00    +0.171 A 
ATOM      8  N   LIG    1        4.071  -0.981   0.197  0.00  0.00    -0.305 N 
ATOM      9  C   LIG    1        5.165  -0.074   0.524  0.00  0.00    +0.130 C 
ATOM     10  N   LIG    1        1.357   1.606  -0.002  0.00  0.00    -0.257 N 
ATOM     11  C   LIG    1        4.991   1.293  -0.141  0.00  0.00    +0.061 C 
ATOM     12  N   LIG    1        1.731   2.961   0.016  0.00  0.00    -0.175 NA
ENDROOT
BRANCH   7  13
ATOM     13  C   LIG    1        5.191  -3.246   0.182  0.00  0.00    +0.056 A 
ATOM     14  C   LIG    1        5.199  -4.619   0.342  0.00  0.00    +0.019 A 
ATOM     15  C   LIG    1        6.413  -5.261   0.424  0.00  0.00    +0.008 A 
ATOM     16  C   LIG    1        7.557  -4.531   0.357  0.00  0.00    +0.046 A 
ATOM     17  S   LIG    1        6.936  -2.869   0.163  0.00  0.00    -0.094 S 
ENDBRANCH   7  13
BRANCH  10  18
ATOM     18  C   LIG    1       -0.013   1.086   0.008  0.00  0.00    +0.108 C 
ATOM     19  C   LIG    1       -0.763   1.597   1.255  0.00  0.00    +0.027 C 
ATOM     20  C   LIG    1       -1.531   2.845   0.750  0.00  0.00    +0.002 C 
ATOM     21  C   LIG    1       -1.978   2.421  -0.670  0.00  0.00    +0.002 C 
ATOM     22  C   LIG    1       -0.784   1.609  -1.216  0.00  0.00    +0.027 C 
ENDBRANCH  10  18
BRANCH   1  24
ATOM     23  C   LIG    1        4.159   4.721   1.419  0.00  0.00    +0.010 C 
ATOM     24  C   LIG    1        3.844   4.316  -0.022  0.00  0.00    +0.054 C 
ENDBRANCH   1  24
TORSDOF 3
