REMARK  Name = ZINC00001910
REMARK                            x       y       z     vdW  Elec       q    Type
REMARK                         _______ _______ _______ _____ _____    ______ ____
ROOT
ATOM      1  C   LIG    1        7.153  -0.572  -1.162  0.00  0.00    +0.088 C 
ATOM      2  C   LIG    1        7.331   0.565  -0.152  0.00  0.00    +0.021 C 
ATOM      3  C   LIG    1        6.166   1.548  -0.287  0.00  0.00    -0.076 C 
ATOM      4  N   LIG    1        4.901   0.833  -0.013  0.00  0.00    +0.380 N 
ATOM      5  H   LIG    1        4.960   0.396   0.915  0.00  0.00    -0.082 HD
ATOM      6  C   LIG    1        4.684  -0.221  -1.027  0.00  0.00    -0.076 C 
ATOM      7  C   LIG    1        5.805  -1.257  -0.914  0.00  0.00    +0.021 C 
ENDROOT
BRANCH   1  11
ATOM      8  C   LIG    1       10.309  -3.411  -0.687  0.00  0.00    +0.000 A 
ATOM      9  C   LIG    1        9.729  -3.223  -1.928  0.00  0.00    +0.000 A 
ATOM     10  C   LIG    1        8.707  -2.305  -2.081  0.00  0.00    +0.006 A 
ATOM     11  C   LIG    1        8.266  -1.574  -0.994  0.00  0.00    -0.016 A 
ATOM     12  C   LIG    1        8.850  -1.758   0.245  0.00  0.00    +0.006 A 
ATOM     13  C   LIG    1        9.868  -2.680   0.400  0.00  0.00    +0.000 A 
ENDBRANCH   1  11
BRANCH   1  14
ATOM     14  O   LIG    1        7.182  -0.042  -2.488  0.00  0.00    -0.384 OA
ATOM     15  H   LIG    1        7.075  -0.709  -3.181  0.00  0.00    +0.211 HD
ENDBRANCH   1  14
BRANCH   4  16
ATOM     16  C   LIG    1        3.771   1.784  -0.024  0.00  0.00    -0.078 C 
BRANCH  16  17
ATOM     17  C   LIG    1        2.457   1.001  -0.016  0.00  0.00    -0.011 C 
BRANCH  17  18
ATOM     18  C   LIG    1        1.280   1.980   0.001  0.00  0.00    +0.078 C 
BRANCH  18  19
ATOM     19  C   LIG    1       -0.014   1.208   0.009  0.00  0.00    +0.163 C 
ATOM     20  O   LIG    1        0.002  -0.004   0.002  0.00  0.00    -0.292 OA
BRANCH  19  21
ATOM     21  C   LIG    1       -1.297   1.926   0.019  0.00  0.00    +0.018 A 
ATOM     22  C   LIG    1       -1.320   3.325   0.032  0.00  0.00    +0.014 A 
ATOM     23  C   LIG    1       -2.526   3.992   0.035  0.00  0.00    +0.039 A 
ATOM     24  C   LIG    1       -3.716   3.279   0.037  0.00  0.00    +0.123 A 
ATOM     25  F   LIG    1       -4.894   3.938   0.046  0.00  0.00    -0.205 F 
ATOM     26  C   LIG    1       -3.700   1.892   0.030  0.00  0.00    +0.039 A 
ATOM     27  C   LIG    1       -2.502   1.213   0.021  0.00  0.00    +0.014 A 
ENDBRANCH  19  21
ENDBRANCH  18  19
ENDBRANCH  17  18
ENDBRANCH  16  17
ENDBRANCH   4  16
TORSDOF 7
