REMARK  Name = ZINC47816706
REMARK                            x       y       z     vdW  Elec       q    Type
REMARK                         _______ _______ _______ _____ _____    ______ ____
ROOT
ATOM      1  N   LIG    1        1.235  -2.081  -0.021  0.00  0.00    -0.278 N 
ATOM      2  H   LIG    1        1.930  -2.553  -0.505  0.00  0.00    +0.155 HD
ATOM      3  C   LIG    1        0.296  -2.773   0.654  0.00  0.00    +0.258 C 
ATOM      4  O   LIG    1       -0.623  -2.186   1.194  0.00  0.00    -0.269 OA
ENDROOT
BRANCH   1   9
ATOM      5  C   LIG    1       -0.033   1.372  -0.012  0.00  0.00    +0.002 A 
ATOM      6  C   LIG    1        1.150   2.088  -0.025  0.00  0.00    +0.004 A 
ATOM      7  C   LIG    1        2.363   1.427  -0.037  0.00  0.00    +0.047 A 
ATOM      8  C   LIG    1        2.398   0.042  -0.036  0.00  0.00    +0.138 A 
ATOM      9  C   LIG    1        1.206  -0.681  -0.022  0.00  0.00    +0.076 A 
ATOM     10  C   LIG    1       -0.008  -0.010  -0.010  0.00  0.00    +0.027 A 
BRANCH   8  11
ATOM     11  O   LIG    1        3.591  -0.611  -0.048  0.00  0.00    -0.505 OA
ATOM     12  H   LIG    1        3.945  -0.798   0.831  0.00  0.00    +0.292 HD
ENDBRANCH   8  11
ENDBRANCH   1   9
BRANCH   3  13
ATOM     13  C   LIG    1        0.381  -4.240   0.738  0.00  0.00    +0.114 A 
ATOM     14  C   LIG    1       -0.464  -5.149   1.365  0.00  0.00    +0.157 A 
ATOM     15  N   LIG    1       -0.095  -6.401   1.247  0.00  0.00    -0.149 NA
ATOM     16  N   LIG    1        0.961  -6.748   0.602  0.00  0.00    -0.110 NA
ATOM     17  S   LIG    1        1.594  -5.359   0.057  0.00  0.00    +0.041 S 
ENDBRANCH   3  13
TORSDOF 3
