REMARK  Name = ZINC19688766
REMARK                            x       y       z     vdW  Elec       q    Type
REMARK                         _______ _______ _______ _____ _____    ______ ____
ROOT
ATOM      1  C   LIG    1        3.731  -3.435  -0.051  0.00  0.00    +0.132 C 
ATOM      2  C   LIG    1        2.956  -2.138  -0.038  0.00  0.00    +0.042 A 
ATOM      3  C   LIG    1        1.609  -2.088  -0.027  0.00  0.00    -0.016 A 
ATOM      4  C   LIG    1        0.725  -3.310  -0.030  0.00  0.00    +0.052 C 
ATOM      5  C   LIG    1        1.586  -4.513  -0.440  0.00  0.00    +0.086 C 
ATOM      6  C   LIG    1        1.222  -0.683  -0.014  0.00  0.00    +0.003 A 
ATOM      7  C   LIG    1        0.002  -0.004   0.002  0.00  0.00    +0.010 A 
ATOM      8  C   LIG    1       -0.016   1.361   0.009  0.00  0.00    +0.001 A 
ATOM      9  C   LIG    1        1.170   2.083   0.002  0.00  0.00    +0.002 A 
ATOM     10  C   LIG    1        2.385   1.435  -0.013  0.00  0.00    +0.026 A 
ATOM     11  C   LIG    1        2.429   0.045  -0.021  0.00  0.00    +0.047 A 
ATOM     12  N   LIG    1        3.460  -0.870  -0.035  0.00  0.00    -0.356 N 
ATOM     13  H   LIG    1        4.548  -0.710  -0.044  0.00  0.00    +0.166 HD
ATOM     14  N   LIG    1        2.823  -4.522   0.353  0.00  0.00    -0.304 NA
ATOM     15  H   LIG    1        3.324  -5.490   0.207  0.00  0.00    +0.123 HD
ENDROOT
BRANCH   1  20
ATOM     16  C   LIG    1        7.215  -3.004   1.346  0.00  0.00    +0.120 A 
ATOM     17  C   LIG    1        6.992  -3.192   2.702  0.00  0.00    +0.045 A 
ATOM     18  C   LIG    1        5.717  -3.457   3.161  0.00  0.00    +0.004 A 
ATOM     19  C   LIG    1        4.662  -3.535   2.270  0.00  0.00    +0.006 A 
ATOM     20  C   LIG    1        4.882  -3.348   0.918  0.00  0.00    -0.021 A 
ATOM     21  C   LIG    1        6.157  -3.088   0.453  0.00  0.00    +0.051 A 
BRANCH  16  23
ATOM     22  C   LIG    1        9.512  -2.677   1.867  0.00  0.00    +0.277 C 
ATOM     23  O   LIG    1        8.470  -2.743   0.892  0.00  0.00    -0.495 OA
ENDBRANCH  16  23
ENDBRANCH   1  20
TORSDOF 2
