REMARK  Name = ZINC36351283
REMARK                            x       y       z     vdW  Elec       q    Type
REMARK                         _______ _______ _______ _____ _____    ______ ____
ROOT
ATOM      1  C   LIG    1       -0.019   1.526   0.010  0.00  0.00    -0.011 C 
ATOM      2  C   LIG    1        0.002  -0.004   0.002  0.00  0.00    -0.043 C 
ATOM      3  C   LIG    1        0.757  -0.525  -1.240  0.00  0.00    +0.127 C 
ATOM      4  C   LIG    1        1.528  -1.767  -0.748  0.00  0.00    +0.124 C 
ATOM      5  C   LIG    1        1.175  -1.892   0.750  0.00  0.00    -0.048 C 
ATOM      6  N   LIG    1        0.779  -0.518   1.159  0.00  0.00    +0.384 N 
ATOM      7  H   LIG    1        0.203  -0.547   1.987  0.00  0.00    -0.085 HD
ATOM      8  H   LIG    1        1.597   0.052   1.316  0.00  0.00    -0.085 HD
ENDROOT
BRANCH   3   9
ATOM      9  O   LIG    1       -0.168  -0.888  -2.267  0.00  0.00    -0.391 OA
ATOM     10  H   LIG    1        0.249  -1.223  -3.072  0.00  0.00    +0.210 HD
ENDBRANCH   3   9
BRANCH   4  11
ATOM     11  O   LIG    1        1.102  -2.931  -1.459  0.00  0.00    -0.391 OA
ATOM     12  H   LIG    1        1.553  -3.743  -1.191  0.00  0.00    +0.210 HD
ENDBRANCH   4  11
TORSDOF 2
