REMARK  Name = ZINC49116246
REMARK                            x       y       z     vdW  Elec       q    Type
REMARK                         _______ _______ _______ _____ _____    ______ ____
ROOT
ATOM      1  C   LIG    1       -1.293  -0.774   0.011  0.00  0.00    +0.139 C 
ENDROOT
BRANCH   1   7
ATOM      2  C   LIG    1       -0.017   1.378   0.010  0.00  0.00    +0.009 A 
ATOM      3  C   LIG    1        1.169   2.087   0.002  0.00  0.00    +0.046 A 
ATOM      4  C   LIG    1        2.380   1.409  -0.013  0.00  0.00    +0.130 A 
ATOM      5  C   LIG    1        2.396   0.022  -0.021  0.00  0.00    +0.046 A 
ATOM      6  C   LIG    1        1.207  -0.681  -0.013  0.00  0.00    +0.009 A 
ATOM      7  C   LIG    1        0.002  -0.004   0.002  0.00  0.00    -0.030 A 
BRANCH   4   8
ATOM      8  O   LIG    1        3.548   2.104  -0.021  0.00  0.00    -0.406 OA
BRANCH   8   9
ATOM      9  C   LIG    1        4.756   1.341  -0.036  0.00  0.00    +0.575 C 
ATOM     10  F   LIG    1        4.810   0.528   1.101  0.00  0.00    -0.133 F 
ATOM     11  F   LIG    1        5.855   2.207  -0.043  0.00  0.00    -0.133 F 
ATOM     12  F   LIG    1        4.787   0.540  -1.183  0.00  0.00    -0.133 F 
ENDBRANCH   8   9
ENDBRANCH   4   8
ENDBRANCH   1   7
BRANCH   1  13
ATOM     13  N   LIG    1       -1.727  -1.016  -1.368  0.00  0.00    -0.311 N 
ATOM     14  H   LIG    1       -1.192  -0.690  -2.108  0.00  0.00    +0.149 HD
ATOM     15  C   LIG    1       -2.868  -1.692  -1.606  0.00  0.00    +0.214 C 
ATOM     16  O   LIG    1       -3.537  -2.099  -0.680  0.00  0.00    -0.276 OA
BRANCH  15  17
ATOM     17  C   LIG    1       -3.314  -1.941  -3.024  0.00  0.00    +0.056 C 
ATOM     18  C   LIG    1       -3.596  -0.601  -3.741  0.00  0.00    -0.008 C 
ATOM     19  C   LIG    1       -4.857  -0.918  -4.585  0.00  0.00    -0.082 C 
ATOM     20  N   LIG    1       -5.643  -1.812  -3.697  0.00  0.00    +0.380 N 
ATOM     21  H   LIG    1       -6.291  -2.361  -4.242  0.00  0.00    -0.086 HD
ATOM     22  H   LIG    1       -6.140  -1.269  -3.007  0.00  0.00    -0.086 HD
ATOM     23  C   LIG    1       -4.656  -2.697  -3.038  0.00  0.00    -0.070 C 
ENDBRANCH  15  17
ENDBRANCH   1  13
TORSDOF 5
