REMARK  Name = ZINC15834300
REMARK                            x       y       z     vdW  Elec       q    Type
REMARK                         _______ _______ _______ _____ _____    ______ ____
ROOT
ATOM      1  C   LIG    1       -1.364  -0.743   0.045  0.00  0.00    +0.150 C 
ATOM      2  C   LIG    1       -0.099   0.064  -0.146  0.00  0.00    +0.073 A 
ATOM      3  C   LIG    1        1.159  -0.348  -0.211  0.00  0.00    +0.082 A 
ATOM      4  C   LIG    1        1.996   0.869  -0.370  0.00  0.00    +0.089 A 
ATOM      5  C   LIG    1        3.452   0.728  -0.466  0.00  0.00    +0.266 A 
ATOM      6  N   LIG    1        3.921  -0.545  -0.399  0.00  0.00    -0.263 N 
ATOM      7  C   LIG    1        5.368  -0.753  -0.487  0.00  0.00    +0.157 C 
ATOM      8  C   LIG    1        3.137  -1.618  -0.256  0.00  0.00    +0.332 A 
ATOM      9  O   LIG    1        3.684  -2.704  -0.209  0.00  0.00    -0.246 OA
ATOM     10  O   LIG    1        4.191   1.686  -0.597  0.00  0.00    -0.267 OA
ATOM     11  C   LIG    1        1.133   1.937  -0.392  0.00  0.00    +0.069 A 
ATOM     12  N   LIG    1        1.790  -1.600  -0.160  0.00  0.00    -0.294 N 
ATOM     13  C   LIG    1        1.019  -2.836  -0.007  0.00  0.00    +0.154 C 
ATOM     14  N   LIG    1       -0.129   1.446  -0.266  0.00  0.00    -0.306 N 
ATOM     15  C   LIG    1       -1.343   2.148  -0.266  0.00  0.00    +0.068 A 
ATOM     16  C   LIG    1       -1.383   3.525  -0.152  0.00  0.00    +0.028 A 
ATOM     17  C   LIG    1       -2.603   4.177  -0.131  0.00  0.00    +0.002 A 
ATOM     18  C   LIG    1       -3.779   3.455  -0.223  0.00  0.00    +0.002 A 
ATOM     19  C   LIG    1       -3.746   2.078  -0.347  0.00  0.00    +0.025 A 
ATOM     20  C   LIG    1       -2.529   1.415  -0.379  0.00  0.00    +0.052 A 
ATOM     21  N   LIG    1       -2.481   0.025  -0.526  0.00  0.00    -0.330 N 
ATOM     22  H   LIG    1       -3.188  -0.434  -1.007  0.00  0.00    +0.147 HD
ENDROOT
BRANCH   1  28
ATOM     23  C   LIG    1       -2.367   1.051   4.608  0.00  0.00    +0.044 C 
ATOM     24  C   LIG    1       -2.084  -0.116   3.698  0.00  0.00    -0.050 A 
ATOM     25  C   LIG    1       -2.044  -1.399   4.211  0.00  0.00    +0.003 A 
ATOM     26  C   LIG    1       -1.784  -2.470   3.376  0.00  0.00    +0.001 A 
ATOM     27  C   LIG    1       -1.564  -2.257   2.028  0.00  0.00    +0.006 A 
ATOM     28  C   LIG    1       -1.604  -0.975   1.515  0.00  0.00    -0.021 A 
ATOM     29  C   LIG    1       -1.859   0.097   2.351  0.00  0.00    +0.009 A 
ENDBRANCH   1  28
BRANCH  11  30
ATOM     30  C   LIG    1        1.508   3.358  -0.526  0.00  0.00    +0.003 A 
ATOM     31  C   LIG    1        1.769   4.125   0.611  0.00  0.00    +0.010 A 
ATOM     32  C   LIG    1        2.119   5.453   0.477  0.00  0.00    +0.001 A 
ATOM     33  C   LIG    1        2.210   6.025  -0.779  0.00  0.00    +0.000 A 
ATOM     34  C   LIG    1        1.952   5.270  -1.910  0.00  0.00    +0.004 A 
ATOM     35  C   LIG    1        1.608   3.940  -1.792  0.00  0.00    -0.041 A 
ATOM     36  C   LIG    1        1.334   3.118  -3.025  0.00  0.00    +0.044 C 
ENDBRANCH  11  30
TORSDOF 2
