REMARK  Name = ZINC22459431
REMARK                            x       y       z     vdW  Elec       q    Type
REMARK                         _______ _______ _______ _____ _____    ______ ____
ROOT
ATOM      1  C   LIG    1       -0.632  -4.009   1.196  0.00  0.00    +0.092 C 
ATOM      2  C   LIG    1        0.295  -4.447   2.284  0.00  0.00    +0.060 C 
ATOM      3  C   LIG    1        0.637  -5.898   2.202  0.00  0.00    -0.032 A 
ATOM      4  C   LIG    1        1.872  -6.279   1.690  0.00  0.00    +0.005 A 
ATOM      5  C   LIG    1        2.182  -7.621   1.579  0.00  0.00    +0.000 A 
ATOM      6  C   LIG    1        1.271  -8.587   1.968  0.00  0.00    +0.001 A 
ATOM      7  C   LIG    1        0.047  -8.208   2.489  0.00  0.00    +0.015 A 
ATOM      8  C   LIG    1       -0.244  -6.854   2.614  0.00  0.00    +0.016 A 
ATOM      9  S   LIG    1       -1.749  -6.332   3.357  0.00  0.00    -0.089 S 
ATOM     10  C   LIG    1       -2.613  -5.416   2.133  0.00  0.00    +0.017 A 
ATOM     11  C   LIG    1       -3.987  -5.710   2.029  0.00  0.00    +0.016 A 
ATOM     12  C   LIG    1       -4.803  -5.065   1.143  0.00  0.00    +0.020 A 
ATOM     13  C   LIG    1       -4.255  -4.079   0.316  0.00  0.00    +0.052 A 
ATOM     14  C   LIG    1       -2.900  -3.796   0.409  0.00  0.00    +0.025 A 
ATOM     15  C   LIG    1       -2.060  -4.464   1.306  0.00  0.00    -0.015 A 
ENDROOT
BRANCH   1  21
ATOM     16  C   LIG    1        0.221   1.515   1.906  0.00  0.00    -0.096 C 
ATOM     17  N   LIG    1        0.252   0.049   1.985  0.00  0.00    +0.379 N 
ATOM     18  H   LIG    1        0.917  -0.236   2.688  0.00  0.00    -0.082 HD
ATOM     19  C   LIG    1        0.648  -0.504   0.684  0.00  0.00    -0.064 C 
ATOM     20  C   LIG    1        0.699  -2.031   0.771  0.00  0.00    +0.066 C 
ATOM     21  N   LIG    1       -0.624  -2.541   1.156  0.00  0.00    -0.299 NA
ATOM     22  C   LIG    1       -1.046  -1.977   2.446  0.00  0.00    +0.066 C 
ATOM     23  C   LIG    1       -1.082  -0.450   2.345  0.00  0.00    -0.064 C 
ENDBRANCH   1  21
BRANCH  13  24
ATOM     24  C   LIG    1       -5.082  -3.371  -0.614  0.00  0.00    +0.099 C 
ATOM     25  N   LIG    1       -5.739  -2.809  -1.352  0.00  0.00    -0.191 NA
ENDBRANCH  13  24
TORSDOF 2
