REMARK  Name = ZINC38145309
REMARK                            x       y       z     vdW  Elec       q    Type
REMARK                         _______ _______ _______ _____ _____    ______ ____
ROOT
ATOM      1  C   LIG    1       -1.110   2.019  -0.998  0.00  0.00    +0.114 C 
ATOM      2  C   LIG    1        0.414   2.078  -0.878  0.00  0.00    +0.114 C 
ATOM      3  C   LIG    1       -0.379   1.062  -0.054  0.00  0.00    +0.014 C 
ENDROOT
BRANCH   1   4
ATOM      4  C   LIG    1       -1.900   3.141  -0.376  0.00  0.00    +0.309 C 
ATOM      5  O   LIG    1       -2.034   4.196  -0.972  0.00  0.00    -0.251 OA
BRANCH   4   6
ATOM      6  O   LIG    1       -2.406   2.994   0.724  0.00  0.00    -0.480 OA
ATOM      7  H   LIG    1       -2.303   2.183   1.182  0.00  0.00    +0.295 HD
ENDBRANCH   4   6
ENDBRANCH   1   4
BRANCH   2   8
ATOM      8  C   LIG    1        1.224   1.554  -2.037  0.00  0.00    +0.309 C 
ATOM      9  O   LIG    1        0.772   1.605  -3.168  0.00  0.00    -0.251 OA
BRANCH   8  10
ATOM     10  O   LIG    1        2.330   1.080  -1.843  0.00  0.00    -0.480 OA
ATOM     11  H   LIG    1        2.677   1.041  -0.973  0.00  0.00    +0.295 HD
ENDBRANCH   8  10
ENDBRANCH   2   8
BRANCH   3  12
ATOM     12  CA  LIG    1       -0.290  -0.408  -0.469  0.00  0.00    +0.040 C 
BRANCH  12  13
ATOM     13  N   LIG    1       -1.637  -0.994  -0.488  0.00  0.00    +0.387 N 
ATOM     14  H1  LIG    1       -2.046  -0.928   0.433  0.00  0.00    -0.089 HD
ATOM     15  H2  LIG    1       -1.579  -1.963  -0.761  0.00  0.00    -0.089 HD
ATOM     16  H3  LIG    1       -2.213  -0.492  -1.147  0.00  0.00    -0.089 HD
ENDBRANCH  12  13
BRANCH  12  17
ATOM     17  C   LIG    1        0.569  -1.157   0.516  0.00  0.00    +0.290 C 
ATOM     18  O   LIG    1        0.052  -1.881   1.350  0.00  0.00    -0.253 OA
BRANCH  17  19
ATOM     19  OXT LIG    1        1.782  -1.040   0.479  0.00  0.00    -0.482 OA
ATOM     20  HXT LIG    1        2.180  -0.484  -0.162  0.00  0.00    +0.295 HD
ENDBRANCH  17  19
ENDBRANCH  12  17
ENDBRANCH   3  12
TORSDOF 8
