REMARK  Name = ZINC27652137
REMARK                            x       y       z     vdW  Elec       q    Type
REMARK                         _______ _______ _______ _____ _____    ______ ____
ROOT
ATOM      1  C   LIG    1       -1.925  -0.395   1.140  0.00  0.00    -0.011 C 
ATOM      2  C   LIG    1       -0.427  -0.535   1.421  0.00  0.00    -0.041 C 
ENDROOT
BRANCH   2   3
ATOM      3  N   LIG    1       -0.059  -1.957   1.417  0.00  0.00    +0.386 N 
ATOM      4  H   LIG    1        0.862  -2.096   0.831  0.00  0.00    -0.085 HD
ATOM      5  H   LIG    1       -0.872  -2.545   0.967  0.00  0.00    -0.085 HD
BRANCH   3   6
ATOM      6  C   LIG    1        0.174  -2.444   2.784  0.00  0.00    -0.076 C 
ATOM      7  C   LIG    1        1.378  -1.716   3.386  0.00  0.00    -0.011 C 
ATOM      8  C   LIG    1        0.453  -3.948   2.749  0.00  0.00    -0.011 C 
ATOM      9  C   LIG    1       -1.065  -2.174   3.639  0.00  0.00    -0.011 C 
ENDBRANCH   3   6
ENDBRANCH   2   3
BRANCH   2  10
ATOM     10  C   LIG    1        0.366   0.200   0.338  0.00  0.00    +0.130 C 
BRANCH  10  11
ATOM     11  C   LIG    1        0.081   1.677   0.422  0.00  0.00    -0.021 A 
ATOM     12  C   LIG    1       -1.077   2.190  -0.133  0.00  0.00    +0.006 A 
ATOM     13  C   LIG    1       -1.341   3.545  -0.053  0.00  0.00    +0.000 A 
ATOM     14  C   LIG    1       -0.442   4.388   0.575  0.00  0.00    +0.000 A 
ATOM     15  C   LIG    1        0.718   3.875   1.126  0.00  0.00    +0.000 A 
ATOM     16  C   LIG    1        0.979   2.520   1.049  0.00  0.00    +0.006 A 
ENDBRANCH  10  11
BRANCH  10  17
ATOM     17  O   LIG    1       -0.021  -0.288  -0.949  0.00  0.00    -0.389 OA
ATOM     18  H   LIG    1        0.445   0.125  -1.856  0.00  0.00    +0.210 HD
ENDBRANCH  10  17
ENDBRANCH   2  10
TORSDOF 5
