REMARK  Name = ZINC13813276
REMARK                            x       y       z     vdW  Elec       q    Type
REMARK                         _______ _______ _______ _____ _____    ______ ____
ROOT
ATOM      1  C   LIG    1       -5.834  -1.544   0.050  0.00  0.00    +0.033 C 
ATOM      2  C   LIG    1       -6.179  -2.238  -1.275  0.00  0.00    -0.065 C 
ATOM      3  N   LIG    1       -5.703  -3.611  -1.182  0.00  0.00    +0.385 N 
ATOM      4  H   LIG    1       -4.769  -3.624  -0.800  0.00  0.00    -0.081 HD
ATOM      5  C   LIG    1       -5.753  -4.407  -2.415  0.00  0.00    -0.078 C 
ATOM      6  C   LIG    1       -5.691  -5.871  -1.896  0.00  0.00    -0.020 C 
ATOM      7  C   LIG    1       -6.230  -5.800  -0.442  0.00  0.00    -0.013 C 
ATOM      8  C   LIG    1       -6.630  -4.335  -0.272  0.00  0.00    -0.037 C 
ATOM      9  C   LIG    1       -6.463  -3.767   1.098  0.00  0.00    -0.057 A 
ATOM     10  C   LIG    1       -6.672  -4.550   2.216  0.00  0.00    +0.002 A 
ATOM     11  C   LIG    1       -6.529  -4.016   3.478  0.00  0.00    +0.000 A 
ATOM     12  C   LIG    1       -6.177  -2.687   3.623  0.00  0.00    +0.000 A 
ATOM     13  C   LIG    1       -5.962  -1.904   2.507  0.00  0.00    +0.004 A 
ATOM     14  C   LIG    1       -6.096  -2.438   1.234  0.00  0.00    -0.040 A 
ENDROOT
BRANCH   1  18
ATOM     15  C   LIG    1       -1.702  -0.454   0.016  0.00  0.00    +0.008 A 
ATOM     16  C   LIG    1       -2.677   0.505  -0.233  0.00  0.00    +0.015 A 
ATOM     17  C   LIG    1       -4.011   0.149  -0.221  0.00  0.00    +0.005 A 
ATOM     18  C   LIG    1       -4.377  -1.159   0.038  0.00  0.00    -0.042 A 
ATOM     19  C   LIG    1       -3.409  -2.116   0.286  0.00  0.00    +0.005 A 
ATOM     20  C   LIG    1       -2.073  -1.768   0.270  0.00  0.00    +0.015 A 
BRANCH  15  22
ATOM     21  C   LIG    1       -0.016   1.772  -0.365  0.00  0.00    +0.090 C 
ATOM     22  S   LIG    1        0.002  -0.004   0.002  0.00  0.00    -0.129 S 
ENDBRANCH  15  22
ENDBRANCH   1  18
TORSDOF 2
