REMARK  Name = ZINC16470547
REMARK                            x       y       z     vdW  Elec       q    Type
REMARK                         _______ _______ _______ _____ _____    ______ ____
ROOT
ATOM      1  N   LIG    1        1.141   5.411   1.686  0.00  0.00    -0.284 N 
ATOM      2  H   LIG    1        1.177   6.045   0.953  0.00  0.00    +0.155 HD
ATOM      3  C   LIG    1        1.188   4.088   1.435  0.00  0.00    +0.222 C 
ATOM      4  O   LIG    1        1.216   3.297   2.354  0.00  0.00    -0.275 OA
ENDROOT
BRANCH   1   6
ATOM      5  C   LIG    1        0.333   7.026   3.320  0.00  0.00    +0.117 A 
ATOM      6  C   LIG    1        1.042   5.869   3.000  0.00  0.00    +0.055 A 
ATOM      7  C   LIG    1        1.635   5.196   4.048  0.00  0.00    +0.032 A 
ATOM      8  C   LIG    1        1.512   5.687   5.306  0.00  0.00    +0.048 A 
ATOM      9  S   LIG    1        0.547   7.110   5.089  0.00  0.00    -0.088 S 
BRANCH   5  10
ATOM     10  C   LIG    1       -0.372   7.905   2.465  0.00  0.00    +0.347 C 
ATOM     11  O   LIG    1       -0.411   7.688   1.268  0.00  0.00    -0.244 OA
BRANCH  10  13
ATOM     12  C   LIG    1       -1.694   9.829   2.054  0.00  0.00    +0.280 C 
ATOM     13  O   LIG    1       -1.001   8.985   2.976  0.00  0.00    -0.464 OA
ENDBRANCH  10  13
ENDBRANCH   5  10
ENDBRANCH   1   6
BRANCH   3  14
ATOM     14  C   LIG    1        1.204   3.591   0.013  0.00  0.00    +0.131 C 
BRANCH  14  15
ATOM     15  C   LIG    1        1.257   2.085   0.008  0.00  0.00    -0.039 A 
ATOM     16  C   LIG    1        0.085   1.352   0.006  0.00  0.00    +0.004 A 
ATOM     17  C   LIG    1        0.134  -0.030   0.001  0.00  0.00    +0.012 A 
ATOM     18  C   LIG    1        1.354  -0.678  -0.004  0.00  0.00    +0.055 A 
ATOM     19  C   LIG    1        2.526   0.054  -0.002  0.00  0.00    +0.012 A 
ATOM     20  C   LIG    1        2.478   1.436   0.004  0.00  0.00    +0.004 A 
BRANCH  18  21
ATOM     21  C   LIG    1        1.407  -2.184  -0.009  0.00  0.00    +0.417 C 
ATOM     22  F   LIG    1        0.283  -2.693   0.650  0.00  0.00    -0.166 F 
ATOM     23  F   LIG    1        2.566  -2.613   0.647  0.00  0.00    -0.166 F 
ATOM     24  F   LIG    1        1.422  -2.646  -1.330  0.00  0.00    -0.166 F 
ENDBRANCH  18  21
ENDBRANCH  14  15
ENDBRANCH   3  14
TORSDOF 6
