REMARK  Name = ZINC13759806
REMARK                            x       y       z     vdW  Elec       q    Type
REMARK                         _______ _______ _______ _____ _____    ______ ____
ROOT
ATOM      1  C   LIG    1        1.159   3.166   0.008  0.00  0.00    +0.045 A 
ATOM      2  C   LIG    1       -0.049   3.831   0.027  0.00  0.00    +0.007 A 
ATOM      3  C   LIG    1       -1.245   3.125   0.036  0.00  0.00    -0.044 A 
ATOM      4  C   LIG    1       -1.227   1.748   0.017  0.00  0.00    -0.042 A 
ATOM      5  C   LIG    1       -2.486   0.921   0.016  0.00  0.00    +0.019 C 
ATOM      6  C   LIG    1       -3.681   1.758   0.465  0.00  0.00    -0.071 C 
ATOM      7  C   LIG    1       -3.706   3.048  -0.364  0.00  0.00    -0.011 C 
ATOM      8  C   LIG    1       -0.013   1.076   0.008  0.00  0.00    +0.049 A 
ATOM      9  C   LIG    1       -2.526   3.918   0.064  0.00  0.00    +0.034 C 
ATOM     10  C   LIG    1        1.180   1.779   0.000  0.00  0.00    +0.117 A 
ENDROOT
BRANCH   6  11
ATOM     11  N   LIG    1       -4.922   1.001   0.221  0.00  0.00    +0.380 N 
ATOM     12  H   LIG    1       -4.972   0.747  -0.773  0.00  0.00    -0.090 HD
ATOM     13  H   LIG    1       -5.731   1.571   0.459  0.00  0.00    -0.090 HD
ATOM     14  H   LIG    1       -4.928   0.151   0.782  0.00  0.00    -0.090 HD
ENDBRANCH   6  11
BRANCH  10  15
ATOM     15  O   LIG    1        2.365   1.114  -0.014  0.00  0.00    -0.507 OA
ATOM     16  H   LIG    1        2.700   0.926  -0.902  0.00  0.00    +0.292 HD
ENDBRANCH  10  15
TORSDOF 2
