REMARK  Name = ZINC16994086
REMARK                            x       y       z     vdW  Elec       q    Type
REMARK                         _______ _______ _______ _____ _____    ______ ____
ROOT
ATOM      1  N   LIG    1        3.562   2.111  -0.021  0.00  0.00    -0.226 NA
ATOM      2  C   LIG    1        3.707   3.144  -0.823  0.00  0.00    +0.166 C 
ATOM      3  N   LIG    1        2.798   3.671  -1.713  0.00  0.00    -0.260 N 
ATOM      4  H   LIG    1        1.921   3.266  -1.801  0.00  0.00    +0.157 HD
ATOM      5  C   LIG    1        3.110   4.724  -2.450  0.00  0.00    +0.256 C 
ATOM      6  O   LIG    1        2.318   5.202  -3.242  0.00  0.00    -0.269 OA
ATOM      7  C   LIG    1        4.454   5.292  -2.270  0.00  0.00    +0.078 C 
ATOM      8  C   LIG    1        5.031   6.361  -2.889  0.00  0.00    +0.035 C 
ATOM      9  S   LIG    1        5.126   4.210  -1.017  0.00  0.00    -0.049 S 
ENDROOT
BRANCH   1  12
ATOM     10  C   LIG    1       -0.017   1.378   0.010  0.00  0.00    +0.006 A 
ATOM     11  C   LIG    1        1.166   2.089   0.002  0.00  0.00    +0.028 A 
ATOM     12  C   LIG    1        2.387   1.411  -0.013  0.00  0.00    +0.070 A 
ATOM     13  C   LIG    1        2.404   0.014  -0.021  0.00  0.00    +0.073 A 
ATOM     14  C   LIG    1        1.211  -0.688  -0.013  0.00  0.00    +0.119 A 
ATOM     15  C   LIG    1        0.002  -0.004   0.002  0.00  0.00    +0.045 A 
BRANCH  14  16
ATOM     16  O   LIG    1        1.223  -2.046  -0.021  0.00  0.00    -0.507 OA
ATOM     17  H   LIG    1        1.235  -2.445   0.860  0.00  0.00    +0.292 HD
ENDBRANCH  14  16
ENDBRANCH   1  12
BRANCH   8  18
ATOM     18  C   LIG    1        6.354   6.740  -2.560  0.00  0.00    +0.013 A 
ATOM     19  C   LIG    1        7.117   7.788  -3.064  0.00  0.00    +0.015 A 
ATOM     20  C   LIG    1        8.384   7.905  -2.543  0.00  0.00    +0.008 A 
ATOM     21  C   LIG    1        8.794   7.020  -1.602  0.00  0.00    +0.046 A 
ATOM     22  S   LIG    1        7.475   6.002  -1.387  0.00  0.00    -0.097 S 
ENDBRANCH   8  18
TORSDOF 3
