REMARK  Name = ZINC39716195
REMARK                            x       y       z     vdW  Elec       q    Type
REMARK                         _______ _______ _______ _____ _____    ______ ____
ROOT
ATOM      1  C   LIG    1       -0.097  -2.650   2.577  0.00  0.00    +0.092 A 
ATOM      2  C   LIG    1       -0.050  -2.158   3.845  0.00  0.00    +0.075 A 
ATOM      3  N   LIG    1        0.099  -3.231   4.709  0.00  0.00    -0.325 N 
ATOM      4  H   LIG    1        0.161  -3.180   5.675  0.00  0.00    +0.169 HD
ATOM      5  C   LIG    1        0.142  -4.367   3.966  0.00  0.00    +0.198 A 
ATOM      6  N   LIG    1        0.278  -5.605   4.442  0.00  0.00    -0.151 NA
ATOM      7  N   LIG    1        0.018  -4.029   2.657  0.00  0.00    -0.324 N 
ATOM      8  H   LIG    1        0.012  -4.646   1.908  0.00  0.00    +0.169 HD
ENDROOT
BRANCH   2   9
ATOM      9  C   LIG    1       -0.141  -0.736   4.231  0.00  0.00    +0.003 A 
ATOM     10  C   LIG    1       -1.242   0.034   3.809  0.00  0.00    +0.012 A 
ATOM     11  C   LIG    1       -1.347   1.342   4.151  0.00  0.00    +0.030 A 
ATOM     12  C   LIG    1       -0.349   1.948   4.938  0.00  0.00    +0.089 A 
ATOM     13  C   LIG    1        0.765   1.183   5.371  0.00  0.00    +0.090 A 
ATOM     14  N   LIG    1        1.712   1.760   6.120  0.00  0.00    -0.252 NA
ATOM     15  C   LIG    1        1.601   3.028   6.446  0.00  0.00    +0.131 A 
ATOM     16  C   LIG    1        0.505   3.780   6.021  0.00  0.00    +0.131 A 
ATOM     17  N   LIG    1       -0.438   3.236   5.285  0.00  0.00    -0.252 NA
ATOM     18  C   LIG    1        0.854  -0.170   5.012  0.00  0.00    +0.040 A 
ENDBRANCH   2   9
BRANCH   1  25
ATOM     19  C   LIG    1       -0.420   1.712   0.454  0.00  0.00    +0.068 C 
ATOM     20  C   LIG    1       -0.403   0.211   0.327  0.00  0.00    +0.074 A 
ATOM     21  C   LIG    1       -0.528  -0.370  -0.925  0.00  0.00    +0.144 A 
ATOM     22  F   LIG    1       -0.665   0.402  -2.025  0.00  0.00    -0.204 F 
ATOM     23  C   LIG    1       -0.511  -1.756  -1.038  0.00  0.00    +0.042 A 
ATOM     24  C   LIG    1       -0.369  -2.511   0.112  0.00  0.00    +0.033 A 
ATOM     25  C   LIG    1       -0.248  -1.859   1.341  0.00  0.00    +0.090 A 
ATOM     26  N   LIG    1       -0.264  -0.531   1.406  0.00  0.00    -0.247 NA
ENDBRANCH   1  25
BRANCH   6  27
ATOM     27  C   LIG    1        0.444  -6.623   3.606  0.00  0.00    +0.176 C 
ATOM     28  O   LIG    1        0.569  -6.417   2.414  0.00  0.00    -0.497 OA
ATOM     29  H   LIG    1        1.310  -5.837   2.191  0.00  0.00    +0.293 HD
ATOM     30  C   LIG    1        0.477  -8.034   4.135  0.00  0.00    +0.106 C 
ENDBRANCH   6  27
TORSDOF 3
