REMARK  Name = ZINC19167423
REMARK                            x       y       z     vdW  Elec       q    Type
REMARK                         _______ _______ _______ _____ _____    ______ ____
ROOT
ATOM      1  C   LIG    1       -2.479   0.930   0.019  0.00  0.00    -0.049 C 
ENDROOT
BRANCH   1   2
ATOM      2  N   LIG    1       -3.761   1.647   0.029  0.00  0.00    +0.386 N 
ATOM      3  H   LIG    1       -3.832   2.283  -0.866  0.00  0.00    -0.061 HD
ATOM      4  H   LIG    1       -3.823   2.274   0.931  0.00  0.00    -0.061 HD
BRANCH   2   5
ATOM      5  N   LIG    1       -4.878   0.717   0.029  0.00  0.00    -0.381 NA
ATOM      6  H   LIG    1       -4.823   0.085  -0.756  0.00  0.00    +0.098 HD
ATOM      7  H   LIG    1       -5.759   1.209   0.036  0.00  0.00    +0.098 HD
ENDBRANCH   2   5
ENDBRANCH   1   2
BRANCH   1   8
ATOM      8  C   LIG    1       -1.329   1.940   0.019  0.00  0.00    +0.104 C 
BRANCH   8   9
ATOM      9  C   LIG    1       -0.014   1.204   0.009  0.00  0.00    +0.303 C 
ATOM     10  O   LIG    1        0.002  -0.004   0.002  0.00  0.00    -0.251 OA
BRANCH   9  11
ATOM     11  O   LIG    1        1.139   1.891   0.001  0.00  0.00    -0.481 OA
ATOM     12  H   LIG    1        1.126   2.828   0.006  0.00  0.00    +0.295 HD
ENDBRANCH   9  11
ENDBRANCH   8   9
ENDBRANCH   1   8
TORSDOF 5
