REMARK  Name = ZINC16346984
REMARK                            x       y       z     vdW  Elec       q    Type
REMARK                         _______ _______ _______ _____ _____    ______ ____
ROOT
ATOM      1  C   LIG    1       -0.000   1.348   0.266  0.00  0.00    +0.045 A 
ATOM      2  C   LIG    1        1.200   2.049   0.257  0.00  0.00    +0.032 A 
ATOM      3  C   LIG    1        2.399   1.386  -0.020  0.00  0.00    +0.047 A 
ATOM      4  N   LIG    1        3.453   2.294   0.028  0.00  0.00    -0.279 N 
ATOM      5  H   LIG    1        4.381   2.062  -0.132  0.00  0.00    +0.155 HD
ATOM      6  C   LIG    1        3.023   3.533   0.325  0.00  0.00    +0.270 C 
ATOM      7  O   LIG    1        3.716   4.525   0.434  0.00  0.00    -0.268 OA
ATOM      8  C   LIG    1        2.383   0.015  -0.287  0.00  0.00    -0.020 A 
ATOM      9  C   LIG    1        1.192  -0.673  -0.271  0.00  0.00    -0.012 A 
ATOM     10  C   LIG    1        1.110  -2.155  -0.535  0.00  0.00    +0.038 C 
ATOM     11  C   LIG    1        2.377  -2.647  -1.231  0.00  0.00    +0.005 C 
ATOM     12  C   LIG    1        3.590  -2.164  -0.426  0.00  0.00    +0.005 C 
ATOM     13  C   LIG    1        3.701  -0.649  -0.588  0.00  0.00    +0.037 C 
ATOM     14  C   LIG    1        1.548   3.470   0.494  0.00  0.00    +0.173 C 
ATOM     15  N   LIG    1        0.740   4.449   0.786  0.00  0.00    -0.082 NA
ATOM     16  C   LIG    1        0.002  -0.004   0.002  0.00  0.00    +0.126 A 
ENDROOT
BRANCH  15  17
ATOM     17  O   LIG    1        1.251   5.755   0.980  0.00  0.00    -0.409 OA
ATOM     18  H   LIG    1        0.575   6.414   1.192  0.00  0.00    +0.328 HD
ENDBRANCH  15  17
BRANCH  16  19
ATOM     19  N   LIG    1       -1.274  -0.754   0.010  0.00  0.00    +0.006 N 
ATOM     20  O   LIG    1       -2.280  -0.239  -0.420  0.00  0.00    -0.130 OA
BRANCH  19  21
ATOM     21  O   LIG    1       -1.310  -1.881   0.447  0.00  0.00    -0.396 OA
ATOM     22  H   LIG    1       -0.531  -2.279   0.780  0.00  0.00    +0.329 HD
ENDBRANCH  19  21
ENDBRANCH  16  19
TORSDOF 3
