REMARK  Name = ZINC44460355
REMARK                            x       y       z     vdW  Elec       q    Type
REMARK                         _______ _______ _______ _____ _____    ______ ____
ROOT
ATOM      1  N   LIG    1       -1.207  -0.723   0.079  0.00  0.00    -0.284 N 
ATOM      2  H   LIG    1       -2.052  -0.254   0.166  0.00  0.00    +0.155 HD
ENDROOT
BRANCH   1   8
ATOM      3  C   LIG    1        1.071  -0.452  -0.676  0.00  0.00    +0.025 A 
ATOM      4  C   LIG    1        2.255   0.257  -0.675  0.00  0.00    +0.029 A 
ATOM      5  C   LIG    1        2.371   1.415   0.082  0.00  0.00    +0.067 A 
ATOM      6  C   LIG    1        1.295   1.861   0.838  0.00  0.00    +0.029 A 
ATOM      7  C   LIG    1        0.110   1.154   0.837  0.00  0.00    +0.025 A 
ATOM      8  C   LIG    1       -0.006  -0.005   0.080  0.00  0.00    +0.034 A 
BRANCH   5   9
ATOM      9  N   LIG    1        3.575   2.134   0.083  0.00  0.00    -0.218 N 
ATOM     10  C   LIG    1        4.663   1.885  -0.669  0.00  0.00    +0.227 A 
ATOM     11  N   LIG    1        5.575   2.778  -0.377  0.00  0.00    -0.202 NA
ATOM     12  C   LIG    1        5.107   3.613   0.556  0.00  0.00    +0.237 A 
ATOM     13  N   LIG    1        3.881   3.260   0.864  0.00  0.00    -0.129 NA
BRANCH  12  14
ATOM     14  N   LIG    1        5.806   4.688   1.108  0.00  0.00    -0.294 N 
ATOM     15  C   LIG    1        5.193   5.542   2.138  0.00  0.00    +0.136 C 
ATOM     16  C   LIG    1        6.168   5.655   3.315  0.00  0.00    +0.179 C 
ATOM     17  O   LIG    1        7.447   6.067   2.828  0.00  0.00    -0.377 OA
ATOM     18  C   LIG    1        8.056   5.141   1.926  0.00  0.00    +0.179 C 
ATOM     19  C   LIG    1        7.180   4.997   0.681  0.00  0.00    +0.136 C 
ENDBRANCH  12  14
ENDBRANCH   5   9
ENDBRANCH   1   8
BRANCH   1  20
ATOM     20  C   LIG    1       -1.190  -2.102  -0.047  0.00  0.00    +0.220 A 
ATOM     21  N   LIG    1       -0.025  -2.735  -0.054  0.00  0.00    -0.223 NA
ATOM     22  C   LIG    1        0.033  -4.052  -0.173  0.00  0.00    +0.116 A 
ATOM     23  C   LIG    1       -1.141  -4.774  -0.290  0.00  0.00    +0.048 A 
ATOM     24  C   LIG    1       -2.354  -4.080  -0.279  0.00  0.00    +0.076 A 
ATOM     25  N   LIG    1       -2.337  -2.755  -0.151  0.00  0.00    -0.214 NA
BRANCH  24  26
ATOM     26  C   LIG    1       -3.640  -4.808  -0.402  0.00  0.00    +0.005 A 
ATOM     27  C   LIG    1       -4.836  -4.100  -0.500  0.00  0.00    +0.033 A 
ATOM     28  C   LIG    1       -6.036  -4.786  -0.616  0.00  0.00    +0.033 A 
ATOM     29  C   LIG    1       -6.043  -6.176  -0.633  0.00  0.00    +0.061 A 
ATOM     30  C   LIG    1       -4.855  -6.878  -0.535  0.00  0.00    +0.126 A 
ATOM     31  F   LIG    1       -4.868  -8.229  -0.551  0.00  0.00    -0.205 F 
ATOM     32  C   LIG    1       -3.654  -6.201  -0.425  0.00  0.00    +0.048 A 
BRANCH  28  33
ATOM     33  N   LIG    1       -7.237  -4.080  -0.714  0.00  0.00    -0.325 N 
ATOM     34  C   LIG    1       -7.246  -2.613  -0.828  0.00  0.00    +0.133 C 
ATOM     35  C   LIG    1       -8.132  -2.226  -2.018  0.00  0.00    +0.178 C 
ATOM     36  O   LIG    1       -9.406  -2.860  -1.882  0.00  0.00    -0.377 OA
ATOM     37  C   LIG    1       -9.354  -4.289  -1.903  0.00  0.00    +0.178 C 
ATOM     38  C   LIG    1       -8.530  -4.782  -0.713  0.00  0.00    +0.133 C 
ENDBRANCH  28  33
ENDBRANCH  24  26
ENDBRANCH   1  20
TORSDOF 6
