REMARK  Name = ZINC14676741
REMARK                            x       y       z     vdW  Elec       q    Type
REMARK                         _______ _______ _______ _____ _____    ______ ____
ROOT
ATOM      1  C   LIG    1       -1.258  -0.758   0.011  0.00  0.00    +0.055 C 
ATOM      2  C   LIG    1       -2.392  -0.189  -0.472  0.00  0.00    +0.174 C 
ATOM      3  C   LIG    1       -3.758  -0.744  -0.447  0.00  0.00    +0.369 C 
ATOM      4  N   LIG    1       -4.545   0.168  -1.035  0.00  0.00    -0.001 NA
ATOM      5  C   LIG    1       -3.838   1.209  -1.416  0.00  0.00    +0.365 C 
ATOM      6  O   LIG    1       -4.103  -1.819   0.017  0.00  0.00    -0.245 OA
ATOM      7  N   LIG    1       -2.524   1.056  -1.098  0.00  0.00    -0.202 N 
ATOM      8  H   LIG    1       -1.812   1.690  -1.273  0.00  0.00    +0.251 HD
ENDROOT
BRANCH   1  14
ATOM      9  C   LIG    1       -0.059   1.417   0.109  0.00  0.00    +0.012 A 
ATOM     10  C   LIG    1        1.111   2.143   0.160  0.00  0.00    +0.050 A 
ATOM     11  C   LIG    1        2.337   1.491   0.166  0.00  0.00    +0.158 A 
ATOM     12  C   LIG    1        2.392   0.098   0.120  0.00  0.00    +0.159 A 
ATOM     13  C   LIG    1        1.224  -0.638   0.070  0.00  0.00    +0.057 A 
ATOM     14  C   LIG    1       -0.013   0.019   0.064  0.00  0.00    -0.018 A 
BRANCH  11  15
ATOM     15  O   LIG    1        3.487   2.212   0.215  0.00  0.00    -0.503 OA
ATOM     16  H   LIG    1        3.800   2.392   1.112  0.00  0.00    +0.292 HD
ENDBRANCH  11  15
BRANCH  12  17
ATOM     17  O   LIG    1        3.595  -0.536   0.126  0.00  0.00    -0.503 OA
ATOM     18  H   LIG    1        3.924  -0.748   1.010  0.00  0.00    +0.292 HD
ENDBRANCH  12  17
ENDBRANCH   1  14
BRANCH   5  19
ATOM     19  N   LIG    1       -4.357   2.307  -2.048  0.00  0.00    -0.253 N 
ATOM     20  H   LIG    1       -3.775   3.041  -2.302  0.00  0.00    +0.241 HD
ATOM     21  H   LIG    1       -5.306   2.352  -2.241  0.00  0.00    +0.241 HD
ENDBRANCH   5  19
TORSDOF 4
