REMARK  Name = ZINC19632618
REMARK                            x       y       z     vdW  Elec       q    Type
REMARK                         _______ _______ _______ _____ _____    ______ ____
ROOT
ATOM      1  C   LIG    1       -0.164   1.537   0.277  0.00  0.00    +0.045 C 
ATOM      2  C   LIG    1        0.071   0.128  -0.202  0.00  0.00    -0.029 A 
ATOM      3  C   LIG    1       -0.619  -0.352  -1.299  0.00  0.00    +0.007 A 
ATOM      4  C   LIG    1       -0.407  -1.643  -1.741  0.00  0.00    +0.024 A 
ATOM      5  C   LIG    1        0.502  -2.464  -1.084  0.00  0.00    +0.035 A 
ATOM      6  C   LIG    1        1.196  -1.985   0.018  0.00  0.00    +0.047 A 
ATOM      7  C   LIG    1        0.985  -0.685   0.456  0.00  0.00    +0.038 A 
ENDROOT
BRANCH   5   8
ATOM      8  N   LIG    1        0.715  -3.772  -1.532  0.00  0.00    -0.281 N 
ATOM      9  H   LIG    1        0.845  -4.488  -0.891  0.00  0.00    +0.155 HD
ATOM     10  C   LIG    1        0.740  -4.036  -2.853  0.00  0.00    +0.248 C 
ATOM     11  O   LIG    1        0.491  -3.155  -3.654  0.00  0.00    -0.270 OA
BRANCH  10  12
ATOM     12  C   LIG    1        1.071  -5.396  -3.329  0.00  0.00    +0.037 A 
ATOM     13  C   LIG    1        1.352  -6.410  -2.412  0.00  0.00    +0.013 A 
ATOM     14  C   LIG    1        1.659  -7.677  -2.863  0.00  0.00    +0.005 A 
ATOM     15  C   LIG    1        1.689  -7.944  -4.220  0.00  0.00    -0.033 A 
ATOM     16  C   LIG    1        1.412  -6.942  -5.134  0.00  0.00    +0.005 A 
ATOM     17  C   LIG    1        1.098  -5.672  -4.697  0.00  0.00    +0.013 A 
BRANCH  15  18
ATOM     18  C   LIG    1        2.026  -9.330  -4.705  0.00  0.00    +0.119 C 
BRANCH  18  19
ATOM     19  N   LIG    1        0.793 -10.120  -4.826  0.00  0.00    -0.302 NA
ATOM     20  C   LIG    1        0.187 -10.354  -3.508  0.00  0.00    +0.066 C 
ATOM     21  C   LIG    1       -1.123 -11.126  -3.682  0.00  0.00    -0.064 C 
ATOM     22  N   LIG    1       -0.851 -12.406  -4.350  0.00  0.00    +0.379 N 
ATOM     23  H   LIG    1       -0.204 -12.944  -3.794  0.00  0.00    -0.082 HD
ATOM     24  C   LIG    1       -2.106 -13.155  -4.501  0.00  0.00    -0.096 C 
ATOM     25  C   LIG    1       -0.269 -12.155  -5.675  0.00  0.00    -0.064 C 
ATOM     26  C   LIG    1        1.048 -11.392  -5.517  0.00  0.00    +0.066 C 
ENDBRANCH  18  19
ENDBRANCH  15  18
ENDBRANCH  10  12
ENDBRANCH   5   8
BRANCH   7  27
ATOM     27  N   LIG    1        1.687  -0.197   1.562  0.00  0.00    -0.283 N 
ATOM     28  H   LIG    1        1.866   0.753   1.642  0.00  0.00    +0.155 HD
BRANCH  27  29
ATOM     29  C   LIG    1        2.128  -1.069   2.543  0.00  0.00    +0.220 A 
ATOM     30  N   LIG    1        1.776  -2.346   2.478  0.00  0.00    -0.223 NA
ATOM     31  C   LIG    1        2.178  -3.211   3.395  0.00  0.00    +0.116 A 
ATOM     32  C   LIG    1        2.976  -2.771   4.436  0.00  0.00    +0.048 A 
ATOM     33  C   LIG    1        3.331  -1.421   4.479  0.00  0.00    +0.077 A 
ATOM     34  N   LIG    1        2.895  -0.609   3.518  0.00  0.00    -0.214 NA
BRANCH  33  35
ATOM     35  C   LIG    1        4.186  -0.901   5.574  0.00  0.00    +0.019 A 
ATOM     36  C   LIG    1        4.451   0.468   5.679  0.00  0.00    +0.013 A 
ATOM     37  C   LIG    1        5.254   0.903   6.719  0.00  0.00    +0.020 A 
ATOM     38  C   LIG    1        5.764  -0.022   7.613  0.00  0.00    +0.111 A 
ATOM     39  N   LIG    1        5.496  -1.308   7.488  0.00  0.00    -0.263 NA
ATOM     40  C   LIG    1        4.732  -1.768   6.518  0.00  0.00    +0.120 A 
ENDBRANCH  33  35
ENDBRANCH  27  29
ENDBRANCH   7  27
TORSDOF 7
