REMARK  Name = ZINC13781173
REMARK                            x       y       z     vdW  Elec       q    Type
REMARK                         _______ _______ _______ _____ _____    ______ ____
ROOT
ATOM      1  C   LIG    1       -0.011   1.087   2.545  0.00  0.00    +0.176 C 
ATOM      2  C   LIG    1       -0.729   1.579   1.267  0.00  0.00    +0.042 C 
ATOM      3  C   LIG    1       -0.013   1.086   0.008  0.00  0.00    +0.012 C 
ATOM      4  C   LIG    1       -0.591   3.113   1.422  0.00  0.00    +0.130 C 
ATOM      5  C   LIG    1       -0.413   3.312   2.911  0.00  0.00    +0.237 C 
ATOM      6  N   LIG    1       -0.103   2.206   3.491  0.00  0.00    -0.277 N 
ATOM      7  H   LIG    1        0.060   2.182   4.579  0.00  0.00    +0.304 HD
ENDROOT
BRANCH   5   8
ATOM      8  N   LIG    1       -0.563   4.511   3.557  0.00  0.00    -0.254 N 
ATOM      9  H   LIG    1       -0.830   5.413   2.987  0.00  0.00    +0.288 HD
ATOM     10  H   LIG    1       -0.415   4.572   4.645  0.00  0.00    +0.288 HD
ENDBRANCH   5   8
BRANCH   1  11
ATOM     11  C   LIG    1       -0.717  -0.147   3.109  0.00  0.00    +0.049 C 
BRANCH  11  13
ATOM     12  C   LIG    1       -0.628  -1.925   4.862  0.00  0.00    +0.004 C 
ATOM     13  C   LIG    1        0.078  -0.691   4.298  0.00  0.00    +0.001 C 
ENDBRANCH  11  13
ENDBRANCH   1  11
TORSDOF 3
