REMARK  Name = ZINC22442744
REMARK                            x       y       z     vdW  Elec       q    Type
REMARK                         _______ _______ _______ _____ _____    ______ ____
ROOT
ATOM      1  N   LIG    1       -1.280   1.761  -1.677  0.00  0.00    -0.299 N 
ATOM      2  H   LIG    1       -1.804   1.033  -2.046  0.00  0.00    +0.150 HD
ATOM      3  C   LIG    1       -1.397   3.002  -2.190  0.00  0.00    +0.321 C 
ATOM      4  N   LIG    1       -2.243   3.231  -3.215  0.00  0.00    -0.246 N 
ATOM      5  C   LIG    1       -2.368   4.508  -3.756  0.00  0.00    +0.065 A 
ATOM      6  C   LIG    1       -2.784   5.564  -2.958  0.00  0.00    +0.027 A 
ATOM      7  C   LIG    1       -2.946   6.823  -3.502  0.00  0.00    +0.002 A 
ATOM      8  C   LIG    1       -2.696   7.039  -4.847  0.00  0.00    +0.001 A 
ATOM      9  C   LIG    1       -2.267   6.005  -5.651  0.00  0.00    +0.015 A 
ATOM     10  C   LIG    1       -2.081   4.729  -5.111  0.00  0.00    +0.063 A 
ATOM     11  C   LIG    1       -1.539   3.653  -5.949  0.00  0.00    +0.258 A 
ATOM     12  N   LIG    1       -1.895   2.378  -5.902  0.00  0.00    -0.319 N 
ATOM     13  H   LIG    1       -1.432   1.778  -6.507  0.00  0.00    +0.169 HD
ATOM     14  C   LIG    1       -2.862   1.807  -5.079  0.00  0.00    +0.085 A 
ATOM     15  C   LIG    1       -3.698   0.821  -5.592  0.00  0.00    +0.031 A 
ATOM     16  C   LIG    1       -4.609   0.222  -4.755  0.00  0.00    +0.022 A 
ATOM     17  C   LIG    1       -4.669   0.617  -3.434  0.00  0.00    +0.113 A 
ATOM     18  N   LIG    1       -3.882   1.571  -2.976  0.00  0.00    -0.235 NA
ATOM     19  O   LIG    1       -0.687   3.960  -6.760  0.00  0.00    -0.267 OA
ATOM     20  C   LIG    1       -3.003   2.189  -3.753  0.00  0.00    +0.165 A 
ATOM     21  O   LIG    1       -0.740   3.915  -1.729  0.00  0.00    -0.249 OA
ENDROOT
BRANCH   1  22
ATOM     22  C   LIG    1       -0.360   1.512  -0.564  0.00  0.00    +0.087 C 
BRANCH  22  23
ATOM     23  C   LIG    1       -0.328   0.014  -0.255  0.00  0.00    -0.059 C 
BRANCH  23  29
ATOM     24  C   LIG    1        0.745  -1.694   1.041  0.00  0.00    -0.054 C 
ATOM     25  C   LIG    1        1.857  -1.984   2.052  0.00  0.00    -0.014 C 
ATOM     26  C   LIG    1        1.564  -1.233   3.354  0.00  0.00    -0.003 C 
ATOM     27  C   LIG    1        1.431   0.262   3.051  0.00  0.00    -0.019 C 
ATOM     28  C   LIG    1        0.335   0.469   2.003  0.00  0.00    -0.078 C 
ATOM     29  N   LIG    1        0.687  -0.251   0.773  0.00  0.00    +0.383 N 
ATOM     30  H   LIG    1        1.587   0.065   0.445  0.00  0.00    -0.081 HD
BRANCH  24  31
ATOM     31  C   LIG    1        1.034  -2.442  -0.262  0.00  0.00    +0.069 C 
BRANCH  31  32
ATOM     32  N   LIG    1       -0.139  -2.361  -1.143  0.00  0.00    -0.304 NA
BRANCH  32  33
ATOM     33  C   LIG    1        0.212  -2.729  -2.522  0.00  0.00    +0.084 C 
BRANCH  33  35
ATOM     34  C   LIG    1        1.391  -1.986  -4.595  0.00  0.00    +0.005 C 
ATOM     35  C   LIG    1        1.044  -1.611  -3.153  0.00  0.00    +0.012 C 
ENDBRANCH  33  35
ENDBRANCH  32  33
BRANCH  32  36
ATOM     36  C   LIG    1       -1.236  -3.196  -0.638  0.00  0.00    +0.084 C 
BRANCH  36  37
ATOM     37  C   LIG    1       -2.511  -2.898  -1.430  0.00  0.00    +0.012 C 
ATOM     38  C   LIG    1       -3.654  -3.768  -0.903  0.00  0.00    +0.005 C 
ENDBRANCH  36  37
ENDBRANCH  32  36
ENDBRANCH  31  32
ENDBRANCH  24  31
ENDBRANCH  23  29
ENDBRANCH  22  23
ENDBRANCH   1  22
TORSDOF 9
