REMARK  Name = ZINC25967277
REMARK                            x       y       z     vdW  Elec       q    Type
REMARK                         _______ _______ _______ _____ _____    ______ ____
ROOT
ATOM      1  C   LIG    1       -3.759   3.373   5.496  0.00  0.00    -0.096 C 
ATOM      2  N   LIG    1       -3.911   2.658   4.221  0.00  0.00    +0.381 N 
ATOM      3  H   LIG    1       -4.427   3.328   3.517  0.00  0.00    -0.082 HD
ATOM      4  C   LIG    1       -4.748   1.462   4.385  0.00  0.00    -0.071 C 
ATOM      5  C   LIG    1       -5.207   0.954   3.010  0.00  0.00    +0.059 C 
ATOM      6  C   LIG    1       -3.995   0.874   2.120  0.00  0.00    +0.141 A 
ATOM      7  C   LIG    1       -2.824   1.491   2.416  0.00  0.00    +0.041 A 
ATOM      8  C   LIG    1       -1.973   1.164   1.348  0.00  0.00    +0.256 A 
ATOM      9  N   LIG    1       -2.686   0.416   0.539  0.00  0.00    -0.040 NA
ATOM     10  O   LIG    1       -3.812   0.244   0.964  0.00  0.00    -0.356 OA
ATOM     11  C   LIG    1       -2.596   2.324   3.643  0.00  0.00    -0.034 C 
ENDROOT
BRANCH   8  12
ATOM     12  O   LIG    1       -0.682   1.547   1.184  0.00  0.00    -0.478 OA
ATOM     13  C   LIG    1       -0.013   1.086   0.008  0.00  0.00    +0.279 C 
ENDBRANCH   8  12
TORSDOF 1
