REMARK  Name = ZINC22452295
REMARK                            x       y       z     vdW  Elec       q    Type
REMARK                         _______ _______ _______ _____ _____    ______ ____
ROOT
ATOM      1  C   LIG    1       -6.593  -3.571  -5.862  0.00  0.00    +0.121 A 
ATOM      2  C   LIG    1       -5.846  -3.144  -6.952  0.00  0.00    +0.046 A 
ATOM      3  C   LIG    1       -6.241  -3.472  -8.231  0.00  0.00    +0.012 A 
ATOM      4  C   LIG    1       -7.392  -4.234  -8.430  0.00  0.00    -0.018 A 
ATOM      5  C   LIG    1       -8.140  -4.661  -7.334  0.00  0.00    +0.012 A 
ATOM      6  C   LIG    1       -7.737  -4.334  -6.057  0.00  0.00    +0.046 A 
ENDROOT
BRANCH   4   7
ATOM      7  C   LIG    1       -7.820  -4.588  -9.805  0.00  0.00    -0.018 A 
ATOM      8  C   LIG    1       -7.067  -4.164 -10.900  0.00  0.00    +0.010 A 
ATOM      9  C   LIG    1       -7.463  -4.492 -12.177  0.00  0.00    +0.019 A 
ATOM     10  C   LIG    1       -8.620  -5.250 -12.376  0.00  0.00    +0.052 A 
ATOM     11  C   LIG    1       -9.373  -5.675 -11.277  0.00  0.00    +0.019 A 
ATOM     12  C   LIG    1       -8.972  -5.351 -10.002  0.00  0.00    +0.010 A 
BRANCH  10  13
ATOM     13  C   LIG    1       -9.034  -5.592 -13.703  0.00  0.00    +0.099 C 
ATOM     14  N   LIG    1       -9.362  -5.863 -14.757  0.00  0.00    -0.191 NA
ENDBRANCH  10  13
ENDBRANCH   4   7
BRANCH   1  15
ATOM     15  O   LIG    1       -6.201  -3.247  -4.602  0.00  0.00    -0.492 OA
BRANCH  15  16
ATOM     16  C   LIG    1       -5.016  -2.459  -4.475  0.00  0.00    +0.230 C 
BRANCH  16  17
ATOM     17  C   LIG    1       -4.735  -2.196  -2.994  0.00  0.00    +0.056 C 
BRANCH  17  18
ATOM     18  C   LIG    1       -3.466  -1.353  -2.857  0.00  0.00    +0.087 C 
BRANCH  18  22
ATOM     19  C   LIG    1       -1.376  -0.512   0.012  0.00  0.00    -0.054 C 
ATOM     20  C   LIG    1       -1.399  -2.059  -0.111  0.00  0.00    +0.001 C 
ATOM     21  C   LIG    1       -2.776  -2.337  -0.749  0.00  0.00    +0.083 C 
ATOM     22  N   LIG    1       -3.196  -1.101  -1.435  0.00  0.00    -0.304 NA
ATOM     23  C   LIG    1       -2.135  -0.085  -1.268  0.00  0.00    +0.069 C 
BRANCH  19  25
ATOM     24  C   LIG    1       -0.018   1.465   0.010  0.00  0.00    -0.096 C 
ATOM     25  N   LIG    1        0.002  -0.004   0.002  0.00  0.00    +0.379 N 
ATOM     26  H   LIG    1        0.474  -0.330  -0.828  0.00  0.00    -0.082 HD
ATOM     27  C   LIG    1        0.713  -0.491   1.192  0.00  0.00    -0.096 C 
ENDBRANCH  19  25
ENDBRANCH  18  22
ENDBRANCH  17  18
ENDBRANCH  16  17
ENDBRANCH  15  16
ENDBRANCH   1  15
TORSDOF 8
