REMARK  Name = ZINC27549240
REMARK                            x       y       z     vdW  Elec       q    Type
REMARK                         _______ _______ _______ _____ _____    ______ ____
ROOT
ATOM      1  C   LIG    1       -0.477   0.972  -2.433  0.00  0.00    +0.005 A 
ATOM      2  C   LIG    1       -1.116   1.398  -3.580  0.00  0.00    +0.022 A 
ATOM      3  C   LIG    1       -2.022   2.441  -3.516  0.00  0.00    +0.060 A 
ATOM      4 CL   LIG    1       -2.830   2.982  -4.954  0.00  0.00    -0.082 Cl
ATOM      5  C   LIG    1       -2.284   3.051  -2.303  0.00  0.00    +0.064 A 
ATOM      6 CL   LIG    1       -3.421   4.360  -2.222  0.00  0.00    -0.082 Cl
ATOM      7  C   LIG    1       -1.643   2.621  -1.149  0.00  0.00    -0.011 A 
ATOM      8  C   LIG    1       -1.967   3.310   0.150  0.00  0.00    +0.118 C 
ATOM      9  N   LIG    1       -0.934   3.028   1.152  0.00  0.00    -0.307 NA
ATOM     10  H   LIG    1       -1.255   3.432   2.124  0.00  0.00    +0.123 HD
ATOM     11  CA  LIG    1       -0.724   1.577   1.269  0.00  0.00    +0.084 C 
ATOM     12  C   LIG    1       -0.013   1.086   0.008  0.00  0.00    +0.056 C 
ATOM     13  C   LIG    1       -0.738   1.583  -1.216  0.00  0.00    -0.040 A 
ENDROOT
BRANCH  11  14
ATOM     14  C   LIG    1        0.142   1.282   2.496  0.00  0.00    +0.174 C 
BRANCH  14  15
ATOM     15  O   LIG    1       -0.575   1.635   3.680  0.00  0.00    -0.393 OA
ATOM     16  H   LIG    1       -0.110   1.494   4.667  0.00  0.00    +0.209 HD
ENDBRANCH  14  15
ENDBRANCH  11  14
TORSDOF 2
