REMARK  Name = ZINC14682001
REMARK                            x       y       z     vdW  Elec       q    Type
REMARK                         _______ _______ _______ _____ _____    ______ ____
ROOT
ATOM      1  C   LIG    1       -6.001  -1.088  -0.610  0.00  0.00    +0.147 C 
ATOM      2  C   LIG    1       -4.882  -0.306  -0.582  0.00  0.00    +0.038 C 
ATOM      3  C   LIG    1       -3.638  -0.888  -0.299  0.00  0.00    -0.002 C 
ATOM      4  C   LIG    1       -2.450  -0.141  -0.274  0.00  0.00    +0.027 C 
ATOM      5  C   LIG    1       -1.260  -0.786   0.009  0.00  0.00    +0.087 C 
ATOM      6  N   LIG    1       -1.225  -2.088   0.318  0.00  0.00    -0.295 NA
ATOM      7  C   LIG    1        0.030  -2.718   0.743  0.00  0.00    +0.089 C 
ATOM      8  C   LIG    1        1.210  -2.192  -0.068  0.00  0.00    +0.051 C 
ATOM      9  C   LIG    1        1.218  -0.686  -0.034  0.00  0.00    -0.038 A 
ATOM     10  C   LIG    1        2.405   0.015  -0.040  0.00  0.00    +0.053 A 
ATOM     11  C   LIG    1        2.388   1.403  -0.020  0.00  0.00    +0.162 A 
ATOM     12  C   LIG    1        1.176   2.089   0.002  0.00  0.00    +0.162 A 
ATOM     13  C   LIG    1       -0.017   1.387   0.010  0.00  0.00    +0.054 A 
ATOM     14  C   LIG    1       -2.309  -2.835   0.285  0.00  0.00    +0.089 C 
ATOM     15  C   LIG    1        0.002  -0.004   0.002  0.00  0.00    -0.023 A 
ATOM     16  C   LIG    1       -3.558  -2.281  -0.028  0.00  0.00    +0.009 C 
ATOM     17  C   LIG    1       -4.725  -3.059  -0.072  0.00  0.00    +0.039 C 
ATOM     18  C   LIG    1       -5.921  -2.466  -0.359  0.00  0.00    +0.147 C 
ENDROOT
BRANCH   1  20
ATOM     19  C   LIG    1       -7.225   0.882  -1.130  0.00  0.00    +0.194 C 
ATOM     20  O   LIG    1       -7.207  -0.525  -0.883  0.00  0.00    -0.377 OA
ENDBRANCH   1  20
BRANCH  11  21
ATOM     21  O   LIG    1        3.558   2.094  -0.023  0.00  0.00    -0.491 OA
ATOM     22  C   LIG    1        4.765   1.329  -0.046  0.00  0.00    +0.277 C 
ENDBRANCH  11  21
BRANCH  12  23
ATOM     23  O   LIG    1        1.165   3.449   0.016  0.00  0.00    -0.491 OA
ATOM     24  C   LIG    1       -0.114   4.086   0.039  0.00  0.00    +0.277 C 
ENDBRANCH  12  23
BRANCH  18  25
ATOM     25  O   LIG    1       -7.050  -3.222  -0.401  0.00  0.00    -0.377 OA
ATOM     26  C   LIG    1       -6.906  -4.619  -0.137  0.00  0.00    +0.194 C 
ENDBRANCH  18  25
TORSDOF 4
