REMARK  Name = ZINC19632748
REMARK                            x       y       z     vdW  Elec       q    Type
REMARK                         _______ _______ _______ _____ _____    ______ ____
ROOT
ATOM      1  CA  LIG    1        1.417   2.055  -0.000  0.00  0.00    +0.036 C 
ENDROOT
BRANCH   1   2
ATOM      2  N   LIG    1        2.067   1.682  -1.264  0.00  0.00    +0.387 N 
ATOM      3  H1  LIG    1        1.555   2.082  -2.036  0.00  0.00    -0.089 HD
ATOM      4  H2  LIG    1        2.078   0.677  -1.352  0.00  0.00    -0.089 HD
ATOM      5  H3  LIG    1        3.013   2.032  -1.271  0.00  0.00    -0.089 HD
ENDBRANCH   1   2
BRANCH   1   6
ATOM      6  C   LIG    1        1.399   3.557   0.132  0.00  0.00    +0.290 C 
ATOM      7  O   LIG    1        1.434   4.072   1.236  0.00  0.00    -0.253 OA
BRANCH   6   8
ATOM      8  OXT LIG    1        1.350   4.256  -0.866  0.00  0.00    -0.482 OA
ATOM      9  HXT LIG    1        1.324   3.860  -1.715  0.00  0.00    +0.295 HD
ENDBRANCH   6   8
ENDBRANCH   1   6
BRANCH   1  10
ATOM     10  C   LIG    1       -0.019   1.526   0.010  0.00  0.00    +0.007 C 
BRANCH  10  11
ATOM     11  C   LIG    1        0.002  -0.004   0.002  0.00  0.00    +0.126 C 
BRANCH  11  12
ATOM     12  P   LIG    1       -1.708  -0.635   0.015  0.00  0.00    +0.328 P 
ATOM     13  O   LIG    1       -2.469  -0.036   1.219  0.00  0.00    -0.259 OA
BRANCH  12  14
ATOM     14  O   LIG    1       -1.687  -2.240   0.138  0.00  0.00    -0.324 OA
ATOM     15  H   LIG    1       -2.565  -2.645   0.151  0.00  0.00    +0.220 HD
ENDBRANCH  12  14
BRANCH  12  16
ATOM     16  O   LIG    1       -2.417  -0.229  -1.296  0.00  0.00    -0.324 OA
ATOM     17  H   LIG    1       -2.430   0.738  -1.371  0.00  0.00    +0.220 HD
ENDBRANCH  12  16
ENDBRANCH  11  12
ENDBRANCH  10  11
ENDBRANCH   1  10
TORSDOF 8
