REMARK  Name = ZINC13808049
REMARK                            x       y       z     vdW  Elec       q    Type
REMARK                         _______ _______ _______ _____ _____    ______ ____
ROOT
ATOM      1  S   LIG    1        2.618  -2.616  -4.580  0.00  0.00    +0.155 S 
ATOM      2  O   LIG    1        2.587  -1.683  -5.651  0.00  0.00    -0.132 OA
ATOM      3  O   LIG    1        2.051  -3.915  -4.685  0.00  0.00    -0.132 OA
ENDROOT
BRANCH   1   7
ATOM      4  C   LIG    1        0.606  -0.607  -1.056  0.00  0.00    +0.120 A 
ATOM      5  C   LIG    1        1.173   0.161  -2.062  0.00  0.00    +0.047 A 
ATOM      6  C   LIG    1        1.786  -0.455  -3.136  0.00  0.00    +0.034 A 
ATOM      7  C   LIG    1        1.835  -1.835  -3.209  0.00  0.00    +0.127 A 
ATOM      8  C   LIG    1        1.270  -2.602  -2.207  0.00  0.00    +0.034 A 
ATOM      9  C   LIG    1        0.661  -1.992  -1.128  0.00  0.00    +0.047 A 
BRANCH   4  11
ATOM     10  C   LIG    1       -0.017   1.425   0.010  0.00  0.00    +0.277 C 
ATOM     11  O   LIG    1        0.002  -0.004   0.002  0.00  0.00    -0.495 OA
ENDBRANCH   4  11
ENDBRANCH   1   7
BRANCH   1  12
ATOM     12  N   LIG    1        4.211  -2.826  -4.180  0.00  0.00    +0.061 NA
ATOM     13  C   LIG    1        5.027  -3.389  -5.027  0.00  0.00    +0.403 C 
BRANCH  13  14
ATOM     14  N   LIG    1        6.350  -3.563  -4.695  0.00  0.00    -0.288 N 
ATOM     15  H   LIG    1        6.957  -3.982  -5.325  0.00  0.00    +0.255 HD
ATOM     16  H   LIG    1        6.676  -3.267  -3.830  0.00  0.00    +0.255 HD
ENDBRANCH  13  14
BRANCH  13  17
ATOM     17  N   LIG    1        4.565  -3.808  -6.252  0.00  0.00    -0.288 N 
ATOM     18  H   LIG    1        5.172  -4.227  -6.882  0.00  0.00    +0.255 HD
ATOM     19  H   LIG    1        3.631  -3.685  -6.486  0.00  0.00    +0.255 HD
ENDBRANCH  13  17
ENDBRANCH   1  12
TORSDOF 5
