REMARK  Name = ZINC13983227
REMARK                            x       y       z     vdW  Elec       q    Type
REMARK                         _______ _______ _______ _____ _____    ______ ____
ROOT
ATOM      1  C   LIG    1       -2.366   1.350  -0.451  0.00  0.00    +0.160 C 
ENDROOT
BRANCH   1   6
ATOM      2  C   LIG    1       -3.415   1.349  -6.092  0.00  0.00    +0.065 C 
ATOM      3  C   LIG    1       -3.149   1.368  -4.609  0.00  0.00    +0.040 A 
ATOM      4  C   LIG    1       -3.602   2.428  -3.849  0.00  0.00    +0.023 A 
ATOM      5  C   LIG    1       -3.360   2.438  -2.482  0.00  0.00    +0.010 A 
ATOM      6  C   LIG    1       -2.658   1.382  -1.929  0.00  0.00    +0.012 A 
ATOM      7  C   LIG    1       -2.231   0.347  -2.754  0.00  0.00    +0.121 A 
ATOM      8  N   LIG    1       -2.486   0.372  -4.053  0.00  0.00    -0.237 NA
BRANCH   7   9
ATOM      9  N   LIG    1       -1.529  -0.723  -2.211  0.00  0.00    -0.343 N 
ATOM     10  H   LIG    1       -1.314  -0.748  -1.132  0.00  0.00    +0.144 HD
ATOM     11  H   LIG    1       -1.189  -1.544  -2.859  0.00  0.00    +0.144 HD
ENDBRANCH   7   9
ENDBRANCH   1   6
BRANCH   1  12
ATOM     12  N   LIG    1       -1.030   1.899  -0.205  0.00  0.00    -0.340 N 
ATOM     13  C   LIG    1       -0.008   1.081  -0.108  0.00  0.00    +0.132 A 
ATOM     14  S   LIG    1        1.312   2.175   0.168  0.00  0.00    -0.082 S 
ATOM     15  C   LIG    1        0.365   3.691   0.140  0.00  0.00    +0.012 A 
ATOM     16  C   LIG    1       -0.882   3.201  -0.080  0.00  0.00    +0.026 A 
ATOM     17  C   LIG    1       -2.067   4.126  -0.187  0.00  0.00    +0.064 C 
BRANCH  15  18
ATOM     18  C   LIG    1        0.823   5.116   0.313  0.00  0.00    +0.072 C 
BRANCH  18  19
ATOM     19  C   LIG    1        0.767   5.493   1.795  0.00  0.00    +0.161 C 
BRANCH  19  20
ATOM     20  O   LIG    1        1.201   6.844   1.960  0.00  0.00    -0.395 OA
ATOM     21  H   LIG    1        1.229   7.295   2.963  0.00  0.00    +0.209 HD
ENDBRANCH  19  20
ENDBRANCH  18  19
ENDBRANCH  15  18
ENDBRANCH   1  12
TORSDOF 6
