REMARK  Name = ZINC17919916
REMARK                            x       y       z     vdW  Elec       q    Type
REMARK                         _______ _______ _______ _____ _____    ______ ____
ROOT
ATOM      1  N   LIG    1        1.475  -3.986  -2.532  0.00  0.00    -0.384 N 
ATOM      2  H   LIG    1        1.901  -4.456  -1.798  0.00  0.00    +0.160 HD
ATOM      3  C   LIG    1        0.744  -4.648  -3.401  0.00  0.00    +0.046 A 
ATOM      4  C   LIG    1       -0.017  -3.957  -4.453  0.00  0.00    +0.043 A 
ATOM      5  C   LIG    1       -0.537  -4.680  -5.462  0.00  0.00    +0.088 A 
ATOM      6  N   LIG    1       -0.373  -6.030  -5.545  0.00  0.00    -0.342 N 
ATOM      7  C   LIG    1        0.074  -6.776  -4.472  0.00  0.00    +0.051 A 
ATOM      8  C   LIG    1       -0.033  -8.162  -4.465  0.00  0.00    +0.026 A 
ATOM      9  C   LIG    1        0.439  -8.882  -3.392  0.00  0.00    +0.002 A 
ATOM     10  C   LIG    1        1.007  -8.238  -2.303  0.00  0.00    +0.001 A 
ATOM     11  C   LIG    1        1.116  -6.863  -2.287  0.00  0.00    +0.012 A 
ATOM     12  C   LIG    1        0.652  -6.125  -3.370  0.00  0.00    +0.022 A 
ENDROOT
BRANCH   1  13
ATOM     13  C   LIG    1        1.647  -2.538  -2.672  0.00  0.00    +0.113 C 
BRANCH  13  14
ATOM     14  C   LIG    1        0.987  -1.829  -1.488  0.00  0.00    +0.021 C 
BRANCH  14  15
ATOM     15  C   LIG    1        1.167  -0.316  -1.634  0.00  0.00    +0.001 C 
BRANCH  15  17
ATOM     16  C   LIG    1        0.687   1.905  -0.596  0.00  0.00    +0.004 C 
ATOM     17  C   LIG    1        0.507   0.393  -0.449  0.00  0.00    -0.003 C 
ENDBRANCH  15  17
ENDBRANCH  14  15
ENDBRANCH  13  14
ENDBRANCH   1  13
BRANCH   6  18
ATOM     18  C   LIG    1       -0.679  -6.709  -6.806  0.00  0.00    +0.157 C 
BRANCH  18  19
ATOM     19  C   LIG    1        0.557  -6.753  -7.666  0.00  0.00    -0.028 A 
ATOM     20  C   LIG    1        0.823  -5.721  -8.548  0.00  0.00    +0.005 A 
ATOM     21  C   LIG    1        1.957  -5.761  -9.337  0.00  0.00    +0.000 A 
ATOM     22  C   LIG    1        2.826  -6.832  -9.244  0.00  0.00    +0.000 A 
ATOM     23  C   LIG    1        2.561  -7.863  -8.362  0.00  0.00    +0.000 A 
ATOM     24  C   LIG    1        1.429  -7.821  -7.570  0.00  0.00    +0.005 A 
ENDBRANCH  18  19
ENDBRANCH   6  18
TORSDOF 6
