REMARK  Name = ZINC28457100
REMARK                            x       y       z     vdW  Elec       q    Type
REMARK                         _______ _______ _______ _____ _____    ______ ____
ROOT
ATOM      1  N   LIG    1       -0.675   1.545   3.712  0.00  0.00    -0.346 N 
ATOM      2  C   LIG    1       -0.343   2.657   4.395  0.00  0.00    +0.098 A 
ATOM      3  C   LIG    1       -1.189   2.808   5.473  0.00  0.00    +0.043 A 
ATOM      4  C   LIG    1       -2.123   1.665   5.426  0.00  0.00    +0.010 A 
ATOM      5  C   LIG    1       -3.190   1.256   6.219  0.00  0.00    +0.011 A 
ATOM      6  C   LIG    1       -3.889   0.115   5.887  0.00  0.00    +0.001 A 
ATOM      7  C   LIG    1       -3.524  -0.630   4.776  0.00  0.00    +0.002 A 
ATOM      8  C   LIG    1       -2.465  -0.238   3.985  0.00  0.00    +0.026 A 
ATOM      9  C   LIG    1       -1.753   0.914   4.299  0.00  0.00    +0.050 A 
ENDROOT
BRANCH   3  10
ATOM     10  C   LIG    1       -1.167   3.850   6.433  0.00  0.00    +0.169 C 
ATOM     11  O   LIG    1       -1.976   3.859   7.338  0.00  0.00    -0.292 OA
BRANCH  10  12
ATOM     12  C   LIG    1       -0.138   4.946   6.331  0.00  0.00    +0.116 C 
BRANCH  12  13
ATOM     13  C   LIG    1       -0.329   5.921   7.464  0.00  0.00    -0.022 A 
ATOM     14  C   LIG    1       -1.079   7.067   7.272  0.00  0.00    +0.005 A 
ATOM     15  C   LIG    1       -1.258   7.959   8.312  0.00  0.00    +0.000 A 
ATOM     16  C   LIG    1       -0.679   7.711   9.543  0.00  0.00    +0.001 A 
ATOM     17  C   LIG    1        0.075   6.569   9.736  0.00  0.00    +0.020 A 
ATOM     18  C   LIG    1        0.250   5.673   8.696  0.00  0.00    +0.045 A 
ATOM     19 CL   LIG    1        1.198   4.239   8.936  0.00  0.00    -0.083 Cl
ENDBRANCH  12  13
ENDBRANCH  10  12
ENDBRANCH   3  10
BRANCH   1  20
ATOM     20  C   LIG    1        0.011   1.072   2.506  0.00  0.00    +0.122 C 
BRANCH  20  21
ATOM     21  C   LIG    1       -0.729   1.579   1.267  0.00  0.00    +0.022 C 
BRANCH  21  22
ATOM     22  C   LIG    1       -0.013   1.086   0.008  0.00  0.00    +0.001 C 
BRANCH  22  24
ATOM     23  C   LIG    1       -0.037   1.099  -2.490  0.00  0.00    +0.004 C 
ATOM     24  C   LIG    1       -0.753   1.593  -1.232  0.00  0.00    -0.003 C 
ENDBRANCH  22  24
ENDBRANCH  21  22
ENDBRANCH  20  21
ENDBRANCH   1  20
TORSDOF 7
