REMARK  Name = ZINC26384919
REMARK                            x       y       z     vdW  Elec       q    Type
REMARK                         _______ _______ _______ _____ _____    ______ ____
ROOT
ATOM      1  C   LIG    1       -2.801  -0.826  -0.225  0.00  0.00    +0.338 C 
ATOM      2  O   LIG    1       -2.816   0.391  -0.209  0.00  0.00    -0.245 OA
ENDROOT
BRANCH   1   5
ATOM      3  C   LIG    1       -0.406   0.665  -0.256  0.00  0.00    +0.066 C 
ATOM      4  C   LIG    1       -0.387  -0.842  -0.275  0.00  0.00    +0.049 C 
ATOM      5  C   LIG    1       -1.576  -1.514  -0.259  0.00  0.00    +0.069 C 
ATOM      6  C   LIG    1       -1.525  -3.031  -0.280  0.00  0.00    +0.096 C 
ATOM      7  C   LIG    1       -0.137  -3.646  -0.315  0.00  0.00    +0.065 C 
ATOM      8  C   LIG    1        0.948  -2.768  -0.326  0.00  0.00    +0.049 C 
ATOM      9  C   LIG    1        2.346  -3.328  -0.362  0.00  0.00    +0.066 C 
ATOM     10  C   LIG    1        0.043  -5.012  -0.337  0.00  0.00    +0.285 C 
ATOM     11  N   LIG    1        0.781  -1.465  -0.311  0.00  0.00    -0.256 NA
BRANCH   6  12
ATOM     12  C   LIG    1       -2.231  -3.542   0.950  0.00  0.00    -0.033 A 
ATOM     13  C   LIG    1       -1.776  -3.186   2.206  0.00  0.00    +0.005 A 
ATOM     14  C   LIG    1       -2.424  -3.655   3.334  0.00  0.00    +0.003 A 
ATOM     15  C   LIG    1       -3.526  -4.479   3.205  0.00  0.00    +0.032 A 
ATOM     16  C   LIG    1       -3.981  -4.835   1.950  0.00  0.00    +0.122 A 
ATOM     17  C   LIG    1       -3.336  -4.362   0.822  0.00  0.00    +0.037 A 
BRANCH  16  18
ATOM     18  N   LIG    1       -5.160  -5.718   1.812  0.00  0.00    +0.006 N 
ATOM     19  O   LIG    1       -5.726  -6.129   2.799  0.00  0.00    -0.130 OA
BRANCH  18  20
ATOM     20  O   LIG    1       -5.558  -6.029   0.714  0.00  0.00    -0.396 OA
ATOM     21  H   LIG    1       -5.120  -5.711  -0.051  0.00  0.00    +0.329 HD
ENDBRANCH  18  20
ENDBRANCH  16  18
ENDBRANCH   6  12
BRANCH  10  22
ATOM     22  O   LIG    1        1.280  -5.526  -0.486  0.00  0.00    -0.467 OA
ATOM     23  C   LIG    1        1.394  -6.950  -0.500  0.00  0.00    +0.280 C 
ENDBRANCH  10  22
BRANCH  10  24
ATOM     24  O   LIG    1       -1.017  -5.834  -0.208  0.00  0.00    -0.480 OA
ATOM     25  H   LIG    1       -1.877  -5.477  -0.104  0.00  0.00    +0.295 HD
ENDBRANCH  10  24
ENDBRANCH   1   5
BRANCH   1  26
ATOM     26  O   LIG    1       -3.963  -1.516  -0.210  0.00  0.00    -0.461 OA
BRANCH  26  27
ATOM     27  C   LIG    1       -5.170  -0.753  -0.176  0.00  0.00    +0.230 C 
BRANCH  27  28
ATOM     28  C   LIG    1       -6.372  -1.700  -0.163  0.00  0.00    +0.023 C 
BRANCH  28  29
ATOM     29  C   LIG    1       -7.665  -0.883  -0.126  0.00  0.00    -0.076 C 
BRANCH  29  30
ATOM     30  N   LIG    1       -8.819  -1.792  -0.114  0.00  0.00    +0.380 N 
ATOM     31  H   LIG    1       -8.730  -2.437   0.657  0.00  0.00    -0.082 HD
ATOM     32  C   LIG    1       -8.860  -2.544  -1.375  0.00  0.00    -0.078 C 
ATOM     33  C   LIG    1      -10.012  -3.550  -1.335  0.00  0.00    -0.003 C 
ATOM     34  C   LIG    1      -11.333  -2.799  -1.143  0.00  0.00    +0.017 C 
ATOM     35  C   LIG    1      -11.250  -1.960   0.136  0.00  0.00    -0.003 C 
ATOM     36  C   LIG    1      -10.053  -1.013   0.042  0.00  0.00    -0.078 C 
BRANCH  34  37
ATOM     37  C   LIG    1      -11.575  -1.894  -2.324  0.00  0.00    -0.037 A 
ATOM     38  C   LIG    1      -11.508  -2.402  -3.608  0.00  0.00    +0.004 A 
ATOM     39  C   LIG    1      -11.729  -1.572  -4.691  0.00  0.00    +0.000 A 
ATOM     40  C   LIG    1      -12.018  -0.235  -4.490  0.00  0.00    +0.000 A 
ATOM     41  C   LIG    1      -12.086   0.272  -3.206  0.00  0.00    +0.000 A 
ATOM     42  C   LIG    1      -11.869  -0.559  -2.123  0.00  0.00    +0.004 A 
ENDBRANCH  34  37
BRANCH  34  43
ATOM     43  C   LIG    1      -12.463  -3.788  -1.024  0.00  0.00    -0.037 A 
ATOM     44  C   LIG    1      -12.194  -5.144  -0.992  0.00  0.00    +0.004 A 
ATOM     45  C   LIG    1      -13.231  -6.052  -0.883  0.00  0.00    +0.000 A 
ATOM     46  C   LIG    1      -14.537  -5.604  -0.806  0.00  0.00    +0.000 A 
ATOM     47  C   LIG    1      -14.806  -4.248  -0.838  0.00  0.00    +0.000 A 
ATOM     48  C   LIG    1      -13.768  -3.340  -0.943  0.00  0.00    +0.004 A 
ENDBRANCH  34  43
ENDBRANCH  29  30
ENDBRANCH  28  29
ENDBRANCH  27  28
ENDBRANCH  26  27
ENDBRANCH   1  26
TORSDOF 13
