REMARK  Name = ZINC35212825
REMARK                            x       y       z     vdW  Elec       q    Type
REMARK                         _______ _______ _______ _____ _____    ______ ____
ROOT
ATOM      1  C   LIG    1        4.899  -2.639  -0.052  0.00  0.00    +0.261 C 
ATOM      2  N   LIG    1        5.136  -3.921  -0.391  0.00  0.00    -0.282 N 
ATOM      3  H   LIG    1        4.437  -4.450  -0.807  0.00  0.00    +0.155 HD
ATOM      4  O   LIG    1        5.743  -2.003   0.543  0.00  0.00    -0.271 OA
ENDROOT
BRANCH   1  12
ATOM      5  C   LIG    1       -0.021   1.371   0.032  0.00  0.00    +0.004 A 
ATOM      6  C   LIG    1        1.164   2.083   0.015  0.00  0.00    +0.004 A 
ATOM      7  C   LIG    1        2.373   1.415  -0.006  0.00  0.00    +0.049 A 
ATOM      8  C   LIG    1        2.401   0.028  -0.010  0.00  0.00    +0.163 A 
ATOM      9  C   LIG    1        1.210  -0.687   0.005  0.00  0.00    +0.162 A 
ATOM     10  O   LIG    1        1.214  -2.048  -0.007  0.00  0.00    -0.484 OA
ATOM     11  C   LIG    1        2.444  -2.691   0.346  0.00  0.00    +0.283 C 
ATOM     12  C   LIG    1        3.584  -1.996  -0.410  0.00  0.00    +0.296 C 
ATOM     13  O   LIG    1        3.600  -0.616  -0.027  0.00  0.00    -0.473 OA
ATOM     14  C   LIG    1       -0.001  -0.010   0.028  0.00  0.00    +0.049 A 
ENDBRANCH   1  12
BRANCH   2  15
ATOM     15  C   LIG    1        6.391  -4.489  -0.145  0.00  0.00    +0.034 A 
ATOM     16  C   LIG    1        7.104  -4.130   0.992  0.00  0.00    +0.024 A 
ATOM     17  C   LIG    1        8.341  -4.688   1.236  0.00  0.00    +0.010 A 
ATOM     18  C   LIG    1        8.875  -5.614   0.343  0.00  0.00    -0.015 A 
ATOM     19  C   LIG    1        8.158  -5.974  -0.796  0.00  0.00    +0.010 A 
ATOM     20  C   LIG    1        6.919  -5.417  -1.034  0.00  0.00    +0.024 A 
BRANCH  18  21
ATOM     21  C   LIG    1       10.207  -6.217   0.604  0.00  0.00    +0.019 A 
ATOM     22  C   LIG    1       10.849  -7.127  -0.184  0.00  0.00    +0.113 A 
ATOM     23  N   LIG    1       12.027  -7.417   0.404  0.00  0.00    -0.284 N 
ATOM     24  N   LIG    1       12.122  -6.672   1.585  0.00  0.00    -0.182 NA
ATOM     25  H   LIG    1       12.694  -8.036   0.067  0.00  0.00    +0.188 HD
ATOM     26  C   LIG    1       11.040  -5.948   1.708  0.00  0.00    +0.142 A 
ENDBRANCH  18  21
ENDBRANCH   2  15
TORSDOF 3
