REMARK  Name = ZINC17611186
REMARK                            x       y       z     vdW  Elec       q    Type
REMARK                         _______ _______ _______ _____ _____    ______ ____
ROOT
ATOM      1  C   LIG    1        0.060   1.525  -0.046  0.00  0.00    +0.027 C 
ATOM      2  C   LIG    1        0.046  -0.005  -0.029  0.00  0.00    +0.109 C 
ATOM      3  C   LIG    1        0.723  -0.654  -1.272  0.00  0.00    +0.136 C 
ATOM      4  C   LIG    1        2.112   0.040  -1.397  0.00  0.00    +0.035 C 
ATOM      5  C   LIG    1        2.911  -0.575  -0.220  0.00  0.00    +0.035 C 
ATOM      6  C   LIG    1        1.877  -1.543   0.429  0.00  0.00    +0.136 C 
ATOM      7  O   LIG    1        1.088  -1.972  -0.747  0.00  0.00    -0.371 OA
ATOM      8  C   LIG    1       -1.338  -0.604   0.151  0.00  0.00    +0.324 C 
ATOM      9  O   LIG    1       -2.371  -0.180  -0.309  0.00  0.00    -0.250 OA
ATOM     10  O   LIG    1       -1.192  -1.700   0.924  0.00  0.00    -0.392 OA
ATOM     11  C   LIG    1       -0.215  -1.498   1.832  0.00  0.00    +0.324 C 
ATOM     12  O   LIG    1       -0.186  -1.921   2.963  0.00  0.00    -0.250 OA
ATOM     13  C   LIG    1        0.840  -0.639   1.159  0.00  0.00    +0.109 C 
ATOM     14  C   LIG    1        1.511   0.383   2.080  0.00  0.00    +0.027 C 
ENDROOT
TORSDOF 0
