REMARK  Name = ZINC13757904
REMARK                            x       y       z     vdW  Elec       q    Type
REMARK                         _______ _______ _______ _____ _____    ______ ____
ROOT
ATOM      1  C   LIG    1        0.048  -2.750  -0.065  0.00  0.00    +0.000 A 
ATOM      2  C   LIG    1       -0.445  -2.101   1.052  0.00  0.00    +0.001 A 
ATOM      3  C   LIG    1       -0.471  -0.718   1.091  0.00  0.00    +0.015 A 
ATOM      4  C   LIG    1        0.002  -0.004   0.002  0.00  0.00    +0.009 A 
ATOM      5  C   LIG    1        0.500  -0.645  -1.112  0.00  0.00    -0.051 A 
ATOM      6  C   LIG    1        1.040   0.131  -2.296  0.00  0.00    -0.046 C 
ATOM      7  N   LIG    1        2.380   0.664  -1.949  0.00  0.00    +0.382 N 
ATOM      8  H   LIG    1        2.810   0.054  -1.243  0.00  0.00    -0.085 HD
ATOM      9  H   LIG    1        2.964   0.675  -2.793  0.00  0.00    -0.085 HD
ATOM     10  C   LIG    1        2.294   2.027  -1.412  0.00  0.00    -0.071 C 
ATOM     11  C   LIG    1        1.757   2.170  -0.003  0.00  0.00    +0.055 C 
ATOM     12  S   LIG    1       -0.022   1.771   0.012  0.00  0.00    -0.127 S 
ATOM     13  C   LIG    1        0.520  -2.030  -1.147  0.00  0.00    +0.003 A 
ENDROOT
TORSDOF 0
