REMARK  Name = ZINC27563308
REMARK                            x       y       z     vdW  Elec       q    Type
REMARK                         _______ _______ _______ _____ _____    ______ ____
ROOT
ATOM      1  C   LIG    1        1.246  -2.160  -0.021  0.00  0.00    +0.244 C 
ATOM      2  N   LIG    1        2.424  -2.815  -0.036  0.00  0.00    -0.311 N 
ATOM      3  H   LIG    1        3.368  -2.250  -0.042  0.00  0.00    +0.149 HD
ATOM      4  O   LIG    1        0.203  -2.784  -0.014  0.00  0.00    -0.270 OA
ENDROOT
BRANCH   1   8
ATOM      5  C   LIG    1        1.179   2.081   0.002  0.00  0.00    +0.008 A 
ATOM      6  C   LIG    1       -0.017   1.367   0.010  0.00  0.00    +0.015 A 
ATOM      7  C   LIG    1        0.002  -0.004   0.002  0.00  0.00    +0.014 A 
ATOM      8  C   LIG    1        1.223  -0.685  -0.013  0.00  0.00    +0.037 A 
ATOM      9  C   LIG    1        2.422   0.034  -0.021  0.00  0.00    +0.014 A 
ATOM     10  C   LIG    1        2.397   1.405  -0.013  0.00  0.00    +0.015 A 
BRANCH   5  12
ATOM     11  C   LIG    1        2.905   4.309  -0.003  0.00  0.00    +0.090 C 
ATOM     12  S   LIG    1        1.152   3.843   0.011  0.00  0.00    -0.129 S 
ENDBRANCH   5  12
ENDBRANCH   1   8
BRANCH   2  13
ATOM     13  C   LIG    1        2.447  -4.280  -0.043  0.00  0.00    +0.106 C 
BRANCH  13  14
ATOM     14  C   LIG    1        3.897  -4.767  -0.060  0.00  0.00    +0.040 C 
BRANCH  14  15
ATOM     15  C   LIG    1        3.922  -6.297  -0.068  0.00  0.00    +0.124 C 
BRANCH  15  16
ATOM     16  N   LIG    1        5.310  -6.763  -0.084  0.00  0.00    -0.338 N 
ATOM     17  C   LIG    1        6.068  -7.021  -1.194  0.00  0.00    +0.104 A 
ATOM     18  C   LIG    1        7.277  -7.422  -0.757  0.00  0.00    +0.101 A 
ATOM     19  N   LIG    1        7.255  -7.418   0.585  0.00  0.00    -0.352 N 
ATOM     20  H   LIG    1        8.149  -7.720   1.150  0.00  0.00    +0.166 HD
ATOM     21  C   LIG    1        6.080  -7.024   0.995  0.00  0.00    +0.173 A 
ENDBRANCH  15  16
ENDBRANCH  14  15
ENDBRANCH  13  14
ENDBRANCH   2  13
TORSDOF 6
