REMARK  Name = ZINC38476029
REMARK                            x       y       z     vdW  Elec       q    Type
REMARK                         _______ _______ _______ _____ _____    ______ ____
ROOT
ATOM      1  C   LIG    1       -0.017   1.376   0.010  0.00  0.00    +0.001 A 
ATOM      2  C   LIG    1        1.169   2.089   0.002  0.00  0.00    +0.004 A 
ATOM      3  C   LIG    1        2.382   1.427  -0.013  0.00  0.00    +0.046 A 
ATOM      4  C   LIG    1        2.418   0.042  -0.021  0.00  0.00    +0.126 A 
ATOM      5  C   LIG    1        1.220  -0.683  -0.013  0.00  0.00    +0.041 A 
ATOM      6  C   LIG    1        0.002  -0.004   0.002  0.00  0.00    +0.013 A 
ENDROOT
BRANCH   5   7
ATOM      7  C   LIG    1        1.247  -2.162  -0.022  0.00  0.00    +0.067 A 
ATOM      8  C   LIG    1        2.093  -2.957  -0.731  0.00  0.00    +0.110 A 
ATOM      9  N   LIG    1        1.786  -4.230  -0.459  0.00  0.00    -0.352 N 
ATOM     10  H   LIG    1        2.235  -5.006  -0.831  0.00  0.00    +0.166 HD
ATOM     11  C   LIG    1        0.791  -4.269   0.385  0.00  0.00    +0.171 A 
ATOM     12  N   LIG    1        0.424  -3.004   0.690  0.00  0.00    -0.346 N 
ATOM     13  H   LIG    1       -0.286  -2.740   1.296  0.00  0.00    +0.167 HD
ENDBRANCH   5   7
BRANCH   4  14
ATOM     14  O   LIG    1        3.610  -0.610  -0.037  0.00  0.00    -0.506 OA
ATOM     15  H   LIG    1        3.964  -0.803   0.842  0.00  0.00    +0.292 HD
ENDBRANCH   4  14
TORSDOF 2
