REMARK  Name = ZINC29134842
REMARK                            x       y       z     vdW  Elec       q    Type
REMARK                         _______ _______ _______ _____ _____    ______ ____
ROOT
ATOM      1  C   LIG    1        3.296  -2.189  -2.031  0.00  0.00    +0.058 C 
ATOM      2  C   LIG    1        3.653  -2.280  -0.546  0.00  0.00    +0.133 C 
ATOM      3  C   LIG    1        4.965  -3.050  -0.376  0.00  0.00    +0.058 C 
ATOM      4  C   LIG    1        2.529  -2.995   0.215  0.00  0.00    +0.179 C 
ATOM      5  C   LIG    1        1.225  -2.239  -0.048  0.00  0.00    +0.124 C 
ATOM      6  C   LIG    1        1.441  -0.758   0.153  0.00  0.00    +0.065 C 
ATOM      7  C   LIG    1        2.674  -0.217   0.155  0.00  0.00    +0.177 C 
ATOM      8  C   LIG    1        2.853   1.248   0.336  0.00  0.00    +0.228 C 
ATOM      9  C   LIG    1        1.678   2.121   0.521  0.00  0.00    +0.036 A 
ATOM     10  C   LIG    1        1.823   3.493   0.691  0.00  0.00    +0.012 A 
ATOM     11  C   LIG    1        0.701   4.288   0.863  0.00  0.00    +0.001 A 
ATOM     12  C   LIG    1       -0.561   3.725   0.867  0.00  0.00    +0.001 A 
ATOM     13  C   LIG    1       -0.722   2.359   0.693  0.00  0.00    +0.012 A 
ATOM     14  C   LIG    1        0.393   1.549   0.524  0.00  0.00    +0.033 A 
ATOM     15  O   LIG    1        3.969   1.728   0.331  0.00  0.00    -0.283 OA
ATOM     16  C   LIG    1        0.252   0.089   0.341  0.00  0.00    +0.195 C 
ATOM     17  O   LIG    1       -0.854  -0.416   0.345  0.00  0.00    -0.287 OA
ATOM     18  O   LIG    1        3.791  -0.968  -0.002  0.00  0.00    -0.479 OA
ENDROOT
BRANCH   4  19
ATOM     19  O   LIG    1        2.815  -2.993   1.615  0.00  0.00    -0.386 OA
ATOM     20  H   LIG    1        2.115  -3.464   2.321  0.00  0.00    +0.210 HD
ENDBRANCH   4  19
BRANCH   5  21
ATOM     21  N   LIG    1        0.190  -2.711   0.882  0.00  0.00    -0.303 NA
ATOM     22  H   LIG    1        0.634  -2.867   1.876  0.00  0.00    +0.123 HD
BRANCH  21  23
ATOM     23  C   LIG    1       -0.391  -3.980   0.422  0.00  0.00    +0.117 C 
BRANCH  23  24
ATOM     24  C   LIG    1       -1.532  -4.367   1.326  0.00  0.00    -0.034 A 
ATOM     25  C   LIG    1       -1.296  -5.151   2.439  0.00  0.00    +0.005 A 
ATOM     26  C   LIG    1       -2.343  -5.503   3.271  0.00  0.00    +0.000 A 
ATOM     27  C   LIG    1       -3.627  -5.077   2.985  0.00  0.00    +0.000 A 
ATOM     28  C   LIG    1       -3.863  -4.296   1.869  0.00  0.00    +0.000 A 
ATOM     29  C   LIG    1       -2.816  -3.942   1.039  0.00  0.00    +0.005 A 
ENDBRANCH  23  24
ENDBRANCH  21  23
ENDBRANCH   5  21
TORSDOF 4
