REMARK  Name = ZINC39473582
REMARK                            x       y       z     vdW  Elec       q    Type
REMARK                         _______ _______ _______ _____ _____    ______ ____
ROOT
ATOM      1  C   LIG    1        0.604  -0.606  -1.053  0.00  0.00    +0.190 C 
ATOM      2  C   LIG    1        0.659  -1.993  -1.135  0.00  0.00    +0.070 C 
ATOM      3  C   LIG    1        1.289  -2.568  -2.242  0.00  0.00    +0.083 C 
ATOM      4  N   LIG    1        1.814  -1.769  -3.175  0.00  0.00    -0.283 NA
ATOM      5  H   LIG    1        2.254  -2.158  -3.948  0.00  0.00    +0.125 HD
ATOM      6  C   LIG    1        1.741  -0.454  -3.058  0.00  0.00    +0.194 C 
ATOM      7  N   LIG    1        1.145   0.123  -2.023  0.00  0.00    -0.264 NA
ATOM      8  H   LIG    1        1.843   0.721  -1.583  0.00  0.00    +0.127 HD
ENDROOT
BRANCH   6   9
ATOM      9  N   LIG    1        2.296   0.343  -4.044  0.00  0.00    -0.303 NA
ATOM     10  H   LIG    1        2.250   1.309  -3.971  0.00  0.00    +0.121 HD
ATOM     11  H   LIG    1        2.732  -0.065  -4.809  0.00  0.00    +0.121 HD
ENDBRANCH   6   9
BRANCH   1  13
ATOM     12  C   LIG    1       -0.017   1.425   0.010  0.00  0.00    +0.196 C 
ATOM     13  O   LIG    1        0.002  -0.004   0.002  0.00  0.00    -0.365 OA
ENDBRANCH   1  13
BRANCH   3  14
ATOM     14  C   LIG    1        1.375  -4.032  -2.377  0.00  0.00    -0.008 C 
ATOM     15  C   LIG    1        1.983  -4.574  -3.445  0.00  0.00    +0.005 C 
BRANCH  15  16
ATOM     16  C   LIG    1        2.068  -6.039  -3.580  0.00  0.00    -0.025 A 
ATOM     17  C   LIG    1        1.512  -6.868  -2.602  0.00  0.00    +0.008 A 
ATOM     18  C   LIG    1        1.596  -8.238  -2.736  0.00  0.00    +0.001 A 
ATOM     19  C   LIG    1        2.229  -8.792  -3.834  0.00  0.00    +0.000 A 
ATOM     20  C   LIG    1        2.782  -7.978  -4.807  0.00  0.00    +0.001 A 
ATOM     21  C   LIG    1        2.701  -6.606  -4.690  0.00  0.00    +0.008 A 
ENDBRANCH  15  16
ENDBRANCH   3  14
TORSDOF 4
