REMARK  Name = ZINC13800629
REMARK                            x       y       z     vdW  Elec       q    Type
REMARK                         _______ _______ _______ _____ _____    ______ ____
ROOT
ATOM      1  C   LIG    1       -1.293  -0.775   0.011  0.00  0.00    +0.139 C 
ENDROOT
BRANCH   1   7
ATOM      2  C   LIG    1       -0.017   1.378   0.010  0.00  0.00    +0.007 A 
ATOM      3  C   LIG    1        1.171   2.086   0.002  0.00  0.00    +0.029 A 
ATOM      4  C   LIG    1        2.377   1.411  -0.013  0.00  0.00    +0.105 A 
ATOM      5  C   LIG    1        2.396   0.029  -0.020  0.00  0.00    +0.029 A 
ATOM      6  C   LIG    1        1.208  -0.679  -0.012  0.00  0.00    +0.007 A 
ATOM      7  C   LIG    1        0.002  -0.004   0.002  0.00  0.00    -0.030 A 
BRANCH   4   8
ATOM      8  S   LIG    1        3.891   2.312  -0.024  0.00  0.00    +0.056 S 
ATOM      9  O   LIG    1        3.597   3.593  -0.566  0.00  0.00    -0.153 OA
ATOM     10  O   LIG    1        4.872   1.453  -0.588  0.00  0.00    -0.153 OA
BRANCH   8  11
ATOM     11  N   LIG    1        4.327   2.556   1.555  0.00  0.00    -0.204 NA
ATOM     12  H   LIG    1        5.142   3.039   1.764  0.00  0.00    +0.144 HD
ATOM     13  H   LIG    1        3.768   2.215   2.271  0.00  0.00    +0.144 HD
ENDBRANCH   8  11
ENDBRANCH   4   8
ENDBRANCH   1   7
BRANCH   1  14
ATOM     14  N   LIG    1       -1.726  -1.018  -1.368  0.00  0.00    -0.310 N 
ATOM     15  H   LIG    1       -1.192  -0.691  -2.108  0.00  0.00    +0.149 HD
ATOM     16  C   LIG    1       -2.867  -1.694  -1.606  0.00  0.00    +0.230 C 
ATOM     17  O   LIG    1       -3.535  -2.103  -0.680  0.00  0.00    -0.274 OA
BRANCH  16  18
ATOM     18  C   LIG    1       -3.312  -1.944  -3.024  0.00  0.00    +0.200 C 
BRANCH  18  19
ATOM     19  N   LIG    1       -4.571  -2.694  -3.016  0.00  0.00    -0.306 N 
ATOM     20  H   LIG    1       -4.979  -2.946  -2.173  0.00  0.00    +0.149 HD
ATOM     21  C   LIG    1       -5.161  -3.032  -4.179  0.00  0.00    +0.227 C 
ATOM     22  O   LIG    1       -4.651  -2.716  -5.233  0.00  0.00    -0.274 OA
BRANCH  21  23
ATOM     23  C   LIG    1       -6.456  -3.803  -4.170  0.00  0.00    +0.174 C 
BRANCH  23  24
ATOM     24  N   LIG    1       -6.891  -4.047  -5.552  0.00  0.00    -0.322 NA
ATOM     25  H   LIG    1       -7.757  -4.563  -5.573  0.00  0.00    +0.119 HD
ATOM     26  H   LIG    1       -6.173  -4.523  -6.078  0.00  0.00    +0.119 HD
ENDBRANCH  23  24
ENDBRANCH  21  23
ENDBRANCH  18  19
ENDBRANCH  16  18
ENDBRANCH   1  14
TORSDOF 8
