REMARK  Name = ZINC13745657
REMARK                            x       y       z     vdW  Elec       q    Type
REMARK                         _______ _______ _______ _____ _____    ______ ____
ROOT
ATOM      1  C   LIG    1       -1.359   2.032   2.105  0.00  0.00    -0.028 A 
ATOM      2  C   LIG    1       -2.206   1.005   2.483  0.00  0.00    +0.006 A 
ATOM      3  C   LIG    1       -2.485   0.793   3.817  0.00  0.00    +0.009 A 
ATOM      4  C   LIG    1       -1.921   1.624   4.785  0.00  0.00    -0.017 A 
ATOM      5  C   LIG    1       -1.073   2.661   4.397  0.00  0.00    +0.009 A 
ATOM      6  C   LIG    1       -0.797   2.859   3.060  0.00  0.00    +0.006 A 
ENDROOT
BRANCH   4   7
ATOM      7  C   LIG    1       -2.222   1.405   6.220  0.00  0.00    -0.007 A 
ATOM      8  C   LIG    1       -1.187   1.328   7.148  0.00  0.00    +0.009 A 
ATOM      9  C   LIG    1       -1.472   1.130   8.484  0.00  0.00    +0.001 A 
ATOM     10  C   LIG    1       -2.783   0.995   8.909  0.00  0.00    +0.001 A 
ATOM     11  C   LIG    1       -3.821   1.064   8.002  0.00  0.00    +0.012 A 
ATOM     12  C   LIG    1       -3.552   1.269   6.650  0.00  0.00    +0.028 A 
BRANCH  12  13
ATOM     13  C   LIG    1       -4.661   1.343   5.675  0.00  0.00    +0.180 A 
ATOM     14  N   LIG    1       -5.973   1.228   5.922  0.00  0.00    -0.239 N 
ATOM     15  H   LIG    1       -6.392   1.075   6.800  0.00  0.00    +0.192 HD
ATOM     16  N   LIG    1       -6.630   1.367   4.706  0.00  0.00    -0.046 NA
ATOM     17  N   LIG    1       -5.708   1.543   3.823  0.00  0.00    -0.023 NA
ATOM     18  N   LIG    1       -4.550   1.531   4.376  0.00  0.00    -0.108 NA
ENDBRANCH  12  13
ENDBRANCH   4   7
BRANCH   1  19
ATOM     19  C   LIG    1       -1.054   2.254   0.646  0.00  0.00    +0.158 C 
BRANCH  19  25
ATOM     20  C   LIG    1        0.278   0.254  -0.076  0.00  0.00    +0.088 A 
ATOM     21  N   LIG    1        1.527  -0.045  -0.314  0.00  0.00    -0.343 N 
ATOM     22  H   LIG    1        1.869  -0.966  -0.610  0.00  0.00    +0.167 HD
ATOM     23  C   LIG    1        2.297   1.038  -0.111  0.00  0.00    +0.074 A 
ATOM     24  C   LIG    1        1.454   2.076   0.280  0.00  0.00    +0.152 A 
ATOM     25  N   LIG    1        0.178   1.545   0.292  0.00  0.00    -0.319 N 
BRANCH  23  26
ATOM     26  C   LIG    1        3.761   1.113  -0.272  0.00  0.00    -0.032 C 
ATOM     27  C   LIG    1        4.633   1.449   0.911  0.00  0.00    +0.045 C 
ATOM     28  C   LIG    1        4.311   0.884  -1.459  0.00  0.00    +0.014 C 
ENDBRANCH  23  26
BRANCH  24  29
ATOM     29  C   LIG    1        1.841   3.447   0.610  0.00  0.00    +0.356 C 
ATOM     30  O   LIG    1        3.017   3.753   0.657  0.00  0.00    -0.243 OA
BRANCH  29  31
ATOM     31  O   LIG    1        0.892   4.373   0.861  0.00  0.00    -0.476 OA
ATOM     32  H   LIG    1       -0.014   4.138   0.824  0.00  0.00    +0.295 HD
ENDBRANCH  29  31
ENDBRANCH  24  29
BRANCH  20  33
ATOM     33  C   LIG    1       -0.879  -0.704  -0.196  0.00  0.00    +0.072 C 
BRANCH  33  35
ATOM     34  C   LIG    1       -2.571  -1.665  -1.762  0.00  0.00    +0.004 C 
ATOM     35  C   LIG    1       -1.326  -0.783  -1.657  0.00  0.00    +0.004 C 
ENDBRANCH  33  35
ENDBRANCH  20  33
ENDBRANCH  19  25
ENDBRANCH   1  19
TORSDOF 9
