REMARK  Name = ZINC28570762
REMARK                            x       y       z     vdW  Elec       q    Type
REMARK                         _______ _______ _______ _____ _____    ______ ____
ROOT
ATOM      1  C   UNK    1       -4.577  -0.264   1.560  0.00  0.00    +0.068 C 
ENDROOT
BRANCH   1   2
ATOM      2  S   UNK    1       -3.025   0.660   1.730  0.00  0.00    -0.156 S 
BRANCH   2   3
ATOM      3  C   UNK    1       -2.514   0.979   0.019  0.00  0.00    +0.104 C 
BRANCH   3   6
ATOM      4  C   UNK    1        1.175   1.783   0.000  0.00  0.00    +0.002 A 
ATOM      5  C   UNK    1       -0.013   1.076   0.008  0.00  0.00    +0.004 A 
ATOM      6  C   UNK    1       -1.219   1.750   0.017  0.00  0.00    -0.036 A 
ATOM      7  C   UNK    1       -1.238   3.132   0.030  0.00  0.00    +0.024 A 
ATOM      8  C   UNK    1       -0.050   3.841   0.022  0.00  0.00    +0.041 A 
ATOM      9 CL   UNK    1       -0.074   5.577   0.030  0.00  0.00    -0.084 Cl
ATOM     10  C   UNK    1        1.157   3.165   0.007  0.00  0.00    +0.020 A 
ENDBRANCH   3   6
ENDBRANCH   2   3
ENDBRANCH   1   2
BRANCH   1  11
ATOM     11  C   UNK    1       -5.124  -0.602   2.948  0.00  0.00    +0.005 C 
BRANCH  11  12
ATOM     12  C   UNK    1       -6.433  -1.381   2.804  0.00  0.00    +0.036 C 
BRANCH  12  13
ATOM     13  N   UNK    1       -7.450  -0.520   2.184  0.00  0.00    +0.387 N 
ATOM     14  H   UNK    1       -7.617   0.364   2.817  0.00  0.00    -0.089 HD
ATOM     15  H   UNK    1       -7.103  -0.200   1.190  0.00  0.00    -0.089 HD
ATOM     16  H   UNK    1       -8.391  -1.080   2.080  0.00  0.00    -0.089 HD
ENDBRANCH  12  13
BRANCH  12  17
ATOM     17  C   UNK    1       -6.909  -1.820   4.165  0.00  0.00    +0.290 C 
ATOM     18  O   UNK    1       -7.777  -1.198   4.731  0.00  0.00    -0.253 OA
BRANCH  17  19
ATOM     19  O   UNK    1       -6.369  -2.901   4.748  0.00  0.00    -0.482 OA
ATOM     20  H   UNK    1       -5.696  -3.383   4.309  0.00  0.00    +0.295 HD
ENDBRANCH  17  19
ENDBRANCH  12  17
ENDBRANCH  11  12
ENDBRANCH   1  11
TORSDOF 8
