REMARK  Name = ZINC66074200
REMARK                            x       y       z     vdW  Elec       q    Type
REMARK                         _______ _______ _______ _____ _____    ______ ____
ROOT
ATOM      1  N   LIG    1        0.795  -0.411  -1.394  0.00  0.00    -0.190 N 
ATOM      2  C   LIG    1        0.149  -0.623  -2.693  0.00  0.00    +0.137 C 
ATOM      3  C   LIG    1        1.294  -0.976  -3.658  0.00  0.00    +0.061 C 
ATOM      4  C   LIG    1        2.534  -0.933  -2.797  0.00  0.00    +0.022 A 
ATOM      5  C   LIG    1        3.876  -1.158  -3.083  0.00  0.00    +0.084 A 
ATOM      6  N   LIG    1        4.773  -1.034  -2.103  0.00  0.00    -0.214 NA
ATOM      7  C   LIG    1        4.388  -0.714  -0.878  0.00  0.00    +0.220 A 
ATOM      8  N   LIG    1        3.118  -0.497  -0.574  0.00  0.00    -0.198 NA
ATOM      9  C   LIG    1        2.161  -0.595  -1.502  0.00  0.00    +0.149 A 
ENDROOT
BRANCH   5  10
ATOM     10  C   LIG    1        4.304  -1.516  -4.456  0.00  0.00    +0.037 A 
ATOM     11  C   LIG    1        3.495  -2.307  -5.276  0.00  0.00    +0.126 A 
ATOM     12  N   LIG    1        3.912  -2.605  -6.494  0.00  0.00    -0.222 NA
ATOM     13  C   LIG    1        5.080  -2.163  -6.939  0.00  0.00    +0.213 A 
ATOM     14  N   LIG    1        5.875  -1.412  -6.191  0.00  0.00    -0.222 NA
ATOM     15  C   LIG    1        5.526  -1.067  -4.965  0.00  0.00    +0.126 A 
BRANCH  13  16
ATOM     16  N   LIG    1        5.479  -2.497  -8.220  0.00  0.00    -0.327 N 
ATOM     17  H   LIG    1        6.332  -2.182  -8.559  0.00  0.00    +0.145 HD
ATOM     18  H   LIG    1        4.908  -3.047  -8.778  0.00  0.00    +0.145 HD
ENDBRANCH  13  16
ENDBRANCH   5  10
BRANCH   7  19
ATOM     19  N   LIG    1        5.343  -0.601   0.117  0.00  0.00    -0.295 N 
ATOM     20  C   LIG    1        4.964  -0.252   1.496  0.00  0.00    +0.136 C 
ATOM     21  C   LIG    1        5.604  -1.271   2.445  0.00  0.00    +0.179 C 
ATOM     22  O   LIG    1        7.005  -1.353   2.174  0.00  0.00    -0.377 OA
ATOM     23  C   LIG    1        7.320  -1.817   0.859  0.00  0.00    +0.179 C 
ATOM     24  C   LIG    1        6.768  -0.831  -0.171  0.00  0.00    +0.136 C 
ENDBRANCH   7  19
BRANCH   1  26
ATOM     25  C   LIG    1       -0.022   1.810   0.012  0.00  0.00    +0.218 C 
ATOM     26  S   LIG    1        0.002  -0.004   0.002  0.00  0.00    +0.044 S 
ATOM     27  O   LIG    1       -1.315  -0.510  -0.168  0.00  0.00    -0.155 OA
ATOM     28  O   LIG    1        0.835  -0.488   1.046  0.00  0.00    -0.155 OA
ENDBRANCH   1  26
TORSDOF 4
