REMARK  Name = ZINC00056936
REMARK                            x       y       z     vdW  Elec       q    Type
REMARK                         _______ _______ _______ _____ _____    ______ ____
ROOT
ATOM      1  C   LIG    1       -0.018   1.503   0.010  0.00  0.00    +0.044 C 
ATOM      2  C   LIG    1        0.002  -0.004   0.002  0.00  0.00    -0.049 A 
ATOM      3  C   LIG    1        0.006  -0.698  -1.200  0.00  0.00    +0.005 A 
ATOM      4  C   LIG    1        0.025  -2.057  -1.240  0.00  0.00    +0.029 A 
ATOM      5  C   LIG    1        0.041  -2.818  -0.046  0.00  0.00    +0.079 A 
ATOM      6  C   LIG    1        0.036  -2.082   1.163  0.00  0.00    +0.040 A 
ATOM      7  S   LIG    1        0.060  -3.366   2.389  0.00  0.00    -0.067 S 
ATOM      8  C   LIG    1        0.074  -4.753   1.261  0.00  0.00    +0.109 A 
ATOM      9  N   LIG    1        0.060  -4.159   0.087  0.00  0.00    -0.239 NA
ATOM     10  C   LIG    1        0.023  -0.709   1.191  0.00  0.00    +0.020 A 
ENDROOT
BRANCH   8  11
ATOM     11  C   LIG    1        0.096  -6.198   1.568  0.00  0.00    +0.007 A 
ATOM     12  C   LIG    1        0.103  -6.631   2.896  0.00  0.00    +0.012 A 
ATOM     13  C   LIG    1        0.123  -7.978   3.179  0.00  0.00    +0.024 A 
ATOM     14  C   LIG    1        0.136  -8.908   2.144  0.00  0.00    +0.029 A 
ATOM     15  C   LIG    1        0.130  -8.480   0.821  0.00  0.00    +0.024 A 
ATOM     16  C   LIG    1        0.104  -7.133   0.531  0.00  0.00    +0.012 A 
BRANCH  14  17
ATOM     17  N   LIG    1        0.156 -10.271   2.434  0.00  0.00    -0.336 N 
ATOM     18  C   LIG    1        0.170 -11.251   1.345  0.00  0.00    +0.129 C 
ATOM     19  C   LIG    1        0.164 -10.724   3.827  0.00  0.00    +0.129 C 
ENDBRANCH  14  17
ENDBRANCH   8  11
TORSDOF 2
