REMARK  Name = ZINC62987125
REMARK                            x       y       z     vdW  Elec       q    Type
REMARK                         _______ _______ _______ _____ _____    ______ ____
ROOT
ATOM      1  C   LIG    1        0.081  -2.149  -1.277  0.00  0.00    +0.226 C 
ENDROOT
BRANCH   1   2
ATOM      2  C   LIG    1       -1.152  -2.586  -0.529  0.00  0.00    -0.001 A 
ATOM      3  C   LIG    1       -1.661  -1.797   0.486  0.00  0.00    +0.008 A 
ATOM      4  C   LIG    1       -2.792  -2.197   1.172  0.00  0.00    +0.000 A 
ATOM      5  C   LIG    1       -3.415  -3.386   0.843  0.00  0.00    +0.000 A 
ATOM      6  C   LIG    1       -2.908  -4.175  -0.173  0.00  0.00    +0.000 A 
ATOM      7  C   LIG    1       -1.779  -3.772  -0.862  0.00  0.00    +0.008 A 
ENDBRANCH   1   2
BRANCH   1   8
ATOM      8  C   LIG    1        1.304  -2.455  -0.451  0.00  0.00    -0.001 A 
ATOM      9  C   LIG    1        1.606  -1.676   0.650  0.00  0.00    +0.008 A 
ATOM     10  C   LIG    1        2.728  -1.957   1.408  0.00  0.00    +0.000 A 
ATOM     11  C   LIG    1        3.547  -3.016   1.065  0.00  0.00    +0.000 A 
ATOM     12  C   LIG    1        3.244  -3.795  -0.036  0.00  0.00    +0.000 A 
ATOM     13  C   LIG    1        2.120  -3.518  -0.791  0.00  0.00    +0.008 A 
ENDBRANCH   1   8
BRANCH   1  14
ATOM     14  N   LIG    1        0.013  -0.709  -1.533  0.00  0.00    -0.230 N 
ATOM     15  H   LIG    1        0.446  -0.087  -0.928  0.00  0.00    +0.292 HD
BRANCH  14  17
ATOM     16  C   LIG    1       -0.637   1.231  -2.957  0.00  0.00    +0.139 C 
ATOM     17  C   LIG    1       -0.664  -0.239  -2.628  0.00  0.00    +0.234 C 
ATOM     18  N   LIG    1       -1.327  -1.057  -3.379  0.00  0.00    -0.293 N 
ATOM     19  H   LIG    1       -1.283  -2.012  -3.212  0.00  0.00    +0.301 HD
ATOM     20  H   LIG    1       -1.868  -0.717  -4.108  0.00  0.00    +0.301 HD
ENDBRANCH  14  17
ENDBRANCH   1  14
TORSDOF 4
