REMARK  Name = ZINC20389414
REMARK                            x       y       z     vdW  Elec       q    Type
REMARK                         _______ _______ _______ _____ _____    ______ ____
ROOT
ATOM      1  C   LIG    1        0.029   4.169   0.025  0.00  0.00    +0.074 A 
ATOM      2  C   LIG    1       -1.204   3.522   0.032  0.00  0.00    +0.038 A 
ATOM      3  C   LIG    1       -1.242   2.130   0.019  0.00  0.00    +0.005 A 
ATOM      4  C   LIG    1       -0.017   1.428   0.010  0.00  0.00    +0.099 A 
ATOM      5  C   LIG    1        1.183   2.159   0.002  0.00  0.00    +0.135 A 
ATOM      6  N   LIG    1        1.165   3.481   0.010  0.00  0.00    -0.231 NA
ENDROOT
BRANCH   3   7
ATOM      7  C   LIG    1       -2.534   1.405   0.021  0.00  0.00    -0.016 A 
ATOM      8  C   LIG    1       -3.518   1.729   0.955  0.00  0.00    +0.010 A 
ATOM      9  C   LIG    1       -4.721   1.054   0.949  0.00  0.00    +0.020 A 
ATOM     10  C   LIG    1       -4.949   0.049   0.025  0.00  0.00    +0.041 A 
ATOM     11 CL   LIG    1       -6.463  -0.801   0.027  0.00  0.00    -0.084 Cl
ATOM     12  C   LIG    1       -3.974  -0.281  -0.902  0.00  0.00    +0.020 A 
ATOM     13  C   LIG    1       -2.769   0.391  -0.908  0.00  0.00    +0.010 A 
ENDBRANCH   3   7
BRANCH   1  17
ATOM     14  C   LIG    1        0.159   8.418   0.046  0.00  0.00    +0.000 A 
ATOM     15  C   LIG    1        1.337   7.693   0.032  0.00  0.00    +0.001 A 
ATOM     16  C   LIG    1        1.301   6.313   0.025  0.00  0.00    +0.010 A 
ATOM     17  C   LIG    1        0.074   5.651   0.033  0.00  0.00    +0.000 A 
ATOM     18  C   LIG    1       -1.109   6.387   0.042  0.00  0.00    +0.010 A 
ATOM     19  C   LIG    1       -1.061   7.766   0.055  0.00  0.00    +0.001 A 
ENDBRANCH   1  17
BRANCH   5  20
ATOM     20  N   LIG    1        2.394   1.490  -0.013  0.00  0.00    -0.342 N 
ATOM     21  H   LIG    1        2.415   0.390  -0.019  0.00  0.00    +0.144 HD
ATOM     22  H   LIG    1        3.336   2.058  -0.019  0.00  0.00    +0.144 HD
ENDBRANCH   5  20
BRANCH   4  23
ATOM     23  C   LIG    1        0.002  -0.004   0.002  0.00  0.00    +0.103 C 
ATOM     24  N   LIG    1        0.018  -1.140  -0.004  0.00  0.00    -0.191 NA
ENDBRANCH   4  23
TORSDOF 4
