REMARK  Name = ZINC14089740
REMARK                            x       y       z     vdW  Elec       q    Type
REMARK                         _______ _______ _______ _____ _____    ______ ____
ROOT
ATOM      1  C   LIG    1        2.224  -3.313   8.070  0.00  0.00    -0.096 C 
ATOM      2  N   LIG    1        2.187  -1.871   7.771  0.00  0.00    +0.380 N 
ATOM      3  H   LIG    1        2.078  -1.352   8.650  0.00  0.00    -0.082 HD
ATOM      4  C   LIG    1        1.025  -1.565   6.892  0.00  0.00    -0.057 C 
ATOM      5  C   LIG    1        1.051  -2.396   5.619  0.00  0.00    +0.021 C 
ATOM      6  C   LIG    1        1.856  -1.773   4.525  0.00  0.00    -0.041 A 
ATOM      7  C   LIG    1        2.114  -2.349   3.294  0.00  0.00    +0.007 A 
ATOM      8  C   LIG    1        2.819  -1.646   2.330  0.00  0.00    +0.049 A 
ATOM      9  C   LIG    1        3.286  -0.347   2.516  0.00  0.00    +0.159 A 
ATOM     10  C   LIG    1        3.034   0.247   3.757  0.00  0.00    +0.166 A 
ATOM     11  O   LIG    1        3.276   1.487   4.241  0.00  0.00    -0.481 OA
ATOM     12  C   LIG    1        2.303   1.731   5.323  0.00  0.00    +0.217 C 
ATOM     13  C   LIG    1        1.005   2.029   4.564  0.00  0.00    +0.185 C 
ATOM     14  C   LIG    1       -0.206   1.375   5.122  0.00  0.00    +0.004 C 
ATOM     15  C   LIG    1       -0.236   0.445   6.019  0.00  0.00    -0.026 C 
ATOM     16  C   LIG    1        2.259   0.342   5.950  0.00  0.00    +0.042 C 
ATOM     17  C   LIG    1        3.460   0.051   6.854  0.00  0.00    -0.003 C 
ATOM     18  C   LIG    1        2.375  -0.515   4.714  0.00  0.00    +0.011 A 
ATOM     19  C   LIG    1        0.996  -0.058   6.675  0.00  0.00    +0.012 C 
ATOM     20  C   LIG    1        3.462  -1.460   7.130  0.00  0.00    -0.078 C 
ENDROOT
BRANCH   9  21
ATOM     21  O   LIG    1        3.956   0.315   1.535  0.00  0.00    -0.503 OA
ATOM     22  H   LIG    1        3.381   0.755   0.894  0.00  0.00    +0.292 HD
ENDBRANCH   9  21
BRANCH  13  23
ATOM     23  O   LIG    1        1.165   1.601   3.210  0.00  0.00    -0.338 OA
BRANCH  23  24
ATOM     24  C   LIG    1        0.270   2.231   2.292  0.00  0.00    +0.283 C 
ATOM     25  C   LIG    1        0.789   2.044   0.864  0.00  0.00    +0.201 C 
ATOM     26  C   LIG    1       -0.206   2.669  -0.119  0.00  0.00    +0.179 C 
ATOM     27  C   LIG    1       -1.582   2.027   0.088  0.00  0.00    +0.185 C 
ATOM     28  C   LIG    1       -2.009   2.215   1.546  0.00  0.00    +0.260 C 
ATOM     29  O   LIG    1       -1.025   1.639   2.407  0.00  0.00    -0.331 OA
BRANCH  25  30
ATOM     30  O   LIG    1        2.059   2.684   0.728  0.00  0.00    -0.384 OA
ATOM     31  H   LIG    1        2.708   2.415   1.393  0.00  0.00    +0.210 HD
ENDBRANCH  25  30
BRANCH  26  32
ATOM     32  O   LIG    1        0.234   2.435  -1.458  0.00  0.00    -0.386 OA
ATOM     33  H   LIG    1       -0.355   2.798  -2.135  0.00  0.00    +0.210 HD
ENDBRANCH  26  32
BRANCH  27  34
ATOM     34  O   LIG    1       -2.535   2.652  -0.774  0.00  0.00    -0.386 OA
ATOM     35  H   LIG    1       -3.430   2.296  -0.695  0.00  0.00    +0.210 HD
ENDBRANCH  27  34
BRANCH  28  36
ATOM     36  C   LIG    1       -3.335   1.535   1.772  0.00  0.00    +0.337 C 
ATOM     37  O   LIG    1       -3.410   0.590   2.521  0.00  0.00    -0.248 OA
BRANCH  36  38
ATOM     38  O   LIG    1       -4.434   1.980   1.142  0.00  0.00    -0.479 OA
ATOM     39  H   LIG    1       -4.376   2.713   0.561  0.00  0.00    +0.295 HD
ENDBRANCH  36  38
ENDBRANCH  28  36
ENDBRANCH  23  24
ENDBRANCH  13  23
TORSDOF 8
