REMARK  Name = ZINC00011665
REMARK                            x       y       z     vdW  Elec       q    Type
REMARK                         _______ _______ _______ _____ _____    ______ ____
ROOT
ATOM      1  N   LIG    1        0.738  -1.966  -1.265  0.00  0.00    +0.385 N 
ATOM      2  H   LIG    1       -0.204  -2.316  -1.176  0.00  0.00    -0.081 HD
ATOM      3  C   LIG    1        1.544  -2.449  -0.143  0.00  0.00    -0.073 C 
ATOM      4  C   LIG    1        1.430  -3.958  -0.005  0.00  0.00    +0.017 C 
ATOM      5  C   LIG    1        1.411  -4.648  -1.339  0.00  0.00    -0.043 A 
ATOM      6  C   LIG    1        1.457  -6.036  -1.362  0.00  0.00    +0.049 A 
ATOM      7  C   LIG    1        1.468  -6.725  -2.563  0.00  0.00    +0.118 A 
ATOM      8  C   LIG    1        1.428  -6.025  -3.758  0.00  0.00    +0.054 A 
ATOM      9  C   LIG    1        1.359  -4.638  -3.740  0.00  0.00    -0.009 A 
ATOM     10  C   LIG    1        1.313  -3.872  -5.008  0.00  0.00    +0.031 A 
ATOM     11  C   LIG    1        1.687  -4.466  -6.213  0.00  0.00    +0.166 A 
ATOM     12  C   LIG    1        1.651  -3.719  -7.386  0.00  0.00    +0.159 A 
ATOM     13  C   LIG    1        1.246  -2.394  -7.351  0.00  0.00    +0.049 A 
ATOM     14  C   LIG    1        0.869  -1.810  -6.154  0.00  0.00    +0.008 A 
ATOM     15  C   LIG    1        0.894  -2.543  -4.986  0.00  0.00    -0.037 A 
ATOM     16  C   LIG    1        0.467  -1.920  -3.685  0.00  0.00    +0.025 C 
ATOM     17  C   LIG    1        1.357  -3.947  -2.525  0.00  0.00    -0.049 A 
ATOM     18  C   LIG    1        1.319  -2.441  -2.529  0.00  0.00    -0.032 C 
ENDROOT
BRANCH   7  19
ATOM     19  O   LIG    1        1.519  -8.083  -2.570  0.00  0.00    -0.507 OA
ATOM     20  H   LIG    1        0.650  -8.509  -2.562  0.00  0.00    +0.292 HD
ENDBRANCH   7  19
BRANCH  11  21
ATOM     21  O   LIG    1        2.085  -5.765  -6.241  0.00  0.00    -0.503 OA
ATOM     22  H   LIG    1        1.364  -6.394  -6.384  0.00  0.00    +0.292 HD
ENDBRANCH  11  21
BRANCH  12  23
ATOM     23  O   LIG    1        2.013  -4.288  -8.567  0.00  0.00    -0.503 OA
ATOM     24  H   LIG    1        1.281  -4.705  -9.043  0.00  0.00    +0.292 HD
ENDBRANCH  12  23
BRANCH   1  25
ATOM     25  C   LIG    1        0.718  -0.497  -1.257  0.00  0.00    -0.078 C 
BRANCH  25  27
ATOM     26  C   LIG    1       -0.019   1.526   0.010  0.00  0.00    +0.002 C 
ATOM     27  C   LIG    1        0.002  -0.004   0.002  0.00  0.00    -0.022 C 
ENDBRANCH  25  27
ENDBRANCH   1  25
TORSDOF 5
