REMARK  Name = ZINC20639542
REMARK                            x       y       z     vdW  Elec       q    Type
REMARK                         _______ _______ _______ _____ _____    ______ ____
ROOT
ATOM      1  C   LIG    1        2.754  -4.554   3.364  0.00  0.00    +0.121 A 
ATOM      2  C   LIG    1        3.999  -5.122   3.132  0.00  0.00    +0.046 A 
ATOM      3  C   LIG    1        4.800  -5.484   4.197  0.00  0.00    +0.007 A 
ATOM      4  C   LIG    1        4.363  -5.282   5.493  0.00  0.00    -0.043 A 
ATOM      5  C   LIG    1        3.123  -4.718   5.727  0.00  0.00    +0.007 A 
ATOM      6  C   LIG    1        2.320  -4.348   4.665  0.00  0.00    +0.046 A 
ENDROOT
BRANCH   1   7
ATOM      7  O   LIG    1        1.964  -4.196   2.318  0.00  0.00    -0.491 OA
BRANCH   7   8
ATOM      8  C   LIG    1        2.475  -4.439   1.006  0.00  0.00    +0.244 C 
BRANCH   8   9
ATOM      9  C   LIG    1        1.453  -3.974  -0.034  0.00  0.00    +0.125 C 
BRANCH   9  15
ATOM     10  C   LIG    1        0.825   1.563  -0.866  0.00  0.00    -0.096 C 
ATOM     11  N   LIG    1        0.993   0.112  -1.016  0.00  0.00    +0.379 N 
ATOM     12  H   LIG    1        1.029  -0.123  -1.997  0.00  0.00    -0.082 HD
ATOM     13  C   LIG    1        2.243  -0.306  -0.367  0.00  0.00    -0.064 C 
ATOM     14  C   LIG    1        2.428  -1.815  -0.540  0.00  0.00    +0.066 C 
ATOM     15  N   LIG    1        1.285  -2.518   0.061  0.00  0.00    -0.303 NA
ATOM     16  C   LIG    1        0.024  -2.091  -0.561  0.00  0.00    +0.066 C 
ATOM     17  C   LIG    1       -0.141  -0.580  -0.389  0.00  0.00    -0.064 C 
ENDBRANCH   9  15
ENDBRANCH   8   9
ENDBRANCH   7   8
ENDBRANCH   1   7
BRANCH   4  18
ATOM     18  C   LIG    1        5.239  -5.679   6.653  0.00  0.00    +0.070 C 
BRANCH  18  19
ATOM     19  C   LIG    1        6.120  -4.519   7.037  0.00  0.00    -0.043 A 
ATOM     20  C   LIG    1        7.360  -4.366   6.445  0.00  0.00    +0.004 A 
ATOM     21  C   LIG    1        8.168  -3.301   6.798  0.00  0.00    +0.000 A 
ATOM     22  C   LIG    1        7.736  -2.389   7.742  0.00  0.00    +0.000 A 
ATOM     23  C   LIG    1        6.496  -2.541   8.333  0.00  0.00    +0.000 A 
ATOM     24  C   LIG    1        5.686  -3.603   7.978  0.00  0.00    +0.004 A 
ENDBRANCH  18  19
ENDBRANCH   4  18
TORSDOF 6
