REMARK  Name = ZINC19367047
REMARK                            x       y       z     vdW  Elec       q    Type
REMARK                         _______ _______ _______ _____ _____    ______ ____
ROOT
ATOM      1  N   LIG    1       -0.018   1.093   2.457  0.00  0.00    +0.383 N 
ATOM      2  H   LIG    1        0.997   1.516   2.440  0.00  0.00    -0.081 HD
ATOM      3  C   LIG    1        0.100  -0.372   2.437  0.00  0.00    -0.063 C 
ATOM      4  C   LIG    1        0.913  -0.832   3.650  0.00  0.00    +0.066 C 
ATOM      5  N   LIG    1        0.252  -0.376   4.881  0.00  0.00    -0.303 NA
ATOM      6  C   LIG    1        0.134   1.089   4.900  0.00  0.00    +0.066 C 
ATOM      7  C   LIG    1       -0.679   1.548   3.688  0.00  0.00    -0.063 C 
ENDROOT
BRANCH   1  11
ATOM      8  C   LIG    1       -0.773   3.123  -1.223  0.00  0.00    -0.000 C 
ATOM      9  C   LIG    1       -0.753   1.593  -1.232  0.00  0.00    -0.002 C 
ATOM     10  C   LIG    1       -0.013   1.086   0.008  0.00  0.00    -0.015 C 
ATOM     11  C   LIG    1       -0.729   1.579   1.267  0.00  0.00    -0.068 C 
ATOM     12  C   LIG    1       -0.750   3.109   1.275  0.00  0.00    -0.015 C 
ATOM     13  C   LIG    1       -1.490   3.616   0.036  0.00  0.00    -0.002 C 
ENDBRANCH   1  11
BRANCH   5  14
ATOM     14  C   LIG    1        0.963  -0.863   6.071  0.00  0.00    +0.057 C 
ATOM     15  C   LIG    1        2.367  -0.257   6.109  0.00  0.00    +0.019 C 
ATOM     16  C   LIG    1        3.107  -0.764   7.349  0.00  0.00    +0.002 C 
ATOM     17  C   LIG    1        3.211  -2.290   7.293  0.00  0.00    +0.000 C 
ATOM     18  C   LIG    1        1.806  -2.895   7.254  0.00  0.00    +0.002 C 
ATOM     19  C   LIG    1        1.066  -2.388   6.015  0.00  0.00    +0.019 C 
ENDBRANCH   5  14
TORSDOF 2
