REMARK  Name = ZINC29220788
REMARK                            x       y       z     vdW  Elec       q    Type
REMARK                         _______ _______ _______ _____ _____    ______ ____
ROOT
ATOM      1  C   LIG    1        2.038  -4.366  -4.113  0.00  0.00    +0.165 C 
ATOM      2  C   LIG    1        3.310  -3.514  -4.096  0.00  0.00    +0.030 C 
ATOM      3  C   LIG    1        4.311  -4.078  -5.107  0.00  0.00    +0.003 C 
ATOM      4  C   LIG    1        4.683  -5.509  -4.715  0.00  0.00    +0.017 C 
ATOM      5  C   LIG    1        3.426  -6.384  -4.739  0.00  0.00    +0.110 C 
ATOM      6  N   LIG    1        2.402  -5.770  -3.882  0.00  0.00    -0.165 NA
ENDROOT
BRANCH   1   9
ATOM      7  N   LIG    1       -0.179  -3.606  -3.320  0.00  0.00    -0.314 N 
ATOM      8  H   LIG    1       -0.500  -3.692  -4.231  0.00  0.00    +0.149 HD
ATOM      9  C   LIG    1        1.103  -3.901  -3.026  0.00  0.00    +0.232 C 
ATOM     10  O   LIG    1        1.505  -3.792  -1.887  0.00  0.00    -0.274 OA
BRANCH   7  11
ATOM     11  C   LIG    1       -1.087  -3.154  -2.264  0.00  0.00    +0.104 C 
BRANCH  11  12
ATOM     12  C   LIG    1       -2.471  -2.888  -2.860  0.00  0.00    +0.018 C 
BRANCH  12  14
ATOM     13  C   LIG    1       -4.803  -2.151  -2.352  0.00  0.00    +0.004 C 
ATOM     14  C   LIG    1       -3.420  -2.416  -1.756  0.00  0.00    -0.002 C 
ENDBRANCH  12  14
ENDBRANCH  11  12
ENDBRANCH   7  11
ENDBRANCH   1   9
BRANCH   6  15
ATOM     15  S   LIG    1        1.677  -6.643  -2.675  0.00  0.00    +0.062 S 
ATOM     16  O   LIG    1        1.607  -7.987  -3.132  0.00  0.00    -0.153 OA
ATOM     17  O   LIG    1        0.524  -5.911  -2.282  0.00  0.00    -0.153 OA
BRANCH  15  18
ATOM     18  C   LIG    1        2.773  -6.635  -1.296  0.00  0.00    +0.106 A 
ATOM     19  C   LIG    1        3.727  -7.627  -1.166  0.00  0.00    +0.028 A 
ATOM     20  C   LIG    1        4.587  -7.621  -0.084  0.00  0.00    +0.002 A 
ATOM     21  C   LIG    1        4.493  -6.623   0.869  0.00  0.00    +0.000 A 
ATOM     22  C   LIG    1        3.539  -5.631   0.738  0.00  0.00    +0.002 A 
ATOM     23  C   LIG    1        2.682  -5.634  -0.346  0.00  0.00    +0.028 A 
ENDBRANCH  15  18
ENDBRANCH   6  15
TORSDOF 6
