REMARK  Name = ZINC17175232
REMARK                            x       y       z     vdW  Elec       q    Type
REMARK                         _______ _______ _______ _____ _____    ______ ____
ROOT
ATOM      1  C   LIG    1       -0.016   1.352   0.009  0.00  0.00    +0.043 A 
ATOM      2  C   LIG    1        1.315   1.790  -0.001  0.00  0.00    +0.012 A 
ATOM      3  C   LIG    1        2.117   0.638  -0.054  0.00  0.00    +0.110 A 
ATOM      4  C   LIG    1        3.577   0.739  -0.187  0.00  0.00    +0.261 C 
ATOM      5  N   LIG    1        4.213   1.669   0.572  0.00  0.00    -0.310 N 
ATOM      6  H   LIG    1        5.123   1.924   0.355  0.00  0.00    +0.149 HD
ATOM      7  C   LIG    1        3.544   2.287   1.707  0.00  0.00    +0.109 C 
ATOM      8  C   LIG    1        2.677   3.488   1.317  0.00  0.00    +0.058 C 
ATOM      9  O   LIG    1        4.193   0.017  -0.949  0.00  0.00    -0.269 OA
ATOM     10  N   LIG    1        1.294  -0.440  -0.018  0.00  0.00    -0.345 N 
ATOM     11  H   LIG    1        1.577  -1.367  -0.009  0.00  0.00    +0.167 HD
ATOM     12  C   LIG    1        1.877   3.143   0.075  0.00  0.00    +0.007 C 
ATOM     13  C   LIG    1        1.690   4.045  -0.921  0.00  0.00    +0.177 C 
ATOM     14  C   LIG    1        0.936   3.858  -2.178  0.00  0.00    +0.370 C 
ATOM     15  N   LIG    1        1.028   5.016  -2.846  0.00  0.00    -0.001 NA
ATOM     16  C   LIG    1        1.739   5.887  -2.163  0.00  0.00    +0.365 C 
ATOM     17  O   LIG    1        0.348   2.851  -2.535  0.00  0.00    -0.245 OA
ATOM     18  N   LIG    1        2.164   5.359  -0.983  0.00  0.00    -0.202 N 
ATOM     19  H   LIG    1        2.698   5.810  -0.310  0.00  0.00    +0.251 HD
ATOM     20  C   LIG    1        0.002  -0.004   0.002  0.00  0.00    +0.084 A 
ATOM     21 BR   LIG    1       -1.526  -1.118   0.018  0.00  0.00    -0.031 Br
ENDROOT
BRANCH  16  22
ATOM     22  N   LIG    1        2.011   7.160  -2.582  0.00  0.00    -0.253 N 
ATOM     23  H   LIG    1        2.543   7.750  -2.027  0.00  0.00    +0.241 HD
ATOM     24  H   LIG    1        1.671   7.473  -3.435  0.00  0.00    +0.241 HD
ENDBRANCH  16  22
TORSDOF 1
