REMARK  Name = ZINC40845883
REMARK                            x       y       z     vdW  Elec       q    Type
REMARK                         _______ _______ _______ _____ _____    ______ ____
ROOT
ATOM      1  C   LIG    1        1.830  -3.139  -3.135  0.00  0.00    +0.109 A 
ATOM      2  N   LIG    1        1.591  -2.575  -4.351  0.00  0.00    -0.341 N 
ATOM      3  C   LIG    1        1.434  -3.600  -5.255  0.00  0.00    +0.078 A 
ATOM      4  C   LIG    1        1.173  -3.655  -6.631  0.00  0.00    +0.062 A 
ATOM      5  C   LIG    1        1.071  -4.894  -7.261  0.00  0.00    +0.015 A 
ATOM      6  C   LIG    1        1.226  -6.061  -6.535  0.00  0.00    +0.003 A 
ATOM      7  C   LIG    1        1.483  -6.019  -5.181  0.00  0.00    +0.030 A 
ATOM      8  C   LIG    1        1.590  -4.790  -4.526  0.00  0.00    +0.090 A 
ATOM      9  H   LIG    1        1.540  -1.626  -4.545  0.00  0.00    +0.167 HD
ATOM     10  N   LIG    1        1.835  -4.435  -3.237  0.00  0.00    -0.232 NA
ENDROOT
BRANCH   1  15
ATOM     11  N   LIG    1        0.690  -0.478  -1.207  0.00  0.00    +0.382 N 
ATOM     12  H   LIG    1        0.227  -0.126  -2.031  0.00  0.00    -0.081 HD
ATOM     13  C   LIG    1        2.111  -0.045  -1.190  0.00  0.00    -0.078 C 
ATOM     14  C   LIG    1        2.796  -1.044  -2.156  0.00  0.00    -0.009 C 
ATOM     15  C   LIG    1        2.062  -2.372  -1.859  0.00  0.00    +0.037 C 
ATOM     16  C   LIG    1        0.719  -1.956  -1.230  0.00  0.00    -0.067 C 
BRANCH  11  18
ATOM     17  C   LIG    1       -0.019   1.526   0.010  0.00  0.00    -0.014 C 
ATOM     18  C   LIG    1        0.002  -0.004   0.002  0.00  0.00    -0.075 C 
ATOM     19  C   LIG    1       -1.433  -0.534   0.013  0.00  0.00    -0.014 C 
ENDBRANCH  11  18
ENDBRANCH   1  15
BRANCH   4  20
ATOM     20  C   LIG    1        1.008  -2.411  -7.406  0.00  0.00    +0.244 C 
ATOM     21  N   LIG    1        0.757  -2.470  -8.729  0.00  0.00    -0.325 N 
ATOM     22  H   LIG    1        0.648  -1.652  -9.239  0.00  0.00    +0.145 HD
ATOM     23  H   LIG    1        0.685  -3.330  -9.171  0.00  0.00    +0.145 HD
ATOM     24  O   LIG    1        1.097  -1.333  -6.852  0.00  0.00    -0.270 OA
ENDBRANCH   4  20
TORSDOF 3
