REMARK  Name = ZINC15923491
REMARK                            x       y       z     vdW  Elec       q    Type
REMARK                         _______ _______ _______ _____ _____    ______ ____
ROOT
ATOM      1  C   LIG    1        0.817   1.235  -0.139  0.00  0.00    +0.068 C 
ATOM      2  C   LIG    1       -0.010  -0.016   0.010  0.00  0.00    +0.067 C 
ATOM      3  N   LIG    1       -0.391  -0.405   1.187  0.00  0.00    -0.177 NA
ENDROOT
BRANCH   2   4
ATOM      4  C   LIG    1       -0.386  -0.797  -1.183  0.00  0.00    +0.016 A 
ATOM      5  C   LIG    1        0.520  -0.967  -2.239  0.00  0.00    +0.013 A 
ATOM      6  C   LIG    1        0.118  -1.709  -3.334  0.00  0.00    +0.020 A 
ATOM      7  C   LIG    1       -1.153  -2.255  -3.354  0.00  0.00    +0.111 A 
ATOM      8  N   LIG    1       -1.986  -2.078  -2.346  0.00  0.00    -0.263 NA
ATOM      9  C   LIG    1       -1.649  -1.385  -1.278  0.00  0.00    +0.120 A 
ENDBRANCH   2   4
BRANCH   3  10
ATOM     10  N   LIG    1       -1.034  -1.641   1.342  0.00  0.00    -0.259 N 
ATOM     11  H   LIG    1       -1.122  -2.240   0.584  0.00  0.00    +0.191 HD
ATOM     12  C   LIG    1       -1.536  -2.002   2.562  0.00  0.00    +0.142 C 
BRANCH  12  13
ATOM     13  N   LIG    1       -2.163  -3.208   2.713  0.00  0.00    -0.338 N 
ATOM     14  H   LIG    1       -2.519  -3.464   3.578  0.00  0.00    +0.144 HD
ATOM     15  H   LIG    1       -2.252  -3.807   1.956  0.00  0.00    +0.144 HD
ENDBRANCH  12  13
BRANCH  12  16
ATOM     16  S   LIG    1       -1.384  -0.977   3.859  0.00  0.00    -0.109 S 
ATOM     17  H   LIG    1       -0.732   0.152   3.471  0.00  0.00    +0.110 HD
ENDBRANCH  12  16
ENDBRANCH   3  10
TORSDOF 4
