REMARK  Name = ZINC53204530
REMARK                            x       y       z     vdW  Elec       q    Type
REMARK                         _______ _______ _______ _____ _____    ______ ____
ROOT
ATOM      1  N   LIG    1       -0.361  -3.803  -1.284  0.00  0.00    -0.220 N 
ATOM      2  C   LIG    1        0.881  -4.191  -0.942  0.00  0.00    +0.255 C 
ATOM      3  C   LIG    1        0.931  -5.669  -0.951  0.00  0.00    +0.049 A 
ATOM      4  C   LIG    1        1.919  -6.605  -0.690  0.00  0.00    +0.014 A 
ATOM      5  C   LIG    1        1.629  -7.957  -0.793  0.00  0.00    +0.001 A 
ATOM      6  C   LIG    1        0.362  -8.376  -1.155  0.00  0.00    +0.001 A 
ATOM      7  C   LIG    1       -0.635  -7.451  -1.419  0.00  0.00    +0.014 A 
ATOM      8  C   LIG    1       -0.360  -6.096  -1.320  0.00  0.00    +0.049 A 
ATOM      9  O   LIG    1        1.806  -3.452  -0.671  0.00  0.00    -0.269 OA
ATOM     10  C   LIG    1       -1.153  -4.864  -1.518  0.00  0.00    +0.255 C 
ATOM     11  O   LIG    1       -2.323  -4.818  -1.839  0.00  0.00    -0.269 OA
ENDROOT
BRANCH   1  12
ATOM     12  C   LIG    1       -0.794  -2.407  -1.382  0.00  0.00    +0.204 C 
BRANCH  12  13
ATOM     13  N   LIG    1       -1.172  -1.916  -0.050  0.00  0.00    -0.286 NA
BRANCH  13  14
ATOM     14  C   LIG    1       -1.069  -0.453   0.021  0.00  0.00    +0.085 C 
BRANCH  14  16
ATOM     15  C   LIG    1        0.513   1.482   0.054  0.00  0.00    +0.005 C 
ATOM     16  C   LIG    1        0.406  -0.044   0.013  0.00  0.00    +0.012 C 
ENDBRANCH  14  16
ENDBRANCH  13  14
BRANCH  13  17
ATOM     17  C   LIG    1       -2.521  -2.367   0.315  0.00  0.00    +0.085 C 
BRANCH  17  18
ATOM     18  C   LIG    1       -2.783  -2.054   1.790  0.00  0.00    +0.012 C 
ATOM     19  C   LIG    1       -4.188  -2.524   2.169  0.00  0.00    +0.005 C 
ENDBRANCH  17  18
ENDBRANCH  13  17
ENDBRANCH  12  13
ENDBRANCH   1  12
TORSDOF 6
