REMARK  Name = ZINC00042165
REMARK                            x       y       z     vdW  Elec       q    Type
REMARK                         _______ _______ _______ _____ _____    ______ ____
ROOT
ATOM      1  C   LIG    1        2.396   0.123  -0.020  0.00  0.00    +0.139 A 
ATOM      2  C   LIG    1        1.266  -0.636  -0.013  0.00  0.00    +0.098 A 
ATOM      3  C   LIG    1        0.002  -0.004   0.002  0.00  0.00    +0.193 A 
ATOM      4  C   LIG    1       -0.018   1.472   0.010  0.00  0.00    +0.065 A 
ATOM      5  C   LIG    1       -1.218   2.180   0.031  0.00  0.00    +0.035 A 
ATOM      6  C   LIG    1       -1.195   3.559   0.032  0.00  0.00    +0.042 A 
ATOM      7 CL   LIG    1       -2.685   4.449   0.051  0.00  0.00    -0.084 Cl
ATOM      8  C   LIG    1        0.016   4.238   0.025  0.00  0.00    +0.023 A 
ATOM      9  C   LIG    1        1.209   3.548   0.010  0.00  0.00    +0.048 A 
ATOM     10  C   LIG    1        1.206   2.158   0.002  0.00  0.00    +0.139 A 
ATOM     11  O   LIG    1       -1.032  -0.652   0.008  0.00  0.00    -0.287 OA
ATOM     12  O   LIG    1        2.364   1.464  -0.013  0.00  0.00    -0.455 OA
ENDROOT
BRANCH   1  16
ATOM     13  C   LIG    1        6.166  -1.829  -0.066  0.00  0.00    +0.120 A 
ATOM     14  C   LIG    1        6.105  -0.440  -0.059  0.00  0.00    +0.046 A 
ATOM     15  C   LIG    1        4.884   0.197  -0.043  0.00  0.00    +0.015 A 
ATOM     16  C   LIG    1        3.706  -0.555  -0.036  0.00  0.00    +0.018 A 
ATOM     17  C   LIG    1        3.772  -1.951  -0.039  0.00  0.00    +0.015 A 
ATOM     18  C   LIG    1        4.997  -2.580  -0.059  0.00  0.00    +0.046 A 
BRANCH  13  20
ATOM     19  C   LIG    1        7.363  -3.882  -0.087  0.00  0.00    +0.277 C 
ATOM     20  O   LIG    1        7.372  -2.453  -0.080  0.00  0.00    -0.495 OA
ENDBRANCH  13  20
ENDBRANCH   1  16
TORSDOF 2
