REMARK  Name = ZINC19796168
REMARK                            x       y       z     vdW  Elec       q    Type
REMARK                         _______ _______ _______ _____ _____    ______ ____
ROOT
ATOM      1  C   LIG    1        4.947  -3.260   1.121  0.00  0.00    +0.061 A 
ATOM      2  C   LIG    1        5.307  -1.930   1.351  0.00  0.00    +0.043 A 
ATOM      3  C   LIG    1        6.475  -1.640   2.022  0.00  0.00    +0.106 A 
ATOM      4  C   LIG    1        7.296  -2.663   2.470  0.00  0.00    +0.032 A 
ATOM      5  C   LIG    1        6.952  -3.982   2.249  0.00  0.00    +0.048 A 
ATOM      6  C   LIG    1        5.777  -4.292   1.581  0.00  0.00    +0.131 A 
ENDROOT
BRANCH   1  14
ATOM      7  C   LIG    1        0.739  -2.004  -1.265  0.00  0.00    +0.087 A 
ATOM      8  C   LIG    1        1.737  -2.809  -0.705  0.00  0.00    +0.095 A 
ATOM      9  C   LIG    1        1.374  -4.135  -0.930  0.00  0.00    +0.151 A 
ATOM     10  N   LIG    1        0.189  -4.117  -1.607  0.00  0.00    -0.260 N 
ATOM     11  C   LIG    1       -0.568  -5.288  -2.056  0.00  0.00    +0.173 C 
ATOM     12  C   LIG    1        2.261  -5.191  -0.438  0.00  0.00    +0.299 A 
ATOM     13  N   LIG    1        3.384  -4.840   0.207  0.00  0.00    -0.189 NA
ATOM     14  C   LIG    1        3.698  -3.577   0.403  0.00  0.00    +0.146 A 
ATOM     15  O   LIG    1        1.984  -6.367  -0.612  0.00  0.00    -0.263 OA
ATOM     16  N   LIG    1        2.915  -2.552  -0.029  0.00  0.00    -0.336 N 
ATOM     17  H   LIG    1        3.186  -1.636   0.137  0.00  0.00    +0.167 HD
ATOM     18  N   LIG    1       -0.177  -2.776  -1.792  0.00  0.00    -0.174 NA
BRANCH   7  19
ATOM     19  C   LIG    1        0.718  -0.497  -1.257  0.00  0.00    +0.059 C 
BRANCH  19  21
ATOM     20  C   LIG    1       -0.019   1.526   0.010  0.00  0.00    +0.004 C 
ATOM     21  C   LIG    1        0.002  -0.004   0.002  0.00  0.00    +0.003 C 
ENDBRANCH  19  21
ENDBRANCH   7  19
ENDBRANCH   1  14
BRANCH   3  22
ATOM     22  S   LIG    1        6.928   0.038   2.311  0.00  0.00    +0.061 S 
ATOM     23  O   LIG    1        6.272   0.813   1.317  0.00  0.00    -0.153 OA
ATOM     24  O   LIG    1        8.339   0.054   2.481  0.00  0.00    -0.153 OA
BRANCH  22  25
ATOM     25  N   LIG    1        6.271   0.478   3.766  0.00  0.00    -0.174 NA
ATOM     26  C   LIG    1        4.921   1.058   3.840  0.00  0.00    +0.125 C 
ATOM     27  C   LIG    1        4.114   0.280   4.885  0.00  0.00    +0.101 C 
ATOM     28  N   LIG    1        4.852   0.262   6.155  0.00  0.00    -0.303 NA
ATOM     29  C   LIG    1        4.039  -0.324   7.228  0.00  0.00    +0.105 C 
ATOM     30  C   LIG    1        6.131  -0.447   6.017  0.00  0.00    +0.101 C 
ATOM     31  C   LIG    1        7.019   0.295   5.019  0.00  0.00    +0.125 C 
ENDBRANCH  22  25
ENDBRANCH   3  22
BRANCH   6  32
ATOM     32  O   LIG    1        5.435  -5.587   1.368  0.00  0.00    -0.492 OA
BRANCH  32  33
ATOM     33  C   LIG    1        6.330  -6.584   1.865  0.00  0.00    +0.226 C 
ATOM     34  C   LIG    1        5.781  -7.973   1.533  0.00  0.00    +0.048 C 
ENDBRANCH  32  33
ENDBRANCH   6  32
TORSDOF 7
