REMARK  Name = ZINC26376363
REMARK                            x       y       z     vdW  Elec       q    Type
REMARK                         _______ _______ _______ _____ _____    ______ ____
ROOT
ATOM      1  C   LIG    1        8.364  -1.978   2.469  0.00  0.00    +0.234 C 
ATOM      2  N   LIG    1        9.595  -2.494   2.656  0.00  0.00    -0.304 N 
ATOM      3  H   LIG    1       10.261  -2.425   1.954  0.00  0.00    +0.149 HD
ATOM      4  O   LIG    1        7.531  -2.064   3.346  0.00  0.00    -0.274 OA
ENDROOT
BRANCH   1  10
ATOM      5  C   LIG    1        5.543  -1.588   1.383  0.00  0.00    +0.202 C 
ATOM      6  N   LIG    1        6.633  -0.816   1.207  0.00  0.00    -0.291 N 
ATOM      7  C   LIG    1        6.630   0.647   1.026  0.00  0.00    +0.108 C 
ATOM      8  C   LIG    1        8.036   1.106   1.485  0.00  0.00    +0.021 C 
ATOM      9  C   LIG    1        8.927  -0.057   0.974  0.00  0.00    +0.033 C 
ATOM     10  C   LIG    1        8.024  -1.293   1.171  0.00  0.00    +0.162 C 
ATOM     11  O   LIG    1        5.665  -2.786   1.529  0.00  0.00    -0.277 OA
BRANCH   5  12
ATOM     12  C   LIG    1        4.171  -0.963   1.399  0.00  0.00    +0.017 C 
BRANCH  12  13
ATOM     13  N   LIG    1        3.226  -1.872   2.061  0.00  0.00    +0.386 N 
ATOM     14  H   LIG    1        3.530  -2.041   3.008  0.00  0.00    -0.089 HD
ATOM     15  H   LIG    1        3.192  -2.746   1.558  0.00  0.00    -0.089 HD
ATOM     16  H   LIG    1        2.308  -1.454   2.072  0.00  0.00    -0.089 HD
ENDBRANCH  12  13
BRANCH  12  17
ATOM     17  C   LIG    1        3.711  -0.707  -0.038  0.00  0.00    +0.028 C 
BRANCH  17  21
ATOM     18  C   LIG    1       -0.017   1.378   0.010  0.00  0.00    +0.000 A 
ATOM     19  C   LIG    1        1.171   2.086   0.002  0.00  0.00    +0.000 A 
ATOM     20  C   LIG    1        2.377   1.411  -0.013  0.00  0.00    +0.003 A 
ATOM     21  C   LIG    1        2.396   0.029  -0.020  0.00  0.00    -0.048 A 
ATOM     22  C   LIG    1        1.208  -0.679  -0.012  0.00  0.00    +0.003 A 
ATOM     23  C   LIG    1        0.002  -0.004   0.002  0.00  0.00    +0.000 A 
ENDBRANCH  17  21
ENDBRANCH  12  17
ENDBRANCH   5  12
ENDBRANCH   1  10
BRANCH   2  24
ATOM     24  C   LIG    1        9.927  -3.160   3.918  0.00  0.00    +0.141 C 
BRANCH  24  25
ATOM     25  C   LIG    1       10.363  -2.132   4.929  0.00  0.00    +0.168 C 
ATOM     26  O   LIG    1       10.655  -1.017   4.569  0.00  0.00    -0.294 OA
BRANCH  25  27
ATOM     27  C   LIG    1       10.435  -2.494   6.390  0.00  0.00    +0.184 C 
ATOM     28 CL   LIG    1       10.985  -1.063   7.338  0.00  0.00    -0.117 Cl
ENDBRANCH  25  27
ENDBRANCH  24  25
BRANCH  24  29
ATOM     29  C   LIG    1       11.062  -4.160   3.684  0.00  0.00    +0.033 C 
BRANCH  29  30
ATOM     30  C   LIG    1       10.577  -5.274   2.754  0.00  0.00    +0.039 C 
BRANCH  30  31
ATOM     31  C   LIG    1       11.712  -6.273   2.521  0.00  0.00    +0.196 C 
BRANCH  31  32
ATOM     32  N   LIG    1       11.248  -7.339   1.630  0.00  0.00    -0.279 N 
ATOM     33  H   LIG    1       10.340  -7.327   1.290  0.00  0.00    +0.258 HD
ATOM     34  C   LIG    1       12.056  -8.305   1.294  0.00  0.00    +0.341 C 
BRANCH  34  35
ATOM     35  N   LIG    1       11.621  -9.306   0.458  0.00  0.00    -0.292 N 
ATOM     36  H   LIG    1       12.222 -10.025   0.208  0.00  0.00    +0.255 HD
ATOM     37  H   LIG    1       10.712  -9.294   0.118  0.00  0.00    +0.255 HD
ENDBRANCH  34  35
BRANCH  34  38
ATOM     38  N   LIG    1       13.344  -8.323   1.775  0.00  0.00    -0.292 N 
ATOM     39  H   LIG    1       13.945  -9.042   1.525  0.00  0.00    +0.255 HD
ATOM     40  H   LIG    1       13.651  -7.617   2.365  0.00  0.00    +0.255 HD
ENDBRANCH  34  38
ENDBRANCH  31  32
ENDBRANCH  30  31
ENDBRANCH  29  30
ENDBRANCH  24  29
ENDBRANCH   2  24
TORSDOF 14
