REMARK  Name = ZINC66074133
REMARK                            x       y       z     vdW  Elec       q    Type
REMARK                         _______ _______ _______ _____ _____    ______ ____
ROOT
ATOM      1  C   LIG    1       -0.018   1.503   0.010  0.00  0.00    +0.066 C 
ATOM      2  C   LIG    1        0.002  -0.004   0.002  0.00  0.00    +0.042 A 
ATOM      3  C   LIG    1       -1.204  -0.719   0.004  0.00  0.00    +0.046 A 
ATOM      4  C   LIG    1       -1.176  -2.074  -0.004  0.00  0.00    +0.044 A 
ATOM      5  C   LIG    1       -2.459  -2.864  -0.002  0.00  0.00    +0.066 C 
ATOM      6  N   LIG    1        0.029  -2.714  -0.014  0.00  0.00    -0.216 N 
ATOM      7  C   LIG    1        1.189  -1.982  -0.015  0.00  0.00    +0.183 A 
ATOM      8  C   LIG    1        2.241  -2.887  -0.026  0.00  0.00    +0.171 A 
ATOM      9  C   LIG    1        1.693  -4.169  -0.030  0.00  0.00    +0.146 A 
ATOM     10  N   LIG    1        0.378  -4.069  -0.023  0.00  0.00    -0.156 NA
ATOM     11  N   LIG    1        1.149  -0.642  -0.012  0.00  0.00    -0.231 NA
ENDROOT
BRANCH   8  12
ATOM     12  S   LIG    1        3.957  -2.489  -0.032  0.00  0.00    +0.031 S 
ATOM     13  O   LIG    1        4.068  -1.181  -0.577  0.00  0.00    -0.164 OA
ATOM     14  O   LIG    1        4.631  -3.607  -0.593  0.00  0.00    -0.164 OA
BRANCH  12  15
ATOM     15  C   LIG    1        4.473  -2.380   1.649  0.00  0.00    +0.094 A 
ATOM     16  C   LIG    1        4.400  -1.173   2.318  0.00  0.00    +0.027 A 
ATOM     17  C   LIG    1        4.805  -1.087   3.637  0.00  0.00    +0.002 A 
ATOM     18  C   LIG    1        5.283  -2.210   4.287  0.00  0.00    +0.000 A 
ATOM     19  C   LIG    1        5.355  -3.417   3.618  0.00  0.00    +0.002 A 
ATOM     20  C   LIG    1        4.946  -3.503   2.301  0.00  0.00    +0.027 A 
ENDBRANCH  12  15
ENDBRANCH   8  12
BRANCH   9  21
ATOM     21  S   LIG    1        2.608  -5.675  -0.043  0.00  0.00    -0.106 S 
ATOM     22  C   LIG    1        1.331  -6.963  -0.045  0.00  0.00    +0.091 C 
ENDBRANCH   9  21
TORSDOF 3
