REMARK  Name = ZINC16082005
REMARK                            x       y       z     vdW  Elec       q    Type
REMARK                         _______ _______ _______ _____ _____    ______ ____
ROOT
ATOM      1  C   LIG    1        0.636   1.805  -0.127  0.00  0.00    -0.095 C 
ATOM      2  N   LIG    1        0.481   0.359   0.082  0.00  0.00    +0.382 N 
ATOM      3  H   LIG    1        0.758  -0.132  -0.755  0.00  0.00    -0.081 HD
ATOM      4  C   LIG    1       -0.923   0.057   0.382  0.00  0.00    -0.066 C 
ATOM      5  C   LIG    1       -1.105  -1.456   0.521  0.00  0.00    -0.015 C 
ATOM      6  C   LIG    1       -0.217  -1.969   1.658  0.00  0.00    -0.003 C 
ATOM      7  C   LIG    1        1.237  -1.583   1.370  0.00  0.00    -0.015 C 
ATOM      8  C   LIG    1        1.332  -0.066   1.200  0.00  0.00    -0.066 C 
ENDROOT
BRANCH   4   9
ATOM      9  C   LIG    1       -1.809   0.574  -0.753  0.00  0.00    +0.021 C 
BRANCH   9  10
ATOM     10  C   LIG    1       -3.280   0.366  -0.387  0.00  0.00    +0.143 C 
BRANCH  10  11
ATOM     11  C   LIG    1       -4.150   0.783  -1.546  0.00  0.00    -0.019 A 
ATOM     12  C   LIG    1       -4.422   2.121  -1.759  0.00  0.00    +0.006 A 
ATOM     13  C   LIG    1       -5.220   2.503  -2.822  0.00  0.00    +0.000 A 
ATOM     14  C   LIG    1       -5.745   1.547  -3.671  0.00  0.00    +0.000 A 
ATOM     15  C   LIG    1       -5.471   0.208  -3.458  0.00  0.00    +0.000 A 
ATOM     16  C   LIG    1       -4.670  -0.173  -2.398  0.00  0.00    +0.006 A 
ENDBRANCH  10  11
BRANCH  10  17
ATOM     17  O   LIG    1       -3.602   1.157   0.758  0.00  0.00    -0.387 OA
ATOM     18  H   LIG    1       -3.536   2.110   0.610  0.00  0.00    +0.210 HD
ENDBRANCH  10  17
ENDBRANCH   9  10
ENDBRANCH   4   9
BRANCH   8  19
ATOM     19  C   LIG    1        2.783   0.325   0.913  0.00  0.00    +0.021 C 
BRANCH  19  20
ATOM     20  C   LIG    1        3.657  -0.041   2.115  0.00  0.00    +0.143 C 
BRANCH  20  21
ATOM     21  C   LIG    1        5.099   0.259   1.797  0.00  0.00    -0.019 A 
ATOM     22  C   LIG    1        5.601   1.532   1.995  0.00  0.00    +0.006 A 
ATOM     23  C   LIG    1        6.923   1.807   1.703  0.00  0.00    +0.000 A 
ATOM     24  C   LIG    1        7.745   0.808   1.214  0.00  0.00    +0.000 A 
ATOM     25  C   LIG    1        7.244  -0.465   1.017  0.00  0.00    +0.000 A 
ATOM     26  C   LIG    1        5.922  -0.741   1.313  0.00  0.00    +0.006 A 
ENDBRANCH  20  21
BRANCH  20  27
ATOM     27  O   LIG    1        3.250   0.726   3.250  0.00  0.00    -0.387 OA
ATOM     28  H   LIG    1        3.243   1.680   3.098  0.00  0.00    +0.210 HD
ENDBRANCH  20  27
ENDBRANCH  19  20
ENDBRANCH   8  19
TORSDOF 8
