REMARK  Name = ZINC28463001
REMARK                            x       y       z     vdW  Elec       q    Type
REMARK                         _______ _______ _______ _____ _____    ______ ____
ROOT
ATOM      1  N   LIG    1       -0.675   1.545   3.712  0.00  0.00    -0.346 N 
ATOM      2  C   LIG    1       -0.343   2.657   4.395  0.00  0.00    +0.098 A 
ATOM      3  C   LIG    1       -1.188   2.807   5.473  0.00  0.00    +0.043 A 
ATOM      4  C   LIG    1       -2.122   1.665   5.427  0.00  0.00    +0.010 A 
ATOM      5  C   LIG    1       -3.189   1.255   6.220  0.00  0.00    +0.011 A 
ATOM      6  C   LIG    1       -3.888   0.114   5.888  0.00  0.00    +0.001 A 
ATOM      7  C   LIG    1       -3.523  -0.630   4.777  0.00  0.00    +0.002 A 
ATOM      8  C   LIG    1       -2.465  -0.238   3.985  0.00  0.00    +0.026 A 
ATOM      9  C   LIG    1       -1.753   0.914   4.299  0.00  0.00    +0.050 A 
ENDROOT
BRANCH   3  10
ATOM     10  C   LIG    1       -1.166   3.850   6.434  0.00  0.00    +0.169 C 
ATOM     11  O   LIG    1       -1.976   3.859   7.338  0.00  0.00    -0.292 OA
BRANCH  10  12
ATOM     12  C   LIG    1       -0.138   4.946   6.332  0.00  0.00    +0.114 C 
BRANCH  12  13
ATOM     13  C   LIG    1       -0.329   5.921   7.465  0.00  0.00    -0.039 A 
ATOM     14  C   LIG    1        0.334   5.727   8.663  0.00  0.00    +0.004 A 
ATOM     15  C   LIG    1        0.159   6.622   9.702  0.00  0.00    +0.002 A 
ATOM     16  C   LIG    1       -0.678   7.710   9.544  0.00  0.00    +0.020 A 
ATOM     17  C   LIG    1       -1.341   7.905   8.346  0.00  0.00    +0.041 A 
ATOM     18 CL   LIG    1       -2.392   9.272   8.147  0.00  0.00    -0.084 Cl
ATOM     19  C   LIG    1       -1.162   7.012   7.304  0.00  0.00    +0.024 A 
ENDBRANCH  12  13
ENDBRANCH  10  12
ENDBRANCH   3  10
BRANCH   1  20
ATOM     20  C   LIG    1        0.011   1.072   2.506  0.00  0.00    +0.122 C 
BRANCH  20  21
ATOM     21  C   LIG    1       -0.729   1.579   1.267  0.00  0.00    +0.022 C 
BRANCH  21  22
ATOM     22  C   LIG    1       -0.013   1.086   0.008  0.00  0.00    +0.001 C 
BRANCH  22  24
ATOM     23  C   LIG    1       -0.037   1.099  -2.490  0.00  0.00    +0.004 C 
ATOM     24  C   LIG    1       -0.753   1.593  -1.232  0.00  0.00    -0.003 C 
ENDBRANCH  22  24
ENDBRANCH  21  22
ENDBRANCH  20  21
ENDBRANCH   1  20
TORSDOF 7
