REMARK  Name = ZINC13819656
REMARK                            x       y       z     vdW  Elec       q    Type
REMARK                         _______ _______ _______ _____ _____    ______ ____
ROOT
ATOM      1  C   LIG    1       -0.149   1.182   2.380  0.00  0.00    +0.140 A 
ATOM      2  C   LIG    1       -0.742   1.591   3.568  0.00  0.00    +0.071 A 
ATOM      3  C   LIG    1       -0.159   1.192   4.768  0.00  0.00    +0.046 A 
ATOM      4  C   LIG    1        0.986   0.406   4.734  0.00  0.00    +0.133 A 
ATOM      5  N   LIG    1        1.518   0.038   3.586  0.00  0.00    -0.258 NA
ATOM      6  C   LIG    1        0.991   0.392   2.430  0.00  0.00    +0.156 A 
ENDROOT
BRANCH   3   7
ATOM      7  N   LIG    1       -0.718   1.577   5.989  0.00  0.00    -0.357 N 
ATOM      8  H   LIG    1       -0.306   1.295   6.821  0.00  0.00    +0.142 HD
ATOM      9  H   LIG    1       -1.518   2.126   6.005  0.00  0.00    +0.142 HD
ENDBRANCH   3   7
BRANCH   1  10
ATOM     10  O   LIG    1       -0.682   1.547   1.184  0.00  0.00    -0.492 OA
BRANCH  10  11
ATOM     11  C   LIG    1       -0.013   1.086   0.008  0.00  0.00    +0.210 C 
BRANCH  11  12
ATOM     12  C   LIG    1       -0.753   1.593  -1.232  0.00  0.00    -0.041 C 
BRANCH  12  14
ATOM     13  C   LIG    1       -1.371   3.582  -2.466  0.00  0.00    -0.100 C 
ATOM     14  N   LIG    1       -0.664   3.064  -1.279  0.00  0.00    +0.379 N 
ATOM     15  H   LIG    1        0.323   3.343  -1.324  0.00  0.00    -0.086 HD
ATOM     16  H   LIG    1       -1.093   3.457  -0.432  0.00  0.00    -0.086 HD
ENDBRANCH  12  14
ENDBRANCH  11  12
ENDBRANCH  10  11
ENDBRANCH   1  10
TORSDOF 5
