REMARK  Name = ZINC28570764
REMARK                            x       y       z     vdW  Elec       q    Type
REMARK                         _______ _______ _______ _____ _____    ______ ____
ROOT
ATOM      1  C   UNK    1        0.926   5.150  -1.380  0.00  0.00    +0.068 C 
ENDROOT
BRANCH   1   2
ATOM      2  S   UNK    1        0.637   5.774  -3.058  0.00  0.00    -0.156 S 
BRANCH   2   3
ATOM      3  C   UNK    1        0.587   7.576  -2.853  0.00  0.00    +0.104 C 
BRANCH   3  10
ATOM      4  C   UNK    1        1.423   8.585  -4.986  0.00  0.00    +0.006 A 
ATOM      5  C   UNK    1        1.205   9.177  -6.216  0.00  0.00    +0.020 A 
ATOM      6  C   UNK    1       -0.086   9.423  -6.646  0.00  0.00    +0.041 A 
ATOM      7 CL   UNK    1       -0.360  10.172  -8.188  0.00  0.00    -0.084 Cl
ATOM      8  C   UNK    1       -1.160   9.070  -5.848  0.00  0.00    +0.020 A 
ATOM      9  C   UNK    1       -0.941   8.473  -4.621  0.00  0.00    +0.006 A 
ATOM     10  C   UNK    1        0.349   8.227  -4.191  0.00  0.00    -0.037 A 
ENDBRANCH   3  10
ENDBRANCH   2   3
ENDBRANCH   1   2
BRANCH   1  11
ATOM     11  C   UNK    1        0.991   3.621  -1.409  0.00  0.00    +0.005 C 
BRANCH  11  12
ATOM     12  C   UNK    1        1.235   3.094   0.007  0.00  0.00    +0.036 C 
BRANCH  12  13
ATOM     13  N   UNK    1        2.559   3.531   0.470  0.00  0.00    +0.387 N 
ATOM     14  H   UNK    1        3.332   3.137  -0.206  0.00  0.00    -0.089 HD
ATOM     15  H   UNK    1        2.602   4.630   0.476  0.00  0.00    -0.089 HD
ATOM     16  H   UNK    1        2.734   3.152   1.488  0.00  0.00    -0.089 HD
ENDBRANCH  12  13
BRANCH  12  17
ATOM     17  C   UNK    1        1.177   1.588  -0.001  0.00  0.00    +0.290 C 
ATOM     18  O   UNK    1        2.199   0.944  -0.014  0.00  0.00    -0.253 OA
BRANCH  17  19
ATOM     19  O   UNK    1       -0.011   0.963   0.007  0.00  0.00    -0.482 OA
ATOM     20  H   UNK    1       -0.804   1.462   0.018  0.00  0.00    +0.295 HD
ENDBRANCH  17  19
ENDBRANCH  12  17
ENDBRANCH  11  12
ENDBRANCH   1  11
TORSDOF 8
