REMARK  Name = ZINC27758564
REMARK                            x       y       z     vdW  Elec       q    Type
REMARK                         _______ _______ _______ _____ _____    ______ ____
ROOT
ATOM      1  C   LIG    1        1.213   1.802   0.000  0.00  0.00    +0.142 A 
ATOM      2  N   LIG    1        2.097   0.762  -0.014  0.00  0.00    -0.221 NA
ATOM      3  C   LIG    1        1.351  -0.401  -0.013  0.00  0.00    +0.172 A 
ATOM      4  C   LIG    1        1.649  -1.763  -0.022  0.00  0.00    +0.280 A 
ATOM      5  O   LIG    1        2.936  -2.188  -0.036  0.00  0.00    -0.265 OA
ATOM      6  N   LIG    1        0.647  -2.635  -0.016  0.00  0.00    -0.293 N 
ATOM      7  C   LIG    1       -0.616  -2.228  -0.001  0.00  0.00    +0.195 A 
ATOM      8  N   LIG    1       -0.945  -0.949   0.008  0.00  0.00    -0.197 NA
ATOM      9  H   LIG    1        0.879  -3.711  -0.023  0.00  0.00    +0.172 HD
ATOM     10  C   LIG    1        0.002  -0.004   0.003  0.00  0.00    +0.167 A 
ATOM     11  N   LIG    1       -0.016   1.339   0.010  0.00  0.00    -0.323 N 
ATOM     12  H   LIG    1       -0.976   1.876   0.022  0.00  0.00    +0.169 HD
ENDROOT
BRANCH   1  15
ATOM     13  C   LIG    1        0.995   5.550   0.021  0.00  0.00    +0.020 A 
ATOM     14  C   LIG    1        0.596   4.225   0.019  0.00  0.00    +0.014 A 
ATOM     15  C   LIG    1        1.584   3.234   0.004  0.00  0.00    +0.035 A 
ATOM     16  C   LIG    1        2.925   3.620  -0.002  0.00  0.00    +0.122 A 
ATOM     17  N   LIG    1        3.255   4.895  -0.004  0.00  0.00    -0.263 NA
ATOM     18  C   LIG    1        2.345   5.850   0.010  0.00  0.00    +0.111 A 
ENDBRANCH   1  15
BRANCH   7  19
ATOM     19  N   LIG    1       -1.624  -3.179   0.004  0.00  0.00    -0.329 N 
ATOM     20  H   LIG    1       -2.678  -2.862   0.016  0.00  0.00    +0.145 HD
ATOM     21  H   LIG    1       -1.371  -4.249  -0.003  0.00  0.00    +0.145 HD
ENDBRANCH   7  19
TORSDOF 2
