REMARK  Name = ZINC29332894
REMARK                            x       y       z     vdW  Elec       q    Type
REMARK                         _______ _______ _______ _____ _____    ______ ____
ROOT
ATOM      1  C   LIG    1       -1.829  -0.560   3.794  0.00  0.00    -0.011 C 
ATOM      2  C   LIG    1       -1.982   0.962   3.754  0.00  0.00    -0.049 C 
ATOM      3  C   LIG    1       -2.768   1.364   2.504  0.00  0.00    +0.144 C 
ATOM      4  O   LIG    1       -2.029   0.987   1.340  0.00  0.00    -0.379 OA
ATOM      5  C   LIG    1       -0.729   1.579   1.267  0.00  0.00    +0.112 C 
ATOM      6  C   LIG    1        0.079   1.179   2.504  0.00  0.00    -0.050 C 
ATOM      7  N   LIG    1       -0.652   1.587   3.713  0.00  0.00    +0.384 N 
ATOM      8  H   LIG    1       -0.075   1.280   4.598  0.00  0.00    -0.085 HD
ATOM      9  H   LIG    1       -0.762   2.682   3.708  0.00  0.00    -0.085 HD
ENDROOT
BRANCH   5  10
ATOM     10  C   LIG    1       -0.013   1.086   0.008  0.00  0.00    +0.150 C 
BRANCH  10  11
ATOM     11  C   LIG    1       -0.742   1.585  -1.213  0.00  0.00    +0.307 C 
ATOM     12  O   LIG    1       -1.732   2.266  -1.089  0.00  0.00    -0.251 OA
BRANCH  11  13
ATOM     13  O   LIG    1       -0.290   1.274  -2.438  0.00  0.00    -0.481 OA
ATOM     14  H   LIG    1        0.478   0.746  -2.534  0.00  0.00    +0.295 HD
ENDBRANCH  11  13
ENDBRANCH  10  11
ENDBRANCH   5  10
TORSDOF 3
