REMARK  Name = ZINC00007459
REMARK                            x       y       z     vdW  Elec       q    Type
REMARK                         _______ _______ _______ _____ _____    ______ ____
ROOT
ATOM      1  C   LIG    1        1.472  -2.858  -2.091  0.00  0.00    -0.060 C 
ATOM      2  C   LIG    1        1.308  -4.389  -1.980  0.00  0.00    +0.020 C 
ATOM      3  C   LIG    1        2.670  -4.959  -2.314  0.00  0.00    -0.042 A 
ATOM      4  C   LIG    1        3.039  -6.243  -2.679  0.00  0.00    +0.053 A 
ATOM      5  C   LIG    1        4.366  -6.540  -2.941  0.00  0.00    +0.162 A 
ATOM      6  C   LIG    1        5.330  -5.542  -2.837  0.00  0.00    +0.162 A 
ATOM      7  C   LIG    1        4.957  -4.260  -2.474  0.00  0.00    +0.053 A 
ATOM      8  C   LIG    1        3.629  -3.968  -2.212  0.00  0.00    -0.042 A 
ATOM      9  C   LIG    1        2.975  -2.665  -1.802  0.00  0.00    +0.020 C 
ENDROOT
BRANCH   1  10
ATOM     10  N   LIG    1        0.654  -2.172  -1.082  0.00  0.00    +0.382 N 
ATOM     11  H   LIG    1        0.860  -2.547  -0.169  0.00  0.00    -0.081 HD
BRANCH  10  12
ATOM     12  C   LIG    1        0.958  -0.735  -1.101  0.00  0.00    -0.079 C 
BRANCH  12  14
ATOM     13  C   LIG    1        1.065   1.304  -2.542  0.00  0.00    +0.002 C 
ATOM     14  C   LIG    1        0.628  -0.161  -2.481  0.00  0.00    -0.022 C 
ENDBRANCH  12  14
ENDBRANCH  10  12
BRANCH  10  15
ATOM     15  C   LIG    1       -0.769  -2.375  -1.385  0.00  0.00    -0.079 C 
BRANCH  15  16
ATOM     16  C   LIG    1       -1.620  -1.778  -0.262  0.00  0.00    -0.022 C 
ATOM     17  C   LIG    1       -3.094  -2.102  -0.511  0.00  0.00    +0.002 C 
ENDBRANCH  15  16
ENDBRANCH  10  15
ENDBRANCH   1  10
BRANCH   5  18
ATOM     18  O   LIG    1        4.725  -7.802  -3.297  0.00  0.00    -0.491 OA
ATOM     19  C   LIG    1        3.681  -8.774  -3.382  0.00  0.00    +0.277 C 
ENDBRANCH   5  18
BRANCH   6  20
ATOM     20  O   LIG    1        6.636  -5.826  -3.093  0.00  0.00    -0.491 OA
ATOM     21  C   LIG    1        7.570  -4.752  -2.967  0.00  0.00    +0.277 C 
ENDBRANCH   6  20
TORSDOF 7
