REMARK  Name = ZINC17654244
REMARK                            x       y       z     vdW  Elec       q    Type
REMARK                         _______ _______ _______ _____ _____    ______ ____
ROOT
ATOM      1  C   LIG    1      -11.312   4.524   4.640  0.00  0.00    -0.027 C 
ATOM      2  C   LIG    1      -10.710   3.361   4.625  0.00  0.00    -0.027 C 
ENDROOT
BRANCH   1   3
ATOM      3  C   LIG    1      -10.598   5.749   4.130  0.00  0.00    +0.053 C 
BRANCH   3   5
ATOM      4  C   LIG    1      -11.735   7.701   3.203  0.00  0.00    -0.027 C 
ATOM      5  C   LIG    1      -11.447   6.428   3.087  0.00  0.00    -0.027 C 
BRANCH   4   6
ATOM      6  C   LIG    1      -11.077   8.527   4.278  0.00  0.00    +0.053 C 
BRANCH   6   8
ATOM      7  C   LIG    1      -10.730  10.938   4.113  0.00  0.00    -0.031 C 
ATOM      8  C   LIG    1      -10.441   9.745   3.658  0.00  0.00    -0.027 C 
BRANCH   7   9
ATOM      9  C   LIG    1      -11.566  11.088   5.358  0.00  0.00    +0.027 C 
BRANCH   9  10
ATOM     10  C   LIG    1      -10.844  12.001   6.351  0.00  0.00    +0.004 C 
BRANCH  10  11
ATOM     11  C   LIG    1      -11.693  12.153   7.614  0.00  0.00    +0.000 C 
BRANCH  11  13
ATOM     12  C   LIG    1      -11.820  13.218   9.871  0.00  0.00    +0.004 C 
ATOM     13  C   LIG    1      -10.971  13.066   8.607  0.00  0.00    -0.003 C 
ENDBRANCH  11  13
ENDBRANCH  10  11
ENDBRANCH   9  10
ENDBRANCH   7   9
ENDBRANCH   6   8
ENDBRANCH   4   6
ENDBRANCH   3   5
ENDBRANCH   1   3
BRANCH   2  14
ATOM     14  C   LIG    1       -9.252   3.272   4.253  0.00  0.00    +0.053 C 
BRANCH  14  15
ATOM     15  C   LIG    1       -8.507   2.515   5.321  0.00  0.00    -0.027 C 
ATOM     16  C   LIG    1       -7.771   1.480   4.998  0.00  0.00    -0.031 C 
BRANCH  16  17
ATOM     17  C   LIG    1       -7.536   1.146   3.548  0.00  0.00    +0.027 C 
BRANCH  17  18
ATOM     18  C   LIG    1       -6.034   1.006   3.293  0.00  0.00    +0.005 C 
BRANCH  18  19
ATOM     19  C   LIG    1       -5.796   0.666   1.821  0.00  0.00    +0.013 C 
BRANCH  19  20
ATOM     20  C   LIG    1       -4.294   0.525   1.566  0.00  0.00    +0.132 C 
BRANCH  20  21
ATOM     21  P   LIG    1       -4.010   0.121  -0.189  0.00  0.00    +0.369 P 
ATOM     22  F   LIG    1       -4.774  -1.317  -0.559  0.00  0.00    -0.156 F 
ATOM     23  O   LIG    1       -4.555   1.202  -1.039  0.00  0.00    -0.254 OA
BRANCH  21  24
ATOM     24  O   LIG    1       -2.429  -0.027  -0.456  0.00  0.00    -0.308 OA
ATOM     25  C   LIG    1       -1.883  -0.342  -1.739  0.00  0.00    +0.205 C 
ENDBRANCH  21  24
ENDBRANCH  20  21
ENDBRANCH  19  20
ENDBRANCH  18  19
ENDBRANCH  17  18
ENDBRANCH  16  17
ENDBRANCH  14  15
ENDBRANCH   2  14
TORSDOF 16
