REMARK  Name = ZINC39063472
REMARK                            x       y       z     vdW  Elec       q    Type
REMARK                         _______ _______ _______ _____ _____    ______ ____
ROOT
ATOM      1  C   LIG    1       -0.017   1.375   0.010  0.00  0.00    +0.001 A 
ATOM      2  C   LIG    1        1.170   2.086   0.002  0.00  0.00    +0.006 A 
ATOM      3  C   LIG    1        2.383   1.420  -0.013  0.00  0.00    -0.016 A 
ATOM      4  C   LIG    1        2.416   0.041  -0.021  0.00  0.00    +0.019 A 
ATOM      5  C   LIG    1        1.222  -0.682  -0.014  0.00  0.00    +0.037 A 
ATOM      6  C   LIG    1        0.002  -0.004   0.002  0.00  0.00    +0.013 A 
ENDROOT
BRANCH   5   7
ATOM      7  C   LIG    1        1.250  -2.161  -0.023  0.00  0.00    +0.242 C 
ATOM      8  N   LIG    1        0.095  -2.856  -0.016  0.00  0.00    -0.325 N 
ATOM      9  H   LIG    1        0.113  -3.826  -0.022  0.00  0.00    +0.145 HD
ATOM     10  H   LIG    1       -0.754  -2.387  -0.004  0.00  0.00    +0.145 HD
ATOM     11  O   LIG    1        2.313  -2.748  -0.037  0.00  0.00    -0.270 OA
ENDBRANCH   5   7
BRANCH   3  12
ATOM     12  C   LIG    1        3.671   2.203  -0.021  0.00  0.00    +0.174 C 
ATOM     13  C   LIG    1        4.129   2.808  -1.350  0.00  0.00    +0.197 C 
ATOM     14  O   LIG    1        3.596   3.605  -0.287  0.00  0.00    -0.367 OA
ENDBRANCH   3  12
TORSDOF 2
