REMARK  Name = ZINC29311781
REMARK                            x       y       z     vdW  Elec       q    Type
REMARK                         _______ _______ _______ _____ _____    ______ ____
ROOT
ATOM      1  C   LIG    1        0.002  -0.004   0.002  0.00  0.00    +0.146 C 
ATOM      2  C   LIG    1        1.021  -0.460  -1.010  0.00  0.00    +0.231 C 
ATOM      3  N   LIG    1        2.182   0.157  -1.201  0.00  0.00    -0.284 N 
ATOM      4  H   LIG    1        2.927  -0.272  -1.887  0.00  0.00    +0.155 HD
ATOM      5  C   LIG    1        2.599   1.346  -0.609  0.00  0.00    +0.047 A 
ATOM      6  C   LIG    1        3.946   1.689  -0.643  0.00  0.00    +0.024 A 
ATOM      7  C   LIG    1        4.382   2.861  -0.058  0.00  0.00    +0.002 A 
ATOM      8  C   LIG    1        3.484   3.712   0.560  0.00  0.00    +0.001 A 
ATOM      9  C   LIG    1        2.139   3.394   0.585  0.00  0.00    +0.016 A 
ATOM     10  C   LIG    1        1.696   2.220  -0.002  0.00  0.00    +0.030 A 
ATOM     11  O   LIG    1        0.770  -1.438  -1.682  0.00  0.00    -0.274 OA
ATOM     12  S   LIG    1       -0.023   1.815   0.012  0.00  0.00    -0.110 S 
ENDROOT
BRANCH   1  13
ATOM     13  C   LIG    1        0.386  -0.522   1.390  0.00  0.00    +0.121 C 
BRANCH  13  16
ATOM     14  N   LIG    1       -0.560  -0.499   3.675  0.00  0.00    -0.195 N 
ATOM     15  H   LIG    1        0.324  -1.062   4.008  0.00  0.00    +0.182 HD
ATOM     16  C   LIG    1       -0.685  -0.145   2.380  0.00  0.00    +0.237 C 
ATOM     17  O   LIG    1       -1.660   0.476   2.013  0.00  0.00    -0.274 OA
BRANCH  14  19
ATOM     18  C   LIG    1       -1.304  -0.584   5.940  0.00  0.00    +0.226 C 
ATOM     19  O   LIG    1       -1.567  -0.146   4.606  0.00  0.00    -0.283 OA
ENDBRANCH  14  19
ENDBRANCH  13  16
ENDBRANCH   1  13
TORSDOF 3
