REMARK  Name = ZINC36382821
REMARK                            x       y       z     vdW  Elec       q    Type
REMARK                         _______ _______ _______ _____ _____    ______ ____
ROOT
ATOM      1  C   LIG    1        3.698  -0.687  -0.037  0.00  0.00    +0.009 A 
ATOM      2  C   LIG    1        4.683  -0.345  -0.964  0.00  0.00    +0.024 A 
ATOM      3  C   LIG    1        5.881  -1.054  -0.935  0.00  0.00    +0.046 A 
ATOM      4  C   LIG    1        6.062  -2.083   0.016  0.00  0.00    +0.077 A 
ATOM      5  N   LIG    1        5.099  -2.377   0.880  0.00  0.00    -0.246 NA
ATOM      6  C   LIG    1        7.337  -2.811   0.018  0.00  0.00    +0.046 A 
ATOM      7  C   LIG    1        8.292  -2.498  -0.862  0.00  0.00    +0.100 A 
ATOM      8  N   LIG    1        8.143  -1.500  -1.800  0.00  0.00    -0.250 N 
ATOM      9  C   LIG    1        8.983  -1.048  -2.756  0.00  0.00    +0.348 A 
ATOM     10  O   LIG    1       10.105  -1.466  -2.981  0.00  0.00    -0.245 OA
ATOM     11  N   LIG    1        8.361  -0.051  -3.416  0.00  0.00    -0.226 N 
ATOM     12  H   LIG    1        8.725   0.462  -4.154  0.00  0.00    +0.194 HD
ATOM     13  N   LIG    1        7.094   0.111  -2.840  0.00  0.00    -0.151 NA
ATOM     14  C   LIG    1        6.975  -0.762  -1.875  0.00  0.00    +0.171 A 
ATOM     15  C   LIG    1        3.949  -1.720   0.884  0.00  0.00    +0.079 A 
ENDROOT
BRANCH   1  19
ATOM     16  C   LIG    1       -0.017   1.379   0.010  0.00  0.00    +0.000 A 
ATOM     17  C   LIG    1        1.169   2.093   0.002  0.00  0.00    +0.001 A 
ATOM     18  C   LIG    1        2.377   1.427  -0.013  0.00  0.00    +0.008 A 
ATOM     19  C   LIG    1        2.403   0.033  -0.021  0.00  0.00    -0.016 A 
ATOM     20  C   LIG    1        1.205  -0.680  -0.013  0.00  0.00    +0.008 A 
ATOM     21  C   LIG    1        0.002  -0.004   0.002  0.00  0.00    +0.001 A 
ENDBRANCH   1  19
BRANCH  15  22
ATOM     22  C   LIG    1        2.907  -2.082   1.873  0.00  0.00    +0.001 A 
ATOM     23  C   LIG    1        2.079  -1.097   2.410  0.00  0.00    +0.010 A 
ATOM     24  C   LIG    1        1.110  -1.441   3.330  0.00  0.00    +0.003 A 
ATOM     25  C   LIG    1        0.960  -2.760   3.721  0.00  0.00    -0.059 A 
ATOM     26  C   LIG    1        1.780  -3.741   3.193  0.00  0.00    +0.003 A 
ATOM     27  C   LIG    1        2.748  -3.411   2.267  0.00  0.00    +0.010 A 
BRANCH  25  28
ATOM     28  C   LIG    1       -0.099  -3.128   4.728  0.00  0.00    -0.045 C 
ATOM     29  C   LIG    1        0.470  -3.606   6.074  0.00  0.00    -0.008 C 
ATOM     30  C   LIG    1       -0.645  -4.666   6.080  0.00  0.00    -0.002 C 
ATOM     31  C   LIG    1       -0.653  -4.551   4.546  0.00  0.00    -0.008 C 
BRANCH  28  32
ATOM     32  N   LIG    1       -1.143  -2.103   4.859  0.00  0.00    +0.385 N 
ATOM     33  H   LIG    1       -0.713  -1.201   4.999  0.00  0.00    -0.089 HD
ATOM     34  H   LIG    1       -1.732  -2.321   5.648  0.00  0.00    -0.089 HD
ATOM     35  H   LIG    1       -1.701  -2.082   4.018  0.00  0.00    -0.089 HD
ENDBRANCH  28  32
ENDBRANCH  25  28
ENDBRANCH  15  22
TORSDOF 4
