REMARK  Name = ZINC21981303
REMARK                            x       y       z     vdW  Elec       q    Type
REMARK                         _______ _______ _______ _____ _____    ______ ____
ROOT
ATOM      1  C   LIG    1       -0.016   1.310   0.009  0.00  0.00    +0.001 A 
ATOM      2  C   LIG    1        1.250   2.063   0.001  0.00  0.00    +0.002 A 
ATOM      3  C   LIG    1        2.396   1.417  -0.024  0.00  0.00    +0.024 A 
ATOM      4  C   LIG    1        2.415  -0.057  -0.044  0.00  0.00    +0.041 A 
ATOM      5  C   LIG    1        1.287  -0.730  -0.014  0.00  0.00    -0.004 A 
ATOM      6  C   LIG    1        1.285  -2.196   0.040  0.00  0.00    +0.010 C 
ATOM      7  C   LIG    1        2.100  -2.972  -0.598  0.00  0.00    +0.010 C 
ATOM      8  C   LIG    1        3.172  -2.525  -1.494  0.00  0.00    -0.004 A 
ATOM      9  C   LIG    1        3.448  -3.286  -2.728  0.00  0.00    +0.010 A 
ATOM     10  C   LIG    1        4.423  -2.917  -3.529  0.00  0.00    +0.001 A 
ATOM     11  C   LIG    1        5.244  -1.740  -3.194  0.00  0.00    +0.002 A 
ATOM     12  C   LIG    1        4.991  -1.055  -2.101  0.00  0.00    +0.024 A 
ATOM     13  C   LIG    1        3.887  -1.461  -1.209  0.00  0.00    +0.041 A 
ATOM     14  N   LIG    1        3.600  -0.702  -0.130  0.00  0.00    -0.299 N 
ATOM     15  C   LIG    1        0.002  -0.004   0.002  0.00  0.00    +0.010 A 
ENDROOT
BRANCH  14  16
ATOM     16  C   LIG    1        4.578  -0.577   0.953  0.00  0.00    +0.109 C 
BRANCH  16  17
ATOM     17  C   LIG    1        4.341  -1.682   1.984  0.00  0.00    +0.001 C 
BRANCH  17  18
ATOM     18  C   LIG    1        5.362  -1.551   3.116  0.00  0.00    -0.077 C 
BRANCH  18  19
ATOM     19  N   LIG    1        5.135  -2.612   4.106  0.00  0.00    +0.381 N 
ATOM     20  H   LIG    1        5.156  -3.510   3.647  0.00  0.00    -0.082 HD
ATOM     21  C   LIG    1        3.824  -2.417   4.739  0.00  0.00    -0.063 C 
ATOM     22  C   LIG    1        3.578  -3.533   5.758  0.00  0.00    +0.066 C 
ATOM     23  N   LIG    1        4.641  -3.508   6.773  0.00  0.00    -0.304 NA
ATOM     24  C   LIG    1        5.961  -3.677   6.151  0.00  0.00    +0.066 C 
ATOM     25  C   LIG    1        6.187  -2.560   5.129  0.00  0.00    -0.063 C 
BRANCH  23  26
ATOM     26  C   LIG    1        4.409  -4.530   7.802  0.00  0.00    +0.112 C 
BRANCH  26  27
ATOM     27  C   LIG    1        5.382  -4.315   8.963  0.00  0.00    +0.171 C 
BRANCH  27  28
ATOM     28  O   LIG    1        5.097  -3.067   9.598  0.00  0.00    -0.394 OA
ATOM     29  H   LIG    1        5.677  -2.865  10.345  0.00  0.00    +0.209 HD
ENDBRANCH  27  28
ENDBRANCH  26  27
ENDBRANCH  23  26
ENDBRANCH  18  19
ENDBRANCH  17  18
ENDBRANCH  16  17
ENDBRANCH  14  16
TORSDOF 7
