REMARK  Name = ZINC28463282
REMARK                            x       y       z     vdW  Elec       q    Type
REMARK                         _______ _______ _______ _____ _____    ______ ____
ROOT
ATOM      1  C   LIG    1       -0.016   1.361   0.009  0.00  0.00    +0.049 A 
ATOM      2  C   LIG    1       -1.253   2.021   0.031  0.00  0.00    +0.092 A 
ATOM      3  N   LIG    1       -1.635   3.309   0.035  0.00  0.00    -0.226 NA
ATOM      4  C   LIG    1       -2.945   3.382   0.048  0.00  0.00    +0.165 A 
ATOM      5  N   LIG    1       -3.479   2.123   0.047  0.00  0.00    -0.335 N 
ATOM      6  H   LIG    1       -4.437   1.894   0.055  0.00  0.00    +0.167 HD
ATOM      7  C   LIG    1       -2.424   1.235   0.032  0.00  0.00    +0.085 A 
ATOM      8  C   LIG    1       -2.307  -0.146   0.024  0.00  0.00    +0.138 A 
ATOM      9  N   LIG    1       -1.116  -0.711   0.009  0.00  0.00    -0.261 NA
ATOM     10  C   LIG    1        0.002  -0.004   0.002  0.00  0.00    +0.113 A 
ENDROOT
BRANCH   4  11
ATOM     11  C   LIG    1       -3.727   4.638   0.061  0.00  0.00    +0.190 A 
ATOM     12  C   LIG    1       -5.192   4.740   0.081  0.00  0.00    +0.191 A 
ATOM     13  N   LIG    1       -5.515   6.004   0.088  0.00  0.00    -0.033 NA
ATOM     14  O   LIG    1       -4.317   6.761   0.073  0.00  0.00    -0.240 OA
ATOM     15  N   LIG    1       -3.233   5.849   0.062  0.00  0.00    -0.044 NA
BRANCH  12  16
ATOM     16  N   LIG    1       -6.081   3.674   0.090  0.00  0.00    -0.339 N 
ATOM     17  H   LIG    1       -7.037   3.839   0.104  0.00  0.00    +0.144 HD
ATOM     18  H   LIG    1       -5.746   2.763   0.083  0.00  0.00    +0.144 HD
ENDBRANCH  12  16
ENDBRANCH   4  11
TORSDOF 2
