REMARK  Name = ZINC28096950
REMARK                            x       y       z     vdW  Elec       q    Type
REMARK                         _______ _______ _______ _____ _____    ______ ____
ROOT
ATOM      1  C   LIG    1        3.532   0.873  -0.661  0.00  0.00    -0.061 A 
ATOM      2  C   LIG    1        4.008   0.988   0.632  0.00  0.00    +0.005 A 
ATOM      3  C   LIG    1        5.364   0.899   0.881  0.00  0.00    +0.046 A 
ATOM      4  C   LIG    1        6.249   0.706  -0.170  0.00  0.00    +0.120 A 
ATOM      5  C   LIG    1        5.769   0.596  -1.467  0.00  0.00    +0.046 A 
ATOM      6  C   LIG    1        4.412   0.679  -1.709  0.00  0.00    +0.005 A 
ENDROOT
BRANCH   1  13
ATOM      7  C   LIG    1        1.577   3.311  -0.486  0.00  0.00    -0.095 C 
ATOM      8  N   LIG    1        1.413   1.933  -0.001  0.00  0.00    +0.382 N 
ATOM      9  H   LIG    1        1.865   1.924   1.002  0.00  0.00    -0.081 HD
ATOM     10  C   LIG    1       -0.019   1.540   0.011  0.00  0.00    -0.078 C 
ATOM     11  C   LIG    1        0.002  -0.004   0.002  0.00  0.00    -0.020 C 
ATOM     12  C   LIG    1        1.364  -0.383  -0.615  0.00  0.00    -0.013 C 
ATOM     13  C   LIG    1        2.051   0.963  -0.928  0.00  0.00    -0.038 C 
ENDBRANCH   1  13
BRANCH   4  14
ATOM     14  O   LIG    1        7.584   0.625   0.071  0.00  0.00    -0.495 OA
ATOM     15  C   LIG    1        8.006   0.747   1.431  0.00  0.00    +0.277 C 
ENDBRANCH   4  14
TORSDOF 2
