REMARK  Name = ZINC27998673
REMARK                            x       y       z     vdW  Elec       q    Type
REMARK                         _______ _______ _______ _____ _____    ______ ____
ROOT
ATOM      1  C   LIG    1       -2.841   3.004   5.098  0.00  0.00    +0.047 A 
ATOM      2  C   LIG    1       -2.482   4.005   6.005  0.00  0.00    +0.017 A 
ATOM      3  C   LIG    1       -3.099   3.939   7.242  0.00  0.00    +0.129 A 
ATOM      4  N   LIG    1       -3.956   2.987   7.504  0.00  0.00    -0.218 NA
ATOM      5  S   LIG    1       -4.016   2.070   6.063  0.00  0.00    +0.012 S 
ENDROOT
BRANCH   2   6
ATOM      6  C   LIG    1       -1.505   5.067   5.665  0.00  0.00    -0.015 A 
ATOM      7  C   LIG    1       -0.225   4.726   5.231  0.00  0.00    +0.011 A 
ATOM      8  C   LIG    1        0.679   5.718   4.911  0.00  0.00    +0.039 A 
ATOM      9  C   LIG    1        0.320   7.051   5.031  0.00  0.00    +0.123 A 
ATOM     10  F   LIG    1        1.211   8.018   4.721  0.00  0.00    -0.205 F 
ATOM     11  C   LIG    1       -0.949   7.394   5.468  0.00  0.00    +0.039 A 
ATOM     12  C   LIG    1       -1.862   6.409   5.785  0.00  0.00    +0.011 A 
ENDBRANCH   2   6
BRANCH   1  16
ATOM     13  C   LIG    1       -1.509   2.371   1.116  0.00  0.00    +0.088 A 
ATOM     14  C   LIG    1       -1.558   1.310   2.003  0.00  0.00    +0.027 A 
ATOM     15  C   LIG    1       -1.985   1.510   3.300  0.00  0.00    +0.011 A 
ATOM     16  C   LIG    1       -2.378   2.784   3.713  0.00  0.00    -0.009 A 
ATOM     17  C   LIG    1       -2.332   3.849   2.811  0.00  0.00    +0.011 A 
ATOM     18  C   LIG    1       -1.898   3.636   1.519  0.00  0.00    +0.027 A 
BRANCH  13  20
ATOM     19  C   LIG    1        0.835   2.385  -0.478  0.00  0.00    +0.200 C 
ATOM     20  S   LIG    1       -0.957   2.108  -0.536  0.00  0.00    -0.006 S 
ATOM     21  O   LIG    1       -1.231   0.738  -0.797  0.00  0.00    -0.170 OA
ATOM     22  O   LIG    1       -1.586   3.130  -1.296  0.00  0.00    -0.170 OA
ENDBRANCH  13  20
ENDBRANCH   1  16
TORSDOF 3
