REMARK  Name = ZINC18145500
REMARK                            x       y       z     vdW  Elec       q    Type
REMARK                         _______ _______ _______ _____ _____    ______ ____
ROOT
ATOM      1  C   LIG    1       -0.018   1.503   0.010  0.00  0.00    +0.086 C 
ATOM      2  C   LIG    1        0.002  -0.004   0.002  0.00  0.00    +0.107 A 
ATOM      3  N   LIG    1       -1.186  -0.665   0.004  0.00  0.00    -0.311 N 
ATOM      4  C   LIG    1       -1.220  -2.018  -0.003  0.00  0.00    +0.259 A 
ATOM      5  C   LIG    1        0.067  -2.729  -0.014  0.00  0.00    +0.068 A 
ATOM      6  C   LIG    1        0.141  -4.121  -0.022  0.00  0.00    +0.015 A 
ATOM      7  C   LIG    1        1.372  -4.738  -0.032  0.00  0.00    +0.004 A 
ATOM      8  C   LIG    1        2.540  -3.986  -0.033  0.00  0.00    +0.047 A 
ATOM      9  C   LIG    1        2.491  -2.606  -0.024  0.00  0.00    +0.143 A 
ATOM     10  C   LIG    1        1.249  -1.958  -0.015  0.00  0.00    +0.119 A 
ATOM     11  O   LIG    1       -2.277  -2.624  -0.002  0.00  0.00    -0.267 OA
ATOM     12  H   LIG    1       -2.015  -0.163   0.011  0.00  0.00    +0.170 HD
ATOM     13  N   LIG    1        1.153  -0.605  -0.012  0.00  0.00    -0.230 NA
ENDROOT
BRANCH   9  14
ATOM     14  O   LIG    1        3.641  -1.881  -0.026  0.00  0.00    -0.505 OA
ATOM     15  H   LIG    1        3.969  -1.666  -0.909  0.00  0.00    +0.292 HD
ENDBRANCH   9  14
TORSDOF 1
