REMARK  Name = ZINC21047421
REMARK                            x       y       z     vdW  Elec       q    Type
REMARK                         _______ _______ _______ _____ _____    ______ ____
ROOT
ATOM      1  C   LIG    1       -8.927   0.604  -1.751  0.00  0.00    +0.129 A 
ATOM      2  C   LIG    1       -8.305   1.514  -2.593  0.00  0.00    +0.050 A 
ATOM      3  C   LIG    1       -6.979   1.844  -2.394  0.00  0.00    +0.049 A 
ATOM      4  C   LIG    1       -6.269   1.265  -1.353  0.00  0.00    +0.121 A 
ATOM      5  C   LIG    1       -6.889   0.352  -0.514  0.00  0.00    +0.049 A 
ATOM      6  C   LIG    1       -8.217   0.026  -0.709  0.00  0.00    +0.050 A 
ENDROOT
BRANCH   1   7
ATOM      7  O   LIG    1      -10.233   0.280  -1.946  0.00  0.00    -0.456 OA
BRANCH   7  11
ATOM      8  C   LIG    1      -12.971   1.468   0.901  0.00  0.00    +0.000 A 
ATOM      9  C   LIG    1      -13.371   0.655  -0.144  0.00  0.00    +0.004 A 
ATOM     10  C   LIG    1      -12.456   0.256  -1.098  0.00  0.00    +0.046 A 
ATOM     11  C   LIG    1      -11.135   0.671  -1.008  0.00  0.00    +0.128 A 
ATOM     12  C   LIG    1      -10.735   1.482   0.044  0.00  0.00    +0.046 A 
ATOM     13  C   LIG    1      -11.656   1.884   0.993  0.00  0.00    +0.004 A 
ENDBRANCH   7  11
ENDBRANCH   1   7
BRANCH   4  14
ATOM     14  O   LIG    1       -4.963   1.590  -1.157  0.00  0.00    -0.494 OA
BRANCH  14  15
ATOM     15  C   LIG    1       -4.293   0.956  -0.065  0.00  0.00    +0.213 C 
BRANCH  15  16
ATOM     16  C   LIG    1       -2.844   1.442  -0.004  0.00  0.00    -0.034 C 
ATOM     17  C   LIG    1       -2.163   0.862   1.237  0.00  0.00    -0.013 C 
ATOM     18  C   LIG    1       -0.706   1.335   1.284  0.00  0.00    -0.003 C 
ATOM     19  C   LIG    1        0.002   0.903  -0.003  0.00  0.00    -0.019 C 
ATOM     20  C   LIG    1       -0.741   1.483  -1.209  0.00  0.00    -0.082 C 
ATOM     21  N   LIG    1       -2.128   1.000  -1.208  0.00  0.00    +0.383 N 
ATOM     22  H   LIG    1       -2.637   1.392  -2.101  0.00  0.00    -0.085 HD
ATOM     23  H   LIG    1       -2.118  -0.099  -1.245  0.00  0.00    -0.085 HD
ENDBRANCH  15  16
ENDBRANCH  14  15
ENDBRANCH   4  14
TORSDOF 5
