REMARK  Name = ZINC16971828
REMARK                            x       y       z     vdW  Elec       q    Type
REMARK                         _______ _______ _______ _____ _____    ______ ____
ROOT
ATOM      1  C   LIG    1        2.036   4.029   0.004  0.00  0.00    +0.028 C 
ATOM      2  C   LIG    1        1.146   3.112   0.459  0.00  0.00    +0.074 C 
ATOM      3  C   LIG    1        1.240   1.637   0.477  0.00  0.00    +0.217 C 
ATOM      4  N   LIG    1        0.209   0.985   0.988  0.00  0.00    -0.165 NA
ATOM      5  C   LIG    1       -0.872   1.637   1.462  0.00  0.00    +0.139 C 
ATOM      6  S   LIG    1       -2.295   0.977   2.149  0.00  0.00    -0.026 S 
ATOM      7  S   LIG    1       -0.461   3.355   1.203  0.00  0.00    -0.060 S 
ENDROOT
BRANCH   1  14
ATOM      8  C   LIG    1        4.093   6.055  -0.199  0.00  0.00    +0.044 C 
ATOM      9  C   LIG    1        2.635   6.436  -0.181  0.00  0.00    -0.043 A 
ATOM     10  C   LIG    1        2.266   7.762  -0.268  0.00  0.00    +0.004 A 
ATOM     11  C   LIG    1        0.928   8.115  -0.246  0.00  0.00    +0.000 A 
ATOM     12  C   LIG    1       -0.051   7.141  -0.143  0.00  0.00    +0.001 A 
ATOM     13  C   LIG    1        0.301   5.811  -0.061  0.00  0.00    +0.008 A 
ATOM     14  C   LIG    1        1.652   5.446  -0.083  0.00  0.00    -0.021 A 
ENDBRANCH   1  14
BRANCH   3  15
ATOM     15  O   LIG    1        2.215   1.052   0.044  0.00  0.00    -0.493 OA
ATOM     16  H   LIG    1        2.932   1.538  -0.313  0.00  0.00    +0.294 HD
ENDBRANCH   3  15
TORSDOF 2
