REMARK  Name = ZINC20644060
REMARK                            x       y       z     vdW  Elec       q    Type
REMARK                         _______ _______ _______ _____ _____    ______ ____
ROOT
ATOM      1  N   LIG    1        2.360  -0.059  -0.020  0.00  0.00    -0.283 N 
ATOM      2  C   LIG    1        2.454   1.288  -0.013  0.00  0.00    +0.263 A 
ATOM      3  C   LIG    1        1.206   2.077   0.002  0.00  0.00    +0.065 A 
ATOM      4  C   LIG    1        1.223   3.470   0.009  0.00  0.00    +0.016 A 
ATOM      5  C   LIG    1        0.036   4.167   0.024  0.00  0.00    +0.014 A 
ATOM      6  C   LIG    1       -1.183   3.483   0.033  0.00  0.00    +0.039 A 
ATOM      7  C   LIG    1       -1.208   2.091   0.030  0.00  0.00    +0.041 A 
ATOM      8  C   LIG    1       -0.017   1.383   0.010  0.00  0.00    +0.080 A 
ATOM      9  N   LIG    1        0.002  -0.004   0.002  0.00  0.00    -0.223 NA
ATOM     10  O   LIG    1        3.539   1.837  -0.021  0.00  0.00    -0.267 OA
ATOM     11  C   LIG    1        1.167  -0.674  -0.012  0.00  0.00    +0.169 A 
ENDROOT
BRANCH   6  12
ATOM     12  C   LIG    1       -2.454   4.243   0.049  0.00  0.00    +0.244 C 
ATOM     13  N   LIG    1       -2.434   5.590   0.056  0.00  0.00    -0.311 N 
ATOM     14  H   LIG    1       -1.473   6.126   0.050  0.00  0.00    +0.149 HD
ATOM     15  O   LIG    1       -3.516   3.651   0.057  0.00  0.00    -0.270 OA
BRANCH  13  16
ATOM     16  C   LIG    1       -3.691   6.342   0.073  0.00  0.00    +0.102 C 
BRANCH  16  17
ATOM     17  C   LIG    1       -3.389   7.842   0.078  0.00  0.00    +0.000 C 
BRANCH  17  18
ATOM     18  C   LIG    1       -4.702   8.627   0.095  0.00  0.00    -0.077 C 
BRANCH  18  19
ATOM     19  N   LIG    1       -4.412  10.067   0.100  0.00  0.00    +0.380 N 
ATOM     20  H   LIG    1       -3.969  10.280   1.084  0.00  0.00    -0.082 HD
ATOM     21  C   LIG    1       -3.492  10.428  -1.009  0.00  0.00    -0.079 C 
ATOM     22  C   LIG    1       -3.720  11.952  -1.176  0.00  0.00    -0.020 C 
ATOM     23  C   LIG    1       -5.239  12.103  -0.932  0.00  0.00    -0.020 C 
ATOM     24  C   LIG    1       -5.642  10.856  -0.123  0.00  0.00    -0.079 C 
ENDBRANCH  18  19
ENDBRANCH  17  18
ENDBRANCH  16  17
ENDBRANCH  13  16
ENDBRANCH   6  12
BRANCH  11  25
ATOM     25  S   LIG    1        1.127  -2.386  -0.021  0.00  0.00    -0.105 S 
ATOM     26  H   LIG    1        2.399  -2.868  -0.035  0.00  0.00    +0.110 HD
ENDBRANCH  11  25
BRANCH   1  27
ATOM     27  C   LIG    1        3.583  -0.865  -0.035  0.00  0.00    +0.162 C 
BRANCH  27  34
ATOM     28  C   LIG    1        3.523  -2.260  -2.112  0.00  0.00    +0.007 A 
ATOM     29  C   LIG    1        3.891  -2.505  -3.421  0.00  0.00    +0.020 A 
ATOM     30  C   LIG    1        4.737  -1.628  -4.077  0.00  0.00    +0.041 A 
ATOM     31 CL   LIG    1        5.205  -1.938  -5.720  0.00  0.00    -0.084 Cl
ATOM     32  C   LIG    1        5.209  -0.504  -3.423  0.00  0.00    +0.020 A 
ATOM     33  C   LIG    1        4.835  -0.258  -2.115  0.00  0.00    +0.007 A 
ATOM     34  C   LIG    1        3.990  -1.134  -1.461  0.00  0.00    -0.027 A 
ENDBRANCH  27  34
ENDBRANCH   1  27
TORSDOF 8
