REMARK  Name = ZINC27328230
REMARK                            x       y       z     vdW  Elec       q    Type
REMARK                         _______ _______ _______ _____ _____    ______ ____
ROOT
ATOM      1  C   LIG    1      -10.299   1.082   6.893  0.00  0.00    +0.022 C 
ENDROOT
BRANCH   1   2
ATOM      2  C   LIG    1      -10.944   1.693   8.138  0.00  0.00    +0.125 C 
BRANCH   2   6
ATOM      3  C   LIG    1      -14.549  -1.331   9.499  0.00  0.00    +0.248 A 
ATOM      4  C   LIG    1      -13.966  -0.199   8.908  0.00  0.00    +0.169 A 
ATOM      5  C   LIG    1      -12.569  -0.060   8.970  0.00  0.00    +0.169 A 
ATOM      6  N   LIG    1      -12.278   1.117   8.329  0.00  0.00    -0.315 N 
ATOM      7  C   LIG    1      -13.457   1.651   7.896  0.00  0.00    +0.201 A 
ATOM      8  N   LIG    1      -11.853  -0.992   9.588  0.00  0.00    -0.195 NA
ATOM      9  C   LIG    1      -12.444  -2.044  10.132  0.00  0.00    +0.218 A 
ATOM     10  N   LIG    1      -14.446   0.877   8.237  0.00  0.00    -0.229 NA
ATOM     11  N   LIG    1      -13.759  -2.216  10.092  0.00  0.00    -0.178 NA
BRANCH   9  12
ATOM     12  N   LIG    1      -11.663  -2.998  10.764  0.00  0.00    -0.327 N 
ATOM     13  H   LIG    1      -10.571  -2.873  10.808  0.00  0.00    +0.145 HD
ATOM     14  H   LIG    1      -12.135  -3.879  11.222  0.00  0.00    +0.145 HD
ENDBRANCH   9  12
BRANCH   3  15
ATOM     15  O   LIG    1      -15.891  -1.517   9.463  0.00  0.00    -0.470 OA
BRANCH  15  16
ATOM     16  C   LIG    1      -16.399  -2.697  10.089  0.00  0.00    +0.273 C 
BRANCH  16  22
ATOM     17  C   LIG    1      -18.652  -3.271   8.959  0.00  0.00    +0.029 A 
ATOM     18  C   LIG    1      -20.030  -3.188   9.044  0.00  0.00    +0.025 A 
ATOM     19 BR   LIG    1      -21.121  -3.932   7.691  0.00  0.00    -0.050 Br
ATOM     20  C   LIG    1      -20.586  -2.561  10.110  0.00  0.00    +0.060 A 
ATOM     21  S   LIG    1      -19.146  -2.068  11.042  0.00  0.00    -0.097 S 
ATOM     22  C   LIG    1      -17.899  -2.732   9.950  0.00  0.00    +0.028 A 
ENDBRANCH  16  22
ENDBRANCH  15  16
ENDBRANCH   3  15
ENDBRANCH   2   6
ENDBRANCH   1   2
BRANCH   1  23
ATOM     23  C   LIG    1       -8.906   1.684   6.693  0.00  0.00    +0.002 C 
BRANCH  23  24
ATOM     24  C   LIG    1       -8.260   1.073   5.448  0.00  0.00    +0.000 C 
BRANCH  24  25
ATOM     25  C   LIG    1       -6.867   1.674   5.248  0.00  0.00    +0.000 C 
BRANCH  25  26
ATOM     26  C   LIG    1       -6.222   1.063   4.003  0.00  0.00    +0.002 C 
BRANCH  26  27
ATOM     27  C   LIG    1       -4.829   1.664   3.804  0.00  0.00    +0.028 C 
BRANCH  27  28
ATOM     28  C   LIG    1       -4.183   1.053   2.559  0.00  0.00    +0.163 C 
BRANCH  28  29
ATOM     29  O   LIG    1       -2.882   1.615   2.372  0.00  0.00    -0.349 OA
BRANCH  29  30
ATOM     30  C   LIG    1       -2.189   1.109   1.230  0.00  0.00    +0.282 C 
ATOM     31  C   LIG    1       -0.733   1.582   1.266  0.00  0.00    +0.201 C 
ATOM     32  C   LIG    1       -0.013   1.086   0.008  0.00  0.00    +0.179 C 
ATOM     33  C   LIG    1       -0.757   1.595  -1.230  0.00  0.00    +0.177 C 
ATOM     34  C   LIG    1       -2.214   1.122  -1.168  0.00  0.00    +0.178 C 
ATOM     35  O   LIG    1       -2.816   1.591   0.040  0.00  0.00    -0.341 OA
BRANCH  31  36
ATOM     36  O   LIG    1       -0.087   1.054   2.426  0.00  0.00    -0.384 OA
ATOM     37  H   LIG    1        0.970   1.288   2.621  0.00  0.00    +0.210 HD
ENDBRANCH  31  36
BRANCH  32  38
ATOM     38  O   LIG    1        1.327   1.582  -0.002  0.00  0.00    -0.386 OA
ATOM     39  H   LIG    1        2.002   1.329  -0.834  0.00  0.00    +0.210 HD
ENDBRANCH  32  38
BRANCH  33  40
ATOM     40  O   LIG    1       -0.720   3.023  -1.256  0.00  0.00    -0.386 OA
ATOM     41  H   LIG    1       -1.206   3.571  -2.077  0.00  0.00    +0.210 HD
ENDBRANCH  33  40
BRANCH  34  42
ATOM     42  C   LIG    1       -2.981   1.676  -2.370  0.00  0.00    +0.190 C 
BRANCH  42  43
ATOM     43  O   LIG    1       -4.307   1.142  -2.376  0.00  0.00    -0.392 OA
ATOM     44  H   LIG    1       -5.012   1.429  -3.171  0.00  0.00    +0.210 HD
ENDBRANCH  42  43
ENDBRANCH  34  42
ENDBRANCH  29  30
ENDBRANCH  28  29
ENDBRANCH  27  28
ENDBRANCH  26  27
ENDBRANCH  25  26
ENDBRANCH  24  25
ENDBRANCH  23  24
ENDBRANCH   1  23
TORSDOF 19
