REMARK  Name = ZINC29225159
REMARK                            x       y       z     vdW  Elec       q    Type
REMARK                         _______ _______ _______ _____ _____    ______ ____
ROOT
ATOM      1  C   LIG    1        6.132  -0.704  -0.061  0.00  0.00    +0.186 C 
ENDROOT
BRANCH   1   2
ATOM      2  N   LIG    1        4.852   0.008  -0.045  0.00  0.00    -0.298 N 
ATOM      3  H   LIG    1        4.834   1.108  -0.038  0.00  0.00    +0.150 HD
ATOM      4  C   LIG    1        3.696  -0.685  -0.037  0.00  0.00    +0.245 C 
ATOM      5  O   LIG    1        3.715  -1.900  -0.044  0.00  0.00    -0.270 OA
BRANCH   4   6
ATOM      6  C   LIG    1        2.403   0.034  -0.021  0.00  0.00    +0.037 A 
ATOM      7  C   LIG    1        1.204  -0.681  -0.013  0.00  0.00    +0.013 A 
ATOM      8  C   LIG    1        0.002  -0.004   0.002  0.00  0.00    +0.001 A 
ATOM      9  C   LIG    1       -0.017   1.379   0.010  0.00  0.00    +0.000 A 
ATOM     10  C   LIG    1        1.168   2.094   0.002  0.00  0.00    +0.001 A 
ATOM     11  C   LIG    1        2.377   1.429  -0.013  0.00  0.00    +0.013 A 
ENDBRANCH   4   6
ENDBRANCH   1   2
BRANCH   1  12
ATOM     12  C   LIG    1        6.524  -1.064   1.349  0.00  0.00    +0.328 C 
ATOM     13  O   LIG    1        5.808  -0.757   2.273  0.00  0.00    -0.249 OA
BRANCH  12  14
ATOM     14  O   LIG    1        7.670  -1.725   1.579  0.00  0.00    -0.464 OA
BRANCH  14  16
ATOM     15  C   LIG    1        9.316  -2.788   3.025  0.00  0.00    +0.048 C 
ATOM     16  C   LIG    1        7.984  -2.039   2.962  0.00  0.00    +0.229 C 
ENDBRANCH  14  16
ENDBRANCH  12  14
ENDBRANCH   1  12
BRANCH   1  17
ATOM     17  C   LIG    1        7.207   0.194  -0.676  0.00  0.00    +0.069 C 
BRANCH  17  18
ATOM     18  C   LIG    1        6.877   0.454  -2.123  0.00  0.00    -0.045 A 
ATOM     19  C   LIG    1        7.358  -0.393  -3.104  0.00  0.00    +0.006 A 
ATOM     20  C   LIG    1        7.052  -0.157  -4.431  0.00  0.00    +0.033 A 
ATOM     21  C   LIG    1        6.272   0.930  -4.778  0.00  0.00    +0.122 A 
ATOM     22  C   LIG    1        5.795   1.780  -3.798  0.00  0.00    +0.033 A 
ATOM     23  C   LIG    1        6.098   1.542  -2.470  0.00  0.00    +0.006 A 
BRANCH  21  24
ATOM     24  N   LIG    1        5.947   1.185  -6.200  0.00  0.00    +0.006 N 
ATOM     25  O   LIG    1        5.260   2.142  -6.505  0.00  0.00    -0.130 OA
BRANCH  24  26
ATOM     26  O   LIG    1        6.367   0.436  -7.064  0.00  0.00    -0.396 OA
ATOM     27  H   LIG    1        6.896  -0.301  -6.829  0.00  0.00    +0.329 HD
ENDBRANCH  24  26
ENDBRANCH  21  24
ENDBRANCH  17  18
ENDBRANCH   1  17
TORSDOF 9
