REMARK  Name = ZINC29547030
REMARK                            x       y       z     vdW  Elec       q    Type
REMARK                         _______ _______ _______ _____ _____    ______ ____
ROOT
ATOM      1  C   LIG    1       -2.525   1.433   0.020  0.00  0.00    +0.128 C 
ENDROOT
BRANCH   1   2
ATOM      2  N   LIG    1       -1.130   1.880   0.017  0.00  0.00    -0.326 N 
ATOM      3  C   LIG    1       -0.013   1.076   0.008  0.00  0.00    +0.105 A 
ATOM      4  C   LIG    1        1.056   1.890   0.002  0.00  0.00    +0.102 A 
ATOM      5  N   LIG    1        0.620   3.161   0.013  0.00  0.00    -0.340 N 
ATOM      6  H   LIG    1        1.342   3.990   0.010  0.00  0.00    +0.167 HD
ATOM      7  C   LIG    1       -0.693   3.169   0.025  0.00  0.00    +0.158 A 
ATOM      8  S   LIG    1       -1.714   4.604   0.042  0.00  0.00    -0.013 S 
ENDBRANCH   1   2
BRANCH   1   9
ATOM      9  C   LIG    1       -3.055   1.405  -1.415  0.00  0.00    +0.057 C 
BRANCH   9  14
ATOM     10  C   LIG    1       -4.797  -0.398  -1.526  0.00  0.00    +0.011 A 
ATOM     11  C   LIG    1       -6.098  -0.778  -1.514  0.00  0.00    +0.045 A 
ATOM     12  S   LIG    1       -6.939   0.788  -1.350  0.00  0.00    -0.105 S 
ATOM     13  C   LIG    1       -5.500   1.843  -1.302  0.00  0.00    +0.048 A 
ATOM     14  C   LIG    1       -4.490   0.945  -1.411  0.00  0.00    -0.039 A 
ENDBRANCH   9  14
ENDBRANCH   1   9
TORSDOF 3
