REMARK  Name = ZINC13982410
REMARK                            x       y       z     vdW  Elec       q    Type
REMARK                         _______ _______ _______ _____ _____    ______ ____
ROOT
ATOM      1  S   LIG    1       -2.088   4.561  -0.824  0.00  0.00    +0.050 S 
ATOM      2  O   LIG    1       -1.857   4.155  -2.166  0.00  0.00    -0.155 OA
ATOM      3  O   LIG    1       -2.034   5.935  -0.463  0.00  0.00    -0.155 OA
ENDROOT
BRANCH   1   6
ATOM      4  C   LIG    1       -0.130   1.313  -0.102  0.00  0.00    -0.014 C 
ATOM      5  C   LIG    1       -1.163   2.128  -0.067  0.00  0.00    +0.058 C 
ATOM      6  C   LIG    1       -1.070   3.578   0.310  0.00  0.00    +0.188 C 
ATOM      7  C   LIG    1        0.383   4.052   0.224  0.00  0.00    +0.033 C 
ATOM      8  C   LIG    1        1.266   3.057   0.987  0.00  0.00    +0.006 C 
ATOM      9  C   LIG    1        1.273   1.730   0.229  0.00  0.00    +0.028 C 
BRANCH   5  10
ATOM     10  C   LIG    1       -2.484   1.588  -0.419  0.00  0.00    +0.337 C 
ATOM     11  O   LIG    1       -3.278   1.306   0.457  0.00  0.00    -0.245 OA
BRANCH  10  12
ATOM     12  O   LIG    1       -2.814   1.405  -1.713  0.00  0.00    -0.462 OA
BRANCH  12  13
ATOM     13  C   LIG    1       -4.146   0.963  -1.986  0.00  0.00    +0.229 C 
ATOM     14  C   LIG    1       -4.295   0.691  -3.484  0.00  0.00    +0.048 C 
ENDBRANCH  12  13
ENDBRANCH  10  12
ENDBRANCH   5  10
ENDBRANCH   1   6
BRANCH   1  15
ATOM     15  N   LIG    1       -3.646   4.101  -0.505  0.00  0.00    -0.219 N 
ATOM     16  H   LIG    1       -3.833   3.474   0.231  0.00  0.00    +0.173 HD
BRANCH  15  17
ATOM     17  C   LIG    1       -4.697   4.604  -1.280  0.00  0.00    +0.066 A 
ATOM     18  C   LIG    1       -4.442   5.541  -2.272  0.00  0.00    +0.029 A 
ATOM     19  C   LIG    1       -5.481   6.037  -3.036  0.00  0.00    +0.040 A 
ATOM     20  C   LIG    1       -6.776   5.600  -2.813  0.00  0.00    +0.125 A 
ATOM     21  F   LIG    1       -7.790   6.087  -3.561  0.00  0.00    -0.205 F 
ATOM     22  C   LIG    1       -7.033   4.665  -1.824  0.00  0.00    +0.060 A 
ATOM     23  C   LIG    1       -5.996   4.162  -1.061  0.00  0.00    +0.066 A 
ATOM     24 CL   LIG    1       -6.317   2.985   0.174  0.00  0.00    -0.081 Cl
ENDBRANCH  15  17
ENDBRANCH   1  15
TORSDOF 6
