REMARK  Name = ZINC21985181
REMARK                            x       y       z     vdW  Elec       q    Type
REMARK                         _______ _______ _______ _____ _____    ______ ____
ROOT
ATOM      1  C   LIG    1        2.141  -0.186  -0.762  0.00  0.00    +0.325 C 
ATOM      2  N   LIG    1        2.386   1.089  -0.402  0.00  0.00    -0.279 N 
ATOM      3  C   LIG    1        3.756   1.619  -0.406  0.00  0.00    +0.109 C 
ATOM      4  C   LIG    1        4.059   2.222   0.970  0.00  0.00    +0.019 C 
ATOM      5  C   LIG    1        2.986   3.257   1.315  0.00  0.00    +0.004 C 
ATOM      6  C   LIG    1        1.618   2.575   1.378  0.00  0.00    +0.034 C 
ATOM      7  C   LIG    1        1.288   1.976   0.007  0.00  0.00    +0.185 C 
ATOM      8  O   LIG    1        0.997  -0.576  -0.874  0.00  0.00    -0.263 OA
ENDROOT
BRANCH   1   9
ATOM      9  C   LIG    1        3.278  -1.120  -1.025  0.00  0.00    +0.395 C 
ATOM     10  O   LIG    1        4.415  -0.769  -0.795  0.00  0.00    -0.240 OA
BRANCH   9  12
ATOM     11  C   LIG    1        4.191  -3.202  -1.747  0.00  0.00    +0.280 C 
ATOM     12  O   LIG    1        3.039  -2.349  -1.516  0.00  0.00    -0.461 OA
ENDBRANCH   9  12
ENDBRANCH   1   9
BRANCH   7  13
ATOM     13  C   LIG    1        0.007   1.186   0.096  0.00  0.00    +0.328 C 
ATOM     14  O   LIG    1       -0.072   0.246   0.851  0.00  0.00    -0.249 OA
BRANCH  13  15
ATOM     15  O   LIG    1       -1.044   1.523  -0.668  0.00  0.00    -0.459 OA
BRANCH  15  16
ATOM     16  C   LIG    1       -2.242   0.714  -0.534  0.00  0.00    +0.267 C 
BRANCH  16  17
ATOM     17  C   LIG    1       -3.308   1.238  -1.462  0.00  0.00    -0.010 A 
ATOM     18  C   LIG    1       -4.195   2.202  -1.021  0.00  0.00    +0.007 A 
ATOM     19  C   LIG    1       -5.170   2.686  -1.874  0.00  0.00    +0.000 A 
ATOM     20  C   LIG    1       -5.263   2.199  -3.164  0.00  0.00    +0.000 A 
ATOM     21  C   LIG    1       -4.380   1.231  -3.603  0.00  0.00    +0.000 A 
ATOM     22  C   LIG    1       -3.402   0.750  -2.752  0.00  0.00    +0.007 A 
ENDBRANCH  16  17
ENDBRANCH  15  16
ENDBRANCH  13  15
ENDBRANCH   7  13
TORSDOF 6
