REMARK  Name = ZINC19943047
REMARK                            x       y       z     vdW  Elec       q    Type
REMARK                         _______ _______ _______ _____ _____    ______ ____
ROOT
ATOM      1  C   LIG    1        0.002  -0.004   0.002  0.00  0.00    -0.005 C 
ENDROOT
BRANCH   1   2
ATOM      2  C   LIG    1       -0.019   1.526   0.010  0.00  0.00    +0.011 C 
BRANCH   2   3
ATOM      3  C   LIG    1        1.417   2.055  -0.000  0.00  0.00    +0.127 C 
BRANCH   3   4
ATOM      4  P   LIG    1        1.392   3.878   0.010  0.00  0.00    +0.328 P 
ATOM      5  O   LIG    1        0.538   4.388  -1.173  0.00  0.00    -0.259 OA
BRANCH   4   6
ATOM      6  O   LIG    1        2.895   4.436  -0.134  0.00  0.00    -0.324 OA
ATOM      7  H   LIG    1        2.958   5.401  -0.136  0.00  0.00    +0.220 HD
ENDBRANCH   4   6
BRANCH   4   8
ATOM      8  O   LIG    1        0.782   4.378   1.338  0.00  0.00    -0.324 OA
ATOM      9  H   LIG    1       -0.124   4.041   1.425  0.00  0.00    +0.220 HD
ENDBRANCH   4   8
ENDBRANCH   3   4
ENDBRANCH   2   3
ENDBRANCH   1   2
BRANCH   1  10
ATOM     10  CA  LIG    1       -1.433  -0.534   0.013  0.00  0.00    +0.036 C 
BRANCH  10  11
ATOM     11  N   LIG    1       -2.107  -0.147  -1.234  0.00  0.00    +0.387 N 
ATOM     12  H1  LIG    1       -1.610  -0.539  -2.020  0.00  0.00    -0.089 HD
ATOM     13  H2  LIG    1       -2.120   0.859  -1.311  0.00  0.00    -0.089 HD
ATOM     14  H3  LIG    1       -3.054  -0.496  -1.227  0.00  0.00    -0.089 HD
ENDBRANCH  10  11
BRANCH  10  15
ATOM     15  C   LIG    1       -1.414  -2.036   0.129  0.00  0.00    +0.290 C 
ATOM     16  O   LIG    1       -1.065  -2.563   1.171  0.00  0.00    -0.253 OA
BRANCH  15  17
ATOM     17  OXT LIG    1       -1.746  -2.725  -0.821  0.00  0.00    -0.482 OA
ATOM     18  HXT LIG    1       -2.014  -2.320  -1.622  0.00  0.00    +0.295 HD
ENDBRANCH  15  17
ENDBRANCH  10  15
ENDBRANCH   1  10
TORSDOF 9
