REMARK  Name = ZINC13824112
REMARK                            x       y       z     vdW  Elec       q    Type
REMARK                         _______ _______ _______ _____ _____    ______ ____
ROOT
ATOM      1  N   LIG    1       -0.013  -0.029   0.044  0.00  0.00    +0.385 N 
ATOM      2  H   LIG    1       -0.015  -0.333   1.025  0.00  0.00    -0.081 HD
ATOM      3  C   LIG    1       -0.018   1.446   0.010  0.00  0.00    -0.036 C 
ATOM      4  C   LIG    1       -0.860   2.013  -1.132  0.00  0.00    -0.005 C 
ATOM      5  C   LIG    1       -1.079   3.518  -0.916  0.00  0.00    +0.043 C 
ATOM      6  C   LIG    1        0.219   4.173  -0.599  0.00  0.00    +0.018 A 
ATOM      7  C   LIG    1        1.378   3.566  -0.169  0.00  0.00    +0.078 A 
ATOM      8  N   LIG    1        2.434   4.354   0.060  0.00  0.00    -0.225 NA
ATOM      9  C   LIG    1        2.379   5.661  -0.117  0.00  0.00    +0.156 A 
ATOM     10  S   LIG    1        0.689   5.881  -0.663  0.00  0.00    -0.057 S 
ATOM     11  C   LIG    1        1.344   2.077   0.000  0.00  0.00    -0.039 C 
ATOM     12  C   LIG    1        2.469   1.401   0.091  0.00  0.00    -0.025 C 
ATOM     13  C   LIG    1        2.434  -0.108   0.163  0.00  0.00    +0.009 C 
ATOM     14  C   LIG    1        1.199  -0.579  -0.618  0.00  0.00    -0.074 C 
ENDROOT
BRANCH   9  15
ATOM     15  N   LIG    1        3.368   6.612   0.071  0.00  0.00    -0.338 N 
ATOM     16  H   LIG    1        4.248   6.342   0.376  0.00  0.00    +0.144 HD
ATOM     17  H   LIG    1        3.180   7.548  -0.101  0.00  0.00    +0.144 HD
ENDBRANCH   9  15
BRANCH   1  18
ATOM     18  C   LIG    1       -1.219  -0.544  -0.611  0.00  0.00    -0.078 C 
BRANCH  18  20
ATOM     19  C   LIG    1       -2.552  -2.617  -1.019  0.00  0.00    +0.002 C 
ATOM     20  C   LIG    1       -1.280  -2.055  -0.380  0.00  0.00    -0.022 C 
ENDBRANCH  18  20
ENDBRANCH   1  18
TORSDOF 3
