REMARK  Name = ZINC00008765
REMARK                            x       y       z     vdW  Elec       q    Type
REMARK                         _______ _______ _______ _____ _____    ______ ____
ROOT
ATOM      1  C   LIG    1        3.707  -0.674  -0.033  0.00  0.00    +0.085 A 
ATOM      2  C   LIG    1        3.639  -2.062   0.016  0.00  0.00    +0.126 A 
ATOM      3  N   LIG    1        2.478  -2.692   0.019  0.00  0.00    -0.260 NA
ATOM      4  C   LIG    1        1.317  -2.081  -0.022  0.00  0.00    +0.035 A 
ATOM      5  C   LIG    1        1.238  -0.684  -0.073  0.00  0.00    +0.044 A 
ATOM      6  C   LIG    1        0.003  -0.006  -0.119  0.00  0.00    +0.133 A 
ATOM      7  C   LIG    1       -0.016   1.360  -0.169  0.00  0.00    +0.092 A 
ATOM      8  C   LIG    1        1.171   2.094  -0.175  0.00  0.00    +0.124 A 
ATOM      9  C   LIG    1        2.397   1.457  -0.130  0.00  0.00    +0.055 A 
ATOM     10  C   LIG    1        2.444   0.066  -0.080  0.00  0.00    +0.006 A 
ENDROOT
BRANCH   1  11
ATOM     11  C   LIG    1        5.001   0.027  -0.037  0.00  0.00    +0.341 C 
ATOM     12  O   LIG    1        5.034   1.241  -0.080  0.00  0.00    -0.245 OA
BRANCH  11  13
ATOM     13  O   LIG    1        6.149  -0.678   0.007  0.00  0.00    -0.461 OA
BRANCH  13  15
ATOM     14  C   LIG    1        8.575  -0.884   0.053  0.00  0.00    +0.048 C 
ATOM     15  C   LIG    1        7.388   0.079  -0.000  0.00  0.00    +0.229 C 
ENDBRANCH  13  15
ENDBRANCH  11  13
ENDBRANCH   1  11
BRANCH   6  16
ATOM     16  O   LIG    1       -1.161  -0.705  -0.113  0.00  0.00    -0.494 OA
ATOM     17  C   LIG    1       -2.372   0.052  -0.161  0.00  0.00    +0.277 C 
ENDBRANCH   6  16
BRANCH   8  18
ATOM     18  O   LIG    1        1.121   3.450  -0.225  0.00  0.00    -0.495 OA
ATOM     19  C   LIG    1       -0.175   4.050  -0.269  0.00  0.00    +0.277 C 
ENDBRANCH   8  18
BRANCH   4  20
ATOM     20  C   LIG    1        0.049  -2.895  -0.015  0.00  0.00    -0.029 C 
BRANCH  20  21
ATOM     21  N   LIG    1       -0.446  -3.026  -1.396  0.00  0.00    +0.382 N 
ATOM     22  H   LIG    1       -0.661  -2.093  -1.768  0.00  0.00    -0.090 HD
ATOM     23  H   LIG    1       -1.292  -3.594  -1.412  0.00  0.00    -0.090 HD
ATOM     24  H   LIG    1        0.265  -3.461  -1.982  0.00  0.00    -0.090 HD
ENDBRANCH  20  21
ENDBRANCH   4  20
TORSDOF 7
