REMARK  Name = ZINC26384919
REMARK                            x       y       z     vdW  Elec       q    Type
REMARK                         _______ _______ _______ _____ _____    ______ ____
ROOT
ATOM      1  C   LIG    1       -0.304  -3.884   0.944  0.00  0.00    +0.338 C 
ATOM      2  O   LIG    1        0.721  -4.409   1.339  0.00  0.00    -0.245 OA
ENDROOT
BRANCH   1   7
ATOM      3  C   LIG    1        0.562   1.191  -1.412  0.00  0.00    +0.061 C 
ATOM      4  C   LIG    1        0.155  -0.077  -0.708  0.00  0.00    +0.016 C 
ATOM      5  C   LIG    1        0.293  -0.170   0.626  0.00  0.00    +0.065 C 
ATOM      6  C   LIG    1       -0.106  -1.412   1.371  0.00  0.00    +0.096 C 
ATOM      7  C   LIG    1       -0.270  -2.569   0.427  0.00  0.00    +0.065 C 
ATOM      8  C   LIG    1       -0.385  -2.380  -0.899  0.00  0.00    +0.016 C 
ATOM      9  C   LIG    1       -0.556  -3.570  -1.808  0.00  0.00    +0.061 C 
ATOM     10  N   LIG    1       -0.354  -1.119  -1.433  0.00  0.00    -0.321 N 
ATOM     11  H   LIG    1       -0.691  -0.965  -2.329  0.00  0.00    +0.152 HD
BRANCH   6  12
ATOM     12  C   LIG    1       -1.411  -1.165   2.083  0.00  0.00    -0.033 A 
ATOM     13  C   LIG    1       -2.542  -0.832   1.360  0.00  0.00    +0.005 A 
ATOM     14  C   LIG    1       -3.738  -0.606   2.013  0.00  0.00    +0.003 A 
ATOM     15  C   LIG    1       -3.805  -0.713   3.390  0.00  0.00    +0.032 A 
ATOM     16  C   LIG    1       -2.676  -1.046   4.113  0.00  0.00    +0.122 A 
ATOM     17  C   LIG    1       -1.480  -1.277   3.459  0.00  0.00    +0.037 A 
BRANCH  16  18
ATOM     18  N   LIG    1       -2.747  -1.160   5.587  0.00  0.00    +0.006 N 
ATOM     19  O   LIG    1       -3.794  -0.961   6.159  0.00  0.00    -0.130 OA
BRANCH  18  20
ATOM     20  O   LIG    1       -1.759  -1.452   6.220  0.00  0.00    -0.396 OA
ATOM     21  H   LIG    1       -0.948  -1.606   5.777  0.00  0.00    +0.329 HD
ENDBRANCH  18  20
ENDBRANCH  16  18
ENDBRANCH   6  12
BRANCH   5  22
ATOM     22  C   LIG    1        0.826   0.926   1.344  0.00  0.00    +0.337 C 
ATOM     23  O   LIG    1        1.154   1.938   0.754  0.00  0.00    -0.245 OA
BRANCH  22  24
ATOM     24  O   LIG    1        0.971   0.849   2.684  0.00  0.00    -0.465 OA
ATOM     25  C   LIG    1        1.515   1.993   3.344  0.00  0.00    +0.280 C 
ENDBRANCH  22  24
ENDBRANCH   5  22
ENDBRANCH   1   7
BRANCH   1  26
ATOM     26  O   LIG    1       -1.472  -4.558   1.000  0.00  0.00    -0.461 OA
BRANCH  26  27
ATOM     27  C   LIG    1       -1.432  -5.883   1.534  0.00  0.00    +0.230 C 
BRANCH  27  28
ATOM     28  C   LIG    1       -2.839  -6.483   1.516  0.00  0.00    +0.023 C 
BRANCH  28  29
ATOM     29  C   LIG    1       -2.796  -7.901   2.088  0.00  0.00    -0.076 C 
BRANCH  29  30
ATOM     30  N   LIG    1       -4.148  -8.477   2.071  0.00  0.00    +0.380 N 
ATOM     31  H   LIG    1       -4.519  -8.434   1.134  0.00  0.00    -0.082 HD
ATOM     32  C   LIG    1       -5.016  -7.711   2.974  0.00  0.00    -0.078 C 
ATOM     33  C   LIG    1       -6.444  -8.256   2.899  0.00  0.00    -0.003 C 
ATOM     34  C   LIG    1       -6.444  -9.729   3.315  0.00  0.00    +0.017 C 
ATOM     35  C   LIG    1       -5.479 -10.505   2.414  0.00  0.00    -0.003 C 
ATOM     36  C   LIG    1       -4.087  -9.877   2.507  0.00  0.00    -0.078 C 
BRANCH  34  37
ATOM     37  C   LIG    1       -6.000  -9.848   4.750  0.00  0.00    -0.037 A 
ATOM     38  C   LIG    1       -6.610  -9.085   5.728  0.00  0.00    +0.004 A 
ATOM     39  C   LIG    1       -6.202  -9.194   7.045  0.00  0.00    +0.000 A 
ATOM     40  C   LIG    1       -5.184 -10.065   7.383  0.00  0.00    +0.000 A 
ATOM     41  C   LIG    1       -4.574 -10.828   6.405  0.00  0.00    +0.000 A 
ATOM     42  C   LIG    1       -4.985 -10.723   5.089  0.00  0.00    +0.004 A 
ENDBRANCH  34  37
BRANCH  34  43
ATOM     43  C   LIG    1       -7.834 -10.294   3.169  0.00  0.00    -0.037 A 
ATOM     44  C   LIG    1       -8.855  -9.499   2.682  0.00  0.00    +0.004 A 
ATOM     45  C   LIG    1      -10.130 -10.017   2.548  0.00  0.00    +0.000 A 
ATOM     46  C   LIG    1      -10.383 -11.329   2.900  0.00  0.00    +0.000 A 
ATOM     47  C   LIG    1       -9.362 -12.124   3.386  0.00  0.00    +0.000 A 
ATOM     48  C   LIG    1       -8.087 -11.608   3.516  0.00  0.00    +0.004 A 
ENDBRANCH  34  43
ENDBRANCH  29  30
ENDBRANCH  28  29
ENDBRANCH  27  28
ENDBRANCH  26  27
ENDBRANCH   1  26
TORSDOF 13
