REMARK  Name = ZINC49111167
REMARK                            x       y       z     vdW  Elec       q    Type
REMARK                         _______ _______ _______ _____ _____    ______ ____
ROOT
ATOM      1  C   LIG    1        2.610  -4.567   0.465  0.00  0.00    +0.159 A 
ATOM      2  C   LIG    1        3.610  -3.807   1.050  0.00  0.00    +0.094 A 
ATOM      3  C   LIG    1        4.742  -4.426   1.557  0.00  0.00    +0.128 A 
ATOM      4  C   LIG    1        4.872  -5.805   1.479  0.00  0.00    +0.014 A 
ATOM      5  C   LIG    1        3.874  -6.563   0.896  0.00  0.00    +0.051 A 
ATOM      6  C   LIG    1        2.741  -5.949   0.393  0.00  0.00    +0.165 A 
ATOM      7  F   LIG    1        1.764  -6.691  -0.172  0.00  0.00    -0.202 F 
ENDROOT
BRANCH   3   8
ATOM      8  O   LIG    1        5.724  -3.682   2.131  0.00  0.00    -0.495 OA
ATOM      9  C   LIG    1        5.524  -2.268   2.177  0.00  0.00    +0.277 C 
ENDBRANCH   3   8
BRANCH   1  10
ATOM     10  O   LIG    1        1.498  -3.963  -0.034  0.00  0.00    -0.486 OA
BRANCH  10  16
ATOM     11  C   LIG    1        0.010   1.526   0.254  0.00  0.00    +0.011 C 
ATOM     12  C   LIG    1        0.029  -0.004   0.248  0.00  0.00    -0.035 C 
ATOM     13  C   LIG    1       -1.381  -0.533   0.515  0.00  0.00    +0.011 C 
ATOM     14  C   LIG    1        0.512  -0.503  -1.115  0.00  0.00    +0.010 C 
ATOM     15  C   LIG    1        0.532  -2.033  -1.120  0.00  0.00    +0.045 C 
ATOM     16  C   LIG    1        1.480  -2.534  -0.029  0.00  0.00    +0.174 C 
ATOM     17  C   LIG    1        0.997  -2.035   1.335  0.00  0.00    +0.045 C 
ATOM     18  C   LIG    1        0.977  -0.505   1.340  0.00  0.00    +0.010 C 
ENDBRANCH  10  16
ENDBRANCH   1  10
BRANCH   4  19
ATOM     19  C   LIG    1        6.102  -6.477   2.031  0.00  0.00    +0.143 C 
BRANCH  19  20
ATOM     20  N   LIG    1        5.977  -6.608   3.485  0.00  0.00    -0.312 N 
ATOM     21  H   LIG    1        5.182  -6.280   3.935  0.00  0.00    +0.149 HD
ATOM     22  C   LIG    1        6.965  -7.183   4.198  0.00  0.00    +0.199 C 
ATOM     23  O   LIG    1        7.959  -7.593   3.636  0.00  0.00    -0.278 OA
BRANCH  22  24
ATOM     24  C   LIG    1        6.836  -7.317   5.693  0.00  0.00    +0.016 C 
ATOM     25  C   LIG    1        6.731  -5.920   6.339  0.00  0.00    -0.009 C 
ATOM     26  C   LIG    1        7.562  -6.072   7.640  0.00  0.00    -0.020 C 
ATOM     27  C   LIG    1        8.695  -7.022   7.179  0.00  0.00    -0.082 C 
ATOM     28  N   LIG    1        8.040  -7.968   6.244  0.00  0.00    +0.387 N 
ATOM     29  H   LIG    1        8.674  -8.199   5.495  0.00  0.00    -0.085 HD
ATOM     30  H   LIG    1        7.776  -8.808   6.737  0.00  0.00    -0.085 HD
ENDBRANCH  22  24
ENDBRANCH  19  20
ENDBRANCH   4  19
TORSDOF 6
