REMARK  Name = ZINC20114377
REMARK                            x       y       z     vdW  Elec       q    Type
REMARK                         _______ _______ _______ _____ _____    ______ ____
ROOT
ATOM      1  C   LIG    1       10.989   3.145   0.315  0.00  0.00    +0.044 C 
ATOM      2  C   LIG    1       10.904   1.641   0.294  0.00  0.00    -0.038 A 
ATOM      3  C   LIG    1       12.030   0.877   0.366  0.00  0.00    +0.047 A 
ATOM      4  C   LIG    1       11.928  -0.521   0.346  0.00  0.00    +0.122 A 
ATOM      5  N   LIG    1       10.761  -1.125   0.258  0.00  0.00    -0.232 NA
ATOM      6  C   LIG    1        9.621  -0.428   0.185  0.00  0.00    +0.073 A 
ATOM      7  C   LIG    1        8.380  -1.083   0.092  0.00  0.00    +0.030 A 
ATOM      8  C   LIG    1        7.232  -0.357   0.023  0.00  0.00    +0.025 A 
ATOM      9  C   LIG    1        7.262   1.041   0.032  0.00  0.00    +0.034 A 
ATOM     10  C   LIG    1        8.461   1.715   0.123  0.00  0.00    +0.033 A 
ATOM     11  C   LIG    1        9.658   0.988   0.201  0.00  0.00    +0.005 A 
ENDROOT
BRANCH   4  12
ATOM     12  N   LIG    1       13.083  -1.286   0.420  0.00  0.00    -0.313 N 
ATOM     13  C   LIG    1       14.020  -0.929  -0.654  0.00  0.00    +0.122 C 
ATOM     14  C   LIG    1       15.310  -1.737  -0.491  0.00  0.00    +0.103 C 
ATOM     15  N   LIG    1       14.995  -3.172  -0.526  0.00  0.00    -0.302 NA
ATOM     16  C   LIG    1       16.218  -3.982  -0.448  0.00  0.00    +0.105 C 
ATOM     17  C   LIG    1       14.057  -3.529   0.547  0.00  0.00    +0.103 C 
ATOM     18  C   LIG    1       12.767  -2.721   0.384  0.00  0.00    +0.122 C 
ENDBRANCH   4  12
BRANCH   9  19
ATOM     19  N   LIG    1        6.066   1.762  -0.045  0.00  0.00    -0.282 N 
ATOM     20  H   LIG    1        5.966   2.721   0.484  0.00  0.00    +0.155 HD
ATOM     21  C   LIG    1        5.036   1.281  -0.769  0.00  0.00    +0.241 C 
ATOM     22  O   LIG    1        5.177   0.270  -1.432  0.00  0.00    -0.270 OA
BRANCH  21  23
ATOM     23  C   LIG    1        3.746   1.974  -0.758  0.00  0.00    +0.068 C 
ATOM     24  C   LIG    1        2.716   1.493  -1.482  0.00  0.00    +0.013 C 
BRANCH  24  25
ATOM     25  C   LIG    1        1.419   2.190  -1.470  0.00  0.00    -0.023 A 
ATOM     26  C   LIG    1        1.253   3.352  -0.709  0.00  0.00    +0.008 A 
ATOM     27  C   LIG    1        0.036   3.999  -0.703  0.00  0.00    +0.002 A 
ATOM     28  C   LIG    1       -1.020   3.504  -1.447  0.00  0.00    +0.020 A 
ATOM     29  C   LIG    1       -0.863   2.357  -2.208  0.00  0.00    +0.042 A 
ATOM     30 CL   LIG    1       -2.192   1.748  -3.143  0.00  0.00    -0.084 Cl
ATOM     31  C   LIG    1        0.348   1.694  -2.219  0.00  0.00    +0.028 A 
ENDBRANCH  24  25
ENDBRANCH  21  23
ENDBRANCH   9  19
TORSDOF 4
