REMARK  Name = ZINC64479798
REMARK                            x       y       z     vdW  Elec       q    Type
REMARK                         _______ _______ _______ _____ _____    ______ ____
ROOT
ATOM      1  C   LIG    1        0.626  -2.017   1.249  0.00  0.00    +0.019 C 
ENDROOT
BRANCH   1   2
ATOM      2  C   LIG    1        1.355  -2.516   2.470  0.00  0.00    -0.048 A 
ATOM      3  C   LIG    1        2.701  -2.821   2.395  0.00  0.00    +0.003 A 
ATOM      4  C   LIG    1        3.370  -3.279   3.514  0.00  0.00    +0.002 A 
ATOM      5  C   LIG    1        2.694  -3.433   4.710  0.00  0.00    +0.020 A 
ATOM      6  C   LIG    1        1.347  -3.128   4.786  0.00  0.00    +0.041 A 
ATOM      7 CL   LIG    1        0.496  -3.321   6.287  0.00  0.00    -0.084 Cl
ATOM      8  C   LIG    1        0.678  -2.664   3.666  0.00  0.00    +0.023 A 
ENDBRANCH   1   2
BRANCH   1   9
ATOM      9  C   LIG    1        0.713  -0.491   1.192  0.00  0.00    -0.051 C 
BRANCH   9  11
ATOM     10  C   LIG    1       -0.018   1.465   0.010  0.00  0.00    -0.071 C 
ATOM     11  N   LIG    1        0.002  -0.004   0.002  0.00  0.00    +0.384 N 
ATOM     12  H   LIG    1       -0.945  -0.353   0.009  0.00  0.00    -0.057 HD
BRANCH  11  13
ATOM     13  N   LIG    1        0.683  -0.473  -1.194  0.00  0.00    -0.379 NA
ATOM     14  H   LIG    1        1.633  -0.136  -1.225  0.00  0.00    +0.099 HD
ATOM     15  H   LIG    1        0.177  -0.206  -2.026  0.00  0.00    +0.099 HD
ENDBRANCH  11  13
ENDBRANCH   9  11
ENDBRANCH   1   9
TORSDOF 4
