REMARK  Name = ZINC28711172
REMARK                            x       y       z     vdW  Elec       q    Type
REMARK                         _______ _______ _______ _____ _____    ______ ____
ROOT
ATOM      1  C   UNK A  0        2.594   1.164   0.174  0.00  0.00    +0.035 A 
ATOM      2  C   UNK A  0        1.299   1.387  -0.287  0.00  0.00    +0.024 A 
ATOM      3  C   UNK A  0        0.325   0.433  -0.096  0.00  0.00    +0.015 A 
ATOM      4  C   UNK A  0        0.637  -0.760   0.562  0.00  0.00    +0.037 A 
ATOM      5  C   UNK A  0        1.938  -0.981   1.024  0.00  0.00    +0.015 A 
ATOM      6  C   UNK A  0        2.907  -0.023   0.830  0.00  0.00    +0.024 A 
ENDROOT
BRANCH   4   7
ATOM      7  C   UNK A  0       -0.405  -1.784   0.769  0.00  0.00    +0.245 C 
ATOM      8  N   GLU A  1       -0.102  -2.934   1.404  0.00  0.00    -0.298 N 
ATOM      9  H   GLU A  1        0.921  -3.109   1.767  0.00  0.00    +0.150 HD
ATOM     10  O   UNK A  0       -1.536  -1.591   0.366  0.00  0.00    -0.270 OA
BRANCH   8  11
ATOM     11  CA  GLU A  1       -1.137  -3.951   1.609  0.00  0.00    +0.182 C 
BRANCH  11  12
ATOM     12  C   GLU A  1       -1.235  -4.822   0.383  0.00  0.00    +0.325 C 
ATOM     13  O   GLU A  1       -0.515  -4.615  -0.565  0.00  0.00    -0.249 OA
BRANCH  12  14
ATOM     14  OXT GLU A  1       -2.123  -5.828   0.345  0.00  0.00    -0.479 OA
ATOM     15  HXT GLU A  1       -2.681  -5.989   1.080  0.00  0.00    +0.295 HD
ENDBRANCH  12  14
ENDBRANCH  11  12
BRANCH  11  16
ATOM     16  CB  GLU A  1       -0.771  -4.812   2.819  0.00  0.00    +0.045 C 
BRANCH  16  17
ATOM     17  CG  GLU A  1       -0.794  -3.951   4.084  0.00  0.00    +0.123 C 
BRANCH  17  18
ATOM     18  CD  GLU A  1       -0.434  -4.800   5.276  0.00  0.00    +0.305 C 
ATOM     19  OE1 GLU A  1       -0.185  -5.973   5.129  0.00  0.00    -0.251 OA
BRANCH  18  20
ATOM     20  OE2 GLU A  1       -0.390  -4.253   6.501  0.00  0.00    -0.481 OA
ATOM     21  HE2 GLU A  1       -0.582  -3.343   6.615  0.00  0.00    +0.295 HD
ENDBRANCH  18  20
ENDBRANCH  17  18
ENDBRANCH  16  17
ENDBRANCH  11  16
ENDBRANCH   8  11
ENDBRANCH   4   7
BRANCH   1  23
ATOM     22  C   UNK A  0        4.345   2.153  -1.267  0.00  0.00    +0.137 C 
ATOM     23  N   UNK A  0        3.576   2.130  -0.020  0.00  0.00    -0.287 N 
BRANCH  23  24
ATOM     24  C   UNK A  0        3.828   3.075   0.969  0.00  0.00    +0.144 A 
ATOM     25  C   UNK A  0        2.980   3.159   2.085  0.00  0.00    +0.157 A 
ATOM     26  N   UNK A  0        3.202   4.045   3.029  0.00  0.00    -0.231 NA
ATOM     27  C   UNK A  0        4.245   4.874   2.928  0.00  0.00    +0.185 A 
ATOM     28  C   UNK A  0        5.100   4.790   1.804  0.00  0.00    +0.149 A 
ATOM     29  C   UNK A  0        6.199   5.686   1.726  0.00  0.00    +0.149 A 
ATOM     30  N   UNK A  0        6.370   6.557   2.708  0.00  0.00    -0.198 NA
ATOM     31  C   UNK A  0        5.542   6.601   3.747  0.00  0.00    +0.216 A 
ATOM     32  N   UNK A  0        4.506   5.792   3.869  0.00  0.00    -0.193 NA
ATOM     33  N   UNK A  0        4.866   3.883   0.855  0.00  0.00    -0.224 NA
BRANCH  29  34
ATOM     34  N   UNK A  0        7.065   5.650   0.654  0.00  0.00    -0.341 N 
ATOM     35  H   UNK A  0        6.909   4.920  -0.155  0.00  0.00    +0.144 HD
ATOM     36  H   UNK A  0        7.912   6.350   0.607  0.00  0.00    +0.144 HD
ENDBRANCH  29  34
BRANCH  31  37
ATOM     37  N   UNK A  0        5.774   7.534   4.741  0.00  0.00    -0.327 N 
ATOM     38  H   UNK A  0        6.630   8.220   4.662  0.00  0.00    +0.145 HD
ATOM     39  H   UNK A  0        5.102   7.591   5.610  0.00  0.00    +0.145 HD
ENDBRANCH  31  37
ENDBRANCH  23  24
ENDBRANCH   1  23
TORSDOF 12
