REMARK  Name = ZINC13781523
REMARK                            x       y       z     vdW  Elec       q    Type
REMARK                         _______ _______ _______ _____ _____    ______ ____
ROOT
ATOM      1  C   LIG    1        0.557  -4.764   1.560  0.00  0.00    +0.000 A 
ATOM      2  C   LIG    1        1.489  -4.039   2.279  0.00  0.00    +0.000 A 
ATOM      3  C   LIG    1        1.516  -2.663   2.170  0.00  0.00    +0.004 A 
ATOM      4  C   LIG    1        0.615  -2.003   1.346  0.00  0.00    -0.043 A 
ATOM      5  C   LIG    1       -0.310  -2.726   0.623  0.00  0.00    -0.044 A 
ATOM      6  C   LIG    1       -1.310  -2.082  -0.300  0.00  0.00    +0.034 C 
ATOM      7  C   LIG    1       -1.414  -0.579  -0.044  0.00  0.00    -0.011 C 
ATOM      8  C   LIG    1        0.002  -0.004   0.002  0.00  0.00    -0.064 C 
ATOM      9  N   LIG    1       -0.023   1.465   0.010  0.00  0.00    +0.381 N 
ATOM     10  H   LIG    1       -0.523   1.801  -0.822  0.00  0.00    -0.086 HD
ATOM     11  H   LIG    1       -0.507   1.792   0.855  0.00  0.00    -0.086 HD
ATOM     12  C   LIG    1        1.354   1.993  -0.000  0.00  0.00    -0.082 C 
ATOM     13  C   LIG    1        2.109   1.527   1.245  0.00  0.00    -0.019 C 
ATOM     14  C   LIG    1        2.123  -0.005   1.302  0.00  0.00    +0.005 C 
ATOM     15  C   LIG    1        0.679  -0.504   1.277  0.00  0.00    +0.005 C 
ATOM     16  C   LIG    1       -0.336  -4.110   0.737  0.00  0.00    +0.004 A 
ENDROOT
TORSDOF 0
