REMARK  Name = ZINC38144703
REMARK                            x       y       z     vdW  Elec       q    Type
REMARK                         _______ _______ _______ _____ _____    ______ ____
ROOT
ATOM      1  CB  VAL A  1        0.155   1.804  -0.164  0.00  0.00    +0.038 C 
ATOM      2  CA  VAL A  1       -0.084   0.300  -0.311  0.00  0.00    +0.156 C 
ENDROOT
BRANCH   2   3
ATOM      3  N   VAL A  1        0.682  -0.206  -1.452  0.00  0.00    -0.303 N 
ATOM      4  H   VAL A  1        0.261  -0.288  -2.322  0.00  0.00    +0.149 HD
ATOM      5  C   VAL A  1        1.974  -0.558  -1.294  0.00  0.00    +0.234 C 
ATOM      6  O   VAL A  1        2.526  -0.375  -0.230  0.00  0.00    -0.274 OA
BRANCH   5   7
ATOM      7  CA  VAL A  1        2.732  -1.179  -2.439  0.00  0.00    +0.161 C 
BRANCH   7   8
ATOM      8  N   VAL A  1        4.157  -0.870  -2.305  0.00  0.00    -0.304 N 
ATOM      9  H   VAL A  1        4.531  -0.673  -1.432  0.00  0.00    +0.149 HD
ATOM     10  C   UNK A  0        4.949  -0.858  -3.396  0.00  0.00    +0.211 C 
ATOM     11  C   UNK A  0        6.416  -0.540  -3.259  0.00  0.00    +0.109 C 
ATOM     12  O   UNK A  0        4.481  -1.103  -4.488  0.00  0.00    -0.276 OA
ENDBRANCH   7   8
BRANCH   7  13
ATOM     13  CB  VAL A  1        2.535  -2.696  -2.418  0.00  0.00    +0.012 C 
ATOM     14  CG2 VAL A  1        3.347  -3.332  -3.547  0.00  0.00    +0.009 C 
ATOM     15  CG1 VAL A  1        1.052  -3.021  -2.611  0.00  0.00    +0.009 C 
ENDBRANCH   7  13
ENDBRANCH   5   7
ENDBRANCH   2   3
BRANCH   2  16
ATOM     16  C   VAL A  1       -1.552   0.045  -0.539  0.00  0.00    +0.234 C 
ATOM     17  N   ASP A  2       -2.454   0.428   0.386  0.00  0.00    -0.304 N 
ATOM     18  H   ASP A  2       -2.159   0.869   1.198  0.00  0.00    +0.149 HD
ATOM     19  O   VAL A  1       -1.921  -0.506  -1.555  0.00  0.00    -0.274 OA
BRANCH  17  20
ATOM     20  CA  ASP A  2       -3.881   0.180   0.164  0.00  0.00    +0.146 C 
BRANCH  20  21
ATOM     21  C   ASP A  2       -4.464   1.300  -0.659  0.00  0.00    +0.246 C 
ATOM     22  O   ASP A  2       -3.760   2.211  -1.024  0.00  0.00    -0.299 OA
ENDBRANCH  20  21
BRANCH  20  23
ATOM     23  CB  ASP A  2       -4.602   0.110   1.512  0.00  0.00    +0.150 C 
BRANCH  23  24
ATOM     24  CG  ASP A  2       -4.105  -1.084   2.285  0.00  0.00    +0.307 C 
ATOM     25  OD1 ASP A  2       -3.253  -1.812   1.804  0.00  0.00    -0.251 OA
BRANCH  24  26
ATOM     26  OD2 ASP A  2       -4.554  -1.323   3.393  0.00  0.00    -0.481 OA
ATOM     27  HD2 ASP A  2       -5.209  -0.764   3.764  0.00  0.00    +0.295 HD
ENDBRANCH  24  26
ENDBRANCH  23  24
ENDBRANCH  20  23
ENDBRANCH  17  20
ENDBRANCH   2  16
TORSDOF 10
