REMARK  Name = ZINC33926974
REMARK                            x       y       z     vdW  Elec       q    Type
REMARK                         _______ _______ _______ _____ _____    ______ ____
ROOT
ATOM      1  C   LIG    1        3.654   2.182  -0.022  0.00  0.00    +0.136 A 
ATOM      2  C   LIG    1        3.760   3.544  -0.010  0.00  0.00    +0.050 A 
ATOM      3  C   LIG    1        5.123   3.852  -0.024  0.00  0.00    +0.050 A 
ATOM      4  C   LIG    1        5.803   2.647  -0.044  0.00  0.00    +0.130 A 
ATOM      5  O   LIG    1        4.891   1.652  -0.036  0.00  0.00    -0.455 OA
ENDROOT
BRANCH   4   6
ATOM      6  C   LIG    1        7.205   2.486  -0.063  0.00  0.00    +0.066 C 
ATOM      7  C   LIG    1        7.748   1.235  -0.081  0.00  0.00    +0.082 C 
ATOM      8  C   LIG    1        9.121   0.840  -0.097  0.00  0.00    +0.258 C 
ATOM      9  N   LIG    1        9.395  -0.453  -0.113  0.00  0.00    -0.243 N 
ATOM     10  H   LIG    1       10.319  -0.746  -0.124  0.00  0.00    +0.159 HD
ATOM     11  C   LIG    1        8.405  -1.374  -0.116  0.00  0.00    +0.283 C 
ATOM     12  O   LIG    1        8.493  -2.587  -0.130  0.00  0.00    -0.262 OA
ATOM     13  O   LIG    1       10.012   1.670  -0.094  0.00  0.00    -0.269 OA
ATOM     14  S   LIG    1        6.936  -0.358  -0.085  0.00  0.00    -0.026 S 
ENDBRANCH   4   6
BRANCH   1  17
ATOM     15  C   LIG    1       -0.017   1.376   0.010  0.00  0.00    +0.001 A 
ATOM     16  C   LIG    1        1.166   2.090   0.002  0.00  0.00    +0.011 A 
ATOM     17  C   LIG    1        2.391   1.418  -0.013  0.00  0.00    +0.018 A 
ATOM     18  C   LIG    1        2.418   0.023  -0.021  0.00  0.00    +0.026 A 
ATOM     19  C   LIG    1        1.221  -0.690  -0.013  0.00  0.00    +0.060 A 
ATOM     20  C   LIG    1        0.002  -0.004   0.002  0.00  0.00    +0.015 A 
BRANCH  19  21
ATOM     21  C   LIG    1        1.239  -2.166  -0.022  0.00  0.00    +0.337 C 
ATOM     22  O   LIG    1        2.305  -2.764  -0.036  0.00  0.00    -0.245 OA
BRANCH  21  23
ATOM     23  O   LIG    1        0.187  -2.790  -0.015  0.00  0.00    -0.477 OA
ATOM     24  H   LIG    1       -0.630  -2.331  -0.005  0.00  0.00    +0.295 HD
ENDBRANCH  21  23
ENDBRANCH  19  21
ENDBRANCH   1  17
TORSDOF 4
