REMARK  Name = ZINC13798353
REMARK                            x       y       z     vdW  Elec       q    Type
REMARK                         _______ _______ _______ _____ _____    ______ ____
ROOT
ATOM      1  C   LIG    1        7.659   2.891   1.306  0.00  0.00    +0.162 C 
ATOM      2  C   LIG    1        7.710   2.760   2.842  0.00  0.00    +0.033 C 
ATOM      3  C   LIG    1        8.456   4.053   3.274  0.00  0.00    +0.021 C 
ATOM      4  C   LIG    1        7.933   5.078   2.237  0.00  0.00    +0.109 C 
ATOM      5  N   LIG    1        7.815   4.316   0.980  0.00  0.00    -0.288 N 
ATOM      6  C   LIG    1        7.846   4.840  -0.262  0.00  0.00    +0.243 C 
ATOM      7  O   LIG    1        7.740   4.115  -1.228  0.00  0.00    -0.273 OA
ENDROOT
BRANCH   1  13
ATOM      8  C   LIG    1        4.758   0.462   0.462  0.00  0.00    +0.162 C 
ATOM      9  C   LIG    1        4.494  -0.727   1.419  0.00  0.00    +0.033 C 
ATOM     10  C   LIG    1        5.937  -1.206   1.728  0.00  0.00    +0.021 C 
ATOM     11  C   LIG    1        6.739   0.112   1.758  0.00  0.00    +0.109 C 
ATOM     12  N   LIG    1        5.977   1.105   0.987  0.00  0.00    -0.288 N 
ATOM     13  C   LIG    1        6.333   2.391   0.793  0.00  0.00    +0.237 C 
ATOM     14  O   LIG    1        5.586   3.144   0.205  0.00  0.00    -0.274 OA
BRANCH   8  17
ATOM     15  N   LIG    1        2.604   1.312  -0.407  0.00  0.00    -0.303 N 
ATOM     16  H   LIG    1        2.631   0.608  -1.074  0.00  0.00    +0.149 HD
ATOM     17  C   LIG    1        3.601   1.428   0.492  0.00  0.00    +0.234 C 
ATOM     18  O   LIG    1        3.568   2.308   1.326  0.00  0.00    -0.274 OA
BRANCH  15  20
ATOM     19  C   LIG    1        1.846   3.511  -1.165  0.00  0.00    +0.038 C 
ATOM     20  C   LIG    1        1.480   2.251  -0.378  0.00  0.00    +0.156 C 
BRANCH  20  21
ATOM     21  C   LIG    1        0.269   1.604  -1.001  0.00  0.00    +0.231 C 
ATOM     22  N   LIG    1       -0.889   2.287  -1.089  0.00  0.00    -0.328 N 
ATOM     23  H   LIG    1       -0.945   3.193  -0.748  0.00  0.00    +0.145 HD
ATOM     24  H   LIG    1       -1.667   1.872  -1.494  0.00  0.00    +0.145 HD
ATOM     25  O   LIG    1        0.339   0.470  -1.427  0.00  0.00    -0.274 OA
ENDBRANCH  20  21
ENDBRANCH  15  20
ENDBRANCH   8  17
ENDBRANCH   1  13
BRANCH   6  26
ATOM     26  C   LIG    1        8.012   6.326  -0.449  0.00  0.00    +0.186 C 
BRANCH  26  27
ATOM     27  O   LIG    1        8.132   6.620  -1.843  0.00  0.00    -0.384 OA
ATOM     28  H   LIG    1        7.366   6.349  -2.368  0.00  0.00    +0.210 HD
ENDBRANCH  26  27
BRANCH  26  29
ATOM     29  C   LIG    1        6.793   7.051   0.123  0.00  0.00    -0.033 C 
BRANCH  29  30
ATOM     30  N   LIG    1        5.554   6.531  -0.482  0.00  0.00    +0.382 N 
ATOM     31  H   LIG    1        4.752   7.053  -0.111  0.00  0.00    -0.090 HD
ATOM     32  H   LIG    1        5.442   5.545  -0.256  0.00  0.00    -0.090 HD
ATOM     33  H   LIG    1        5.585   6.645  -1.494  0.00  0.00    -0.090 HD
ENDBRANCH  29  30
BRANCH  29  34
ATOM     34  C   LIG    1        6.903   8.548  -0.178  0.00  0.00    +0.022 C 
BRANCH  34  35
ATOM     35  C   LIG    1        5.766   9.279   0.489  0.00  0.00    -0.049 A 
ATOM     36  C   LIG    1        4.576   9.472  -0.187  0.00  0.00    +0.003 A 
ATOM     37  C   LIG    1        3.533  10.139   0.427  0.00  0.00    +0.000 A 
ATOM     38  C   LIG    1        3.682  10.621   1.714  0.00  0.00    +0.000 A 
ATOM     39  C   LIG    1        4.874  10.433   2.388  0.00  0.00    +0.000 A 
ATOM     40  C   LIG    1        5.917   9.762   1.776  0.00  0.00    +0.003 A 
ENDBRANCH  34  35
ENDBRANCH  29  34
ENDBRANCH  26  29
ENDBRANCH   6  26
TORSDOF 10
