REMARK  Name = ZINC40829496
REMARK                            x       y       z     vdW  Elec       q    Type
REMARK                         _______ _______ _______ _____ _____    ______ ____
ROOT
ATOM      1  C   LIG    1        3.683   2.031  -0.023  0.00  0.00    -0.016 A 
ATOM      2  C   LIG    1        3.736   3.426  -0.010  0.00  0.00    +0.009 A 
ATOM      3  C   LIG    1        4.941   4.066  -0.018  0.00  0.00    +0.012 A 
ATOM      4  C   LIG    1        6.137   3.328  -0.040  0.00  0.00    +0.021 A 
ATOM      5  C   LIG    1        6.084   1.933  -0.052  0.00  0.00    -0.036 A 
ATOM      6  C   LIG    1        7.486   1.373  -0.074  0.00  0.00    +0.044 C 
ATOM      7  C   LIG    1        8.432   2.581  -0.074  0.00  0.00    +0.084 C 
ATOM      8  C   LIG    1        7.532   3.793  -0.052  0.00  0.00    +0.164 C 
ATOM      9  O   LIG    1        7.896   4.950  -0.046  0.00  0.00    -0.292 OA
ATOM     10  C   LIG    1        4.864   1.290  -0.038  0.00  0.00    +0.013 A 
ENDROOT
BRANCH   1  13
ATOM     11  C   LIG    1       -0.017   1.379   0.010  0.00  0.00    +0.020 A 
ATOM     12  C   LIG    1        1.181   2.072   0.002  0.00  0.00    +0.011 A 
ATOM     13  C   LIG    1        2.372   1.339  -0.013  0.00  0.00    +0.000 A 
ATOM     14  C   LIG    1        2.306  -0.053  -0.020  0.00  0.00    +0.119 A 
ATOM     15  N   LIG    1        1.141  -0.669  -0.013  0.00  0.00    -0.263 NA
ATOM     16  C   LIG    1        0.002  -0.004   0.002  0.00  0.00    +0.111 A 
ENDBRANCH   1  13
TORSDOF 1
