REMARK  Name = ZINC16052596
REMARK                            x       y       z     vdW  Elec       q    Type
REMARK                         _______ _______ _______ _____ _____    ______ ____
ROOT
ATOM      1  C   LIG    1        3.699  -0.689  -0.037  0.00  0.00    +0.114 A 
ATOM      2  C   LIG    1        3.869  -2.091  -0.052  0.00  0.00    +0.082 A 
ATOM      3  C   LIG    1        5.202  -2.351  -0.065  0.00  0.00    +0.188 A 
ATOM      4  O   LIG    1        5.854  -1.173  -0.058  0.00  0.00    -0.352 OA
ATOM      5  N   LIG    1        4.889  -0.137  -0.047  0.00  0.00    -0.078 NA
ENDROOT
BRANCH   1   9
ATOM      6  C   LIG    1       -0.017   1.379   0.010  0.00  0.00    +0.000 A 
ATOM      7  C   LIG    1        1.169   2.092   0.002  0.00  0.00    +0.001 A 
ATOM      8  C   LIG    1        2.377   1.425  -0.013  0.00  0.00    +0.010 A 
ATOM      9  C   LIG    1        2.402   0.033  -0.021  0.00  0.00    +0.004 A 
ATOM     10  C   LIG    1        1.205  -0.680  -0.013  0.00  0.00    +0.010 A 
ATOM     11  C   LIG    1        0.002  -0.004   0.002  0.00  0.00    +0.001 A 
ENDBRANCH   1   9
BRANCH   3  12
ATOM     12  C   LIG    1        5.827  -3.691  -0.082  0.00  0.00    +0.130 A 
ATOM     13  C   LIG    1        7.211  -3.961  -0.090  0.00  0.00    +0.052 A 
ATOM     14  C   LIG    1        7.370  -5.302  -0.105  0.00  0.00    +0.105 A 
ATOM     15  N   LIG    1        6.144  -5.869  -0.107  0.00  0.00    -0.284 N 
ATOM     16  H   LIG    1        5.958  -6.821  -0.116  0.00  0.00    +0.188 HD
ATOM     17  N   LIG    1        5.189  -4.844  -0.088  0.00  0.00    -0.171 NA
ENDBRANCH   3  12
TORSDOF 2
