REMARK  Name = ZINC13808110
REMARK                            x       y       z     vdW  Elec       q    Type
REMARK                         _______ _______ _______ _____ _____    ______ ____
ROOT
ATOM      1  S   LIG    1        1.927  -0.652   3.245  0.00  0.00    +0.104 S 
ATOM      2  O   LIG    1        3.065  -1.309   2.705  0.00  0.00    -0.146 OA
ATOM      3  O   LIG    1        0.921  -1.345   3.971  0.00  0.00    -0.146 OA
ENDROOT
BRANCH   1   4
ATOM      4  C   LIG    1        2.534   0.613   4.310  0.00  0.00    +0.127 A 
ATOM      5  C   LIG    1        2.033   0.740   5.589  0.00  0.00    +0.030 A 
ATOM      6  C   LIG    1        2.509   1.733   6.427  0.00  0.00    +0.002 A 
ATOM      7  C   LIG    1        3.489   2.607   5.989  0.00  0.00    +0.001 A 
ATOM      8  C   LIG    1        3.999   2.492   4.713  0.00  0.00    +0.017 A 
ATOM      9  C   LIG    1        3.528   1.488   3.863  0.00  0.00    +0.086 A 
BRANCH   9  10
ATOM     10  C   LIG    1        4.073   1.354   2.499  0.00  0.00    +0.339 C 
ATOM     11  O   LIG    1        4.943   2.121   2.111  0.00  0.00    -0.245 OA
BRANCH  10  12
ATOM     12  O   LIG    1        3.655   0.477   1.756  0.00  0.00    -0.477 OA
ATOM     13  H   LIG    1        2.989  -0.110   2.054  0.00  0.00    +0.295 HD
ENDBRANCH  10  12
ENDBRANCH   9  10
ENDBRANCH   1   4
BRANCH   1  15
ATOM     14  C   LIG    1        0.622  -0.615   1.035  0.00  0.00    +0.298 C 
ATOM     15  N   LIG    1        1.167   0.096   1.979  0.00  0.00    -0.076 NA
BRANCH  14  16
ATOM     16  N   LIG    1        0.677  -1.986   1.090  0.00  0.00    -0.312 N 
ATOM     17  H   LIG    1        1.122  -2.424   1.832  0.00  0.00    +0.147 HD
ATOM     18  H   LIG    1        0.271  -2.516   0.386  0.00  0.00    +0.147 HD
ENDBRANCH  14  16
BRANCH  14  20
ATOM     19  C   LIG    1       -0.017   1.425   0.010  0.00  0.00    +0.280 C 
ATOM     20  O   LIG    1        0.002  -0.004   0.002  0.00  0.00    -0.468 OA
ENDBRANCH  14  20
ENDBRANCH   1  15
TORSDOF 6
