REMARK  Name = ZINC13780523
REMARK                            x       y       z     vdW  Elec       q    Type
REMARK                         _______ _______ _______ _____ _____    ______ ____
ROOT
ATOM      1  C   LIG    1       -4.608   2.818   3.653  0.00  0.00    +0.120 A 
ATOM      2  C   LIG    1       -3.243   3.068   3.658  0.00  0.00    +0.046 A 
ATOM      3  C   LIG    1       -2.605   3.402   2.483  0.00  0.00    +0.008 A 
ATOM      4  C   LIG    1       -3.316   3.491   1.292  0.00  0.00    -0.036 A 
ATOM      5  C   LIG    1       -4.669   3.239   1.284  0.00  0.00    -0.040 A 
ATOM      6  C   LIG    1       -5.498   3.303   0.027  0.00  0.00    +0.036 C 
ATOM      7  C   LIG    1       -4.763   4.081  -1.062  0.00  0.00    +0.014 C 
ATOM      8  C   LIG    1       -3.351   3.499  -1.201  0.00  0.00    +0.031 C 
ATOM      9  C   LIG    1       -2.553   3.867   0.048  0.00  0.00    +0.057 C 
ATOM     10  C   LIG    1       -5.315   2.905   2.466  0.00  0.00    +0.049 A 
ENDROOT
BRANCH   8  11
ATOM     11  C   LIG    1       -2.682   4.080  -2.420  0.00  0.00    -0.043 A 
ATOM     12  C   LIG    1       -2.514   5.448  -2.530  0.00  0.00    +0.004 A 
ATOM     13  C   LIG    1       -1.896   5.981  -3.646  0.00  0.00    +0.000 A 
ATOM     14  C   LIG    1       -1.454   5.146  -4.656  0.00  0.00    +0.000 A 
ATOM     15  C   LIG    1       -1.626   3.779  -4.548  0.00  0.00    +0.000 A 
ATOM     16  C   LIG    1       -2.240   3.246  -3.430  0.00  0.00    +0.004 A 
ENDBRANCH   8  11
BRANCH   9  17
ATOM     17  C   LIG    1       -1.237   3.133   0.031  0.00  0.00    -0.039 A 
ATOM     18  C   LIG    1       -1.218   1.751   0.017  0.00  0.00    +0.008 A 
ATOM     19  C   LIG    1       -0.013   1.076   0.008  0.00  0.00    +0.046 A 
ATOM     20  C   LIG    1        1.179   1.786   0.000  0.00  0.00    +0.120 A 
ATOM     21  C   LIG    1        1.157   3.174   0.008  0.00  0.00    +0.046 A 
ATOM     22  C   LIG    1       -0.051   3.844   0.023  0.00  0.00    +0.008 A 
BRANCH  20  23
ATOM     23  O   LIG    1        2.366   1.125  -0.015  0.00  0.00    -0.494 OA
BRANCH  23  24
ATOM     24  C   LIG    1        3.553   1.921  -0.022  0.00  0.00    +0.210 C 
BRANCH  24  25
ATOM     25  C   LIG    1        4.780   1.007  -0.039  0.00  0.00    -0.037 C 
BRANCH  25  26
ATOM     26  N   LIG    1        4.822   0.246  -1.324  0.00  0.00    +0.382 N 
ATOM     27  H   LIG    1        4.049  -0.430  -1.340  0.00  0.00    -0.082 HD
ATOM     28  C   LIG    1        6.097  -0.459  -1.459  0.00  0.00    -0.079 C 
ATOM     29  C   LIG    1        6.427  -0.463  -2.963  0.00  0.00    -0.020 C 
ATOM     30  C   LIG    1        5.270   0.313  -3.633  0.00  0.00    -0.020 C 
ATOM     31  C   LIG    1        4.703   1.163  -2.468  0.00  0.00    -0.079 C 
ENDBRANCH  25  26
ENDBRANCH  24  25
ENDBRANCH  23  24
ENDBRANCH  20  23
ENDBRANCH   9  17
BRANCH   1  33
ATOM     32  C   LIG    1       -4.451   2.420   5.992  0.00  0.00    +0.277 C 
ATOM     33  O   LIG    1       -5.247   2.490   4.807  0.00  0.00    -0.495 OA
ENDBRANCH   1  33
TORSDOF 7
