REMARK  Name = ZINC28876401
REMARK                            x       y       z     vdW  Elec       q    Type
REMARK                         _______ _______ _______ _____ _____    ______ ____
ROOT
ATOM      1  C   LIG    1        1.417   2.055  -0.000  0.00  0.00    +0.173 C 
ENDROOT
BRANCH   1   2
ATOM      2  N   LIG    1        2.089   1.670   1.243  0.00  0.00    -0.209 NA
ATOM      3  H   LIG    1        1.589   1.634   2.074  0.00  0.00    +0.134 HD
BRANCH   2   4
ATOM      4  P   LIG    1        3.686   1.299   1.231  0.00  0.00    +0.404 P 
ATOM      5  O   LIG    1        4.140   0.930   2.661  0.00  0.00    -0.240 OA
BRANCH   4   6
ATOM      6  O   LIG    1        4.528   2.569   0.711  0.00  0.00    -0.312 OA
ATOM      7  H   LIG    1        5.483   2.421   0.677  0.00  0.00    +0.221 HD
ENDBRANCH   4   6
BRANCH   4   8
ATOM      8  O   LIG    1        3.929   0.099   0.288  0.00  0.00    -0.312 OA
ATOM      9  H   LIG    1        3.422  -0.666   0.601  0.00  0.00    +0.221 HD
ENDBRANCH   4   8
ENDBRANCH   2   4
ENDBRANCH   1   2
BRANCH   1  10
ATOM     10  C   LIG    1        1.397   3.558  -0.116  0.00  0.00    +0.322 C 
ATOM     11  O   LIG    1        1.730   4.247   0.833  0.00  0.00    -0.249 OA
BRANCH  10  12
ATOM     12  O   LIG    1        1.048   4.084  -1.159  0.00  0.00    -0.480 OA
ATOM     13  H   LIG    1        0.793   3.555  -1.889  0.00  0.00    +0.295 HD
ENDBRANCH  10  12
ENDBRANCH   1  10
BRANCH   1  14
ATOM     14  C   LIG    1       -0.019   1.526   0.010  0.00  0.00    +0.042 C 
BRANCH  14  15
ATOM     15  C   LIG    1        0.002  -0.004   0.002  0.00  0.00    +0.122 C 
BRANCH  15  16
ATOM     16  C   LIG    1       -1.412  -0.526   0.013  0.00  0.00    +0.305 C 
ATOM     17  O   LIG    1       -2.349   0.254   0.026  0.00  0.00    -0.251 OA
BRANCH  16  18
ATOM     18  O   LIG    1       -1.618  -1.727   0.008  0.00  0.00    -0.481 OA
ATOM     19  H   LIG    1       -0.898  -2.326  -0.002  0.00  0.00    +0.295 HD
ENDBRANCH  16  18
ENDBRANCH  15  16
ENDBRANCH  14  15
ENDBRANCH   1  14
TORSDOF 10
