REMARK  Name = ZINC22453001
REMARK                            x       y       z     vdW  Elec       q    Type
REMARK                         _______ _______ _______ _____ _____    ______ ____
ROOT
ATOM      1  N   LIG    1       -2.161  -2.773   1.430  0.00  0.00    -0.298 NA
ATOM      2  C   LIG    1       -2.763  -3.527   0.321  0.00  0.00    +0.066 C 
ATOM      3  C   LIG    1       -3.817  -4.489   0.874  0.00  0.00    -0.063 C 
ATOM      4  N   LIG    1       -4.850  -3.726   1.588  0.00  0.00    +0.384 N 
ATOM      5  H   LIG    1       -5.280  -3.068   0.955  0.00  0.00    -0.081 HD
ATOM      6  C   LIG    1       -4.237  -2.998   2.707  0.00  0.00    -0.063 C 
ATOM      7  C   LIG    1       -3.187  -2.024   2.169  0.00  0.00    +0.066 C 
ENDROOT
BRANCH   1   8
ATOM      8  C   LIG    1       -1.103  -1.878   0.944  0.00  0.00    +0.180 C 
BRANCH   8  15
ATOM      9  C   LIG    1        3.418  -4.913  -0.271  0.00  0.00    +0.002 A 
ATOM     10  C   LIG    1        4.335  -4.503  -1.222  0.00  0.00    +0.001 A 
ATOM     11  C   LIG    1        4.187  -3.275  -1.837  0.00  0.00    +0.016 A 
ATOM     12  C   LIG    1        3.118  -2.451  -1.504  0.00  0.00    +0.029 A 
ATOM     13  C   LIG    1        2.190  -2.863  -0.553  0.00  0.00    +0.050 A 
ATOM     14  N   LIG    1        1.083  -2.090  -0.194  0.00  0.00    -0.269 N 
ATOM     15  C   LIG    1        0.044  -2.698   0.411  0.00  0.00    +0.234 C 
ATOM     16  O   LIG    1        0.031  -3.905   0.527  0.00  0.00    -0.274 OA
ATOM     17  C   LIG    1        1.001  -0.654  -0.443  0.00  0.00    +0.125 C 
ATOM     18  C   LIG    1        1.251  -0.397  -1.937  0.00  0.00    +0.094 C 
ATOM     19  S   LIG    1        2.964  -0.883  -2.301  0.00  0.00    -0.122 S 
ATOM     20  C   LIG    1        2.354  -4.101   0.063  0.00  0.00    +0.024 A 
ENDBRANCH   8  15
ENDBRANCH   1   8
BRANCH   4  21
ATOM     21  C   LIG    1       -5.870  -4.648   2.103  0.00  0.00    -0.043 C 
BRANCH  21  22
ATOM     22  C   LIG    1       -6.991  -3.858   2.728  0.00  0.00    -0.064 A 
ATOM     23  C   LIG    1       -6.938  -3.525   4.069  0.00  0.00    +0.003 A 
ATOM     24  C   LIG    1       -7.966  -2.801   4.643  0.00  0.00    +0.020 A 
ATOM     25  C   LIG    1       -9.048  -2.408   3.875  0.00  0.00    +0.041 A 
ATOM     26 CL   LIG    1      -10.339  -1.499   4.595  0.00  0.00    -0.084 Cl
ATOM     27  C   LIG    1       -9.101  -2.741   2.533  0.00  0.00    +0.020 A 
ATOM     28  C   LIG    1       -8.069  -3.461   1.959  0.00  0.00    +0.003 A 
ENDBRANCH  21  22
ENDBRANCH   4  21
TORSDOF 4
