REMARK  Name = ZINC28896433
REMARK                            x       y       z     vdW  Elec       q    Type
REMARK                         _______ _______ _______ _____ _____    ______ ____
ROOT
ATOM      1  C   LIG    1       -8.142   4.609   1.772  0.00  0.00    +0.000 C 
ATOM      2  C   LIG    1       -8.544   3.830   0.518  0.00  0.00    +0.000 C 
ATOM      3  C   LIG    1       -7.519   2.725   0.254  0.00  0.00    +0.005 C 
ATOM      4  C   LIG    1       -7.472   1.777   1.454  0.00  0.00    +0.010 C 
ATOM      5  C   LIG    1       -6.453   0.665   1.189  0.00  0.00    +0.111 C 
ATOM      6  N   LIG    1       -5.111   1.259   1.115  0.00  0.00    -0.301 N 
ATOM      7  C   LIG    1       -4.318   1.035   0.049  0.00  0.00    +0.222 C 
ATOM      8  O   LIG    1       -4.744   0.417  -0.904  0.00  0.00    -0.275 OA
ATOM      9  C   LIG    1       -4.648   2.096   2.231  0.00  0.00    +0.108 C 
ATOM     10  C   LIG    1       -5.688   3.200   2.476  0.00  0.00    +0.023 C 
ATOM     11  C   LIG    1       -7.060   2.560   2.703  0.00  0.00    -0.005 C 
ATOM     12  C   LIG    1       -8.091   3.660   2.971  0.00  0.00    +0.004 C 
ENDROOT
BRANCH   7  13
ATOM     13  C   LIG    1       -2.902   1.552   0.040  0.00  0.00    +0.048 C 
ATOM     14  C   LIG    1       -2.172   1.019  -1.194  0.00  0.00    +0.019 C 
ATOM     15  C   LIG    1       -0.735   1.544  -1.202  0.00  0.00    -0.009 C 
ATOM     16  C   LIG    1       -0.012   1.072   0.061  0.00  0.00    +0.007 C 
ATOM     17  C   LIG    1       -0.743   1.606   1.295  0.00  0.00    -0.009 C 
ATOM     18  C   LIG    1       -0.759   3.135   1.257  0.00  0.00    +0.007 C 
ATOM     19  C   LIG    1       -1.481   3.606  -0.006  0.00  0.00    -0.009 C 
ATOM     20  C   LIG    1       -0.751   3.073  -1.240  0.00  0.00    +0.007 C 
ATOM     21  C   LIG    1       -2.918   3.081   0.002  0.00  0.00    +0.019 C 
ATOM     22  C   LIG    1       -2.180   1.081   1.304  0.00  0.00    +0.019 C 
ENDBRANCH   7  13
TORSDOF 1
