REMARK  Name = ZINC45298641
REMARK                            x       y       z     vdW  Elec       q    Type
REMARK                         _______ _______ _______ _____ _____    ______ ____
ROOT
ATOM      1  C   LIG    1        0.707  -0.490  -1.238  0.00  0.00    -0.048 A 
ATOM      2  C   LIG    1       -0.011  -0.719  -2.397  0.00  0.00    +0.004 A 
ATOM      3  C   LIG    1        0.636  -1.164  -3.534  0.00  0.00    +0.005 A 
ATOM      4  C   LIG    1        2.002  -1.381  -3.513  0.00  0.00    -0.030 A 
ATOM      5  C   LIG    1        2.720  -1.152  -2.354  0.00  0.00    +0.005 A 
ATOM      6  C   LIG    1        2.073  -0.702  -1.218  0.00  0.00    +0.004 A 
ENDROOT
BRANCH   1   8
ATOM      7  C   LIG    1       -0.019   1.526   0.010  0.00  0.00    +0.009 C 
ATOM      8  C   LIG    1        0.002  -0.004   0.002  0.00  0.00    +0.032 C 
ENDBRANCH   1   8
BRANCH   4   9
ATOM      9  C   LIG    1        2.707  -1.868  -4.752  0.00  0.00    +0.152 C 
BRANCH   9  10
ATOM     10  N   LIG    1        3.149  -0.719  -5.546  0.00  0.00    -0.231 N 
ATOM     11  C   LIG    1        2.425  -0.113  -6.503  0.00  0.00    +0.246 C 
ATOM     12  C   LIG    1        3.226   1.000  -7.061  0.00  0.00    +0.073 C 
ATOM     13  C   LIG    1        4.397   1.002  -6.404  0.00  0.00    +0.073 C 
ATOM     14  O   LIG    1        1.304  -0.425  -6.851  0.00  0.00    -0.270 OA
ATOM     15  C   LIG    1        4.340  -0.105  -5.424  0.00  0.00    +0.246 C 
ATOM     16  O   LIG    1        5.219  -0.408  -4.644  0.00  0.00    -0.270 OA
ENDBRANCH   9  10
ENDBRANCH   4   9
TORSDOF 3
