REMARK  Name = ZINC40151459
REMARK                            x       y       z     vdW  Elec       q    Type
REMARK                         _______ _______ _______ _____ _____    ______ ____
ROOT
ATOM      1  C   LIG    1        4.860  -4.165   0.894  0.00  0.00    -0.067 C 
ATOM      2  C   LIG    1        4.993  -5.226   2.007  0.00  0.00    -0.017 C 
ATOM      3  C   LIG    1        5.637  -6.428   1.268  0.00  0.00    -0.017 C 
ATOM      4  C   LIG    1        6.581  -5.713   0.270  0.00  0.00    -0.067 C 
ATOM      5  N   LIG    1        5.838  -4.503  -0.156  0.00  0.00    +0.389 N 
ATOM      6  H   LIG    1        5.356  -4.688  -1.022  0.00  0.00    -0.080 HD
ENDROOT
BRANCH   1   7
ATOM      7  C   LIG    1        3.444  -4.193   0.315  0.00  0.00    -0.011 C 
BRANCH   7   8
ATOM      8  C   LIG    1        3.356  -3.220  -0.863  0.00  0.00    +0.033 C 
BRANCH   8  12
ATOM      9  C   LIG    1       -0.472  -3.578  -2.724  0.00  0.00    +0.000 A 
ATOM     10  C   LIG    1       -0.287  -2.677  -1.692  0.00  0.00    +0.000 A 
ATOM     11  C   LIG    1        0.952  -2.561  -1.090  0.00  0.00    +0.003 A 
ATOM     12  C   LIG    1        2.005  -3.347  -1.519  0.00  0.00    -0.047 A 
ATOM     13  C   LIG    1        1.819  -4.249  -2.550  0.00  0.00    +0.003 A 
ATOM     14  C   LIG    1        0.581  -4.363  -3.153  0.00  0.00    +0.000 A 
ENDBRANCH   8  12
ENDBRANCH   7   8
ENDBRANCH   1   7
BRANCH   4  15
ATOM     15  C   LIG    1        6.869  -6.615  -0.931  0.00  0.00    -0.011 C 
BRANCH  15  16
ATOM     16  C   LIG    1        7.805  -5.891  -1.901  0.00  0.00    +0.033 C 
BRANCH  16  17
ATOM     17  C   LIG    1        8.119  -6.794  -3.066  0.00  0.00    -0.047 A 
ATOM     18  C   LIG    1        9.145  -7.715  -2.969  0.00  0.00    +0.003 A 
ATOM     19  C   LIG    1        9.432  -8.544  -4.038  0.00  0.00    +0.000 A 
ATOM     20  C   LIG    1        8.694  -8.451  -5.203  0.00  0.00    +0.000 A 
ATOM     21  C   LIG    1        7.667  -7.530  -5.299  0.00  0.00    +0.000 A 
ATOM     22  C   LIG    1        7.377  -6.705  -4.229  0.00  0.00    +0.003 A 
ENDBRANCH  16  17
ENDBRANCH  15  16
ENDBRANCH   4  15
BRANCH   5  23
ATOM     23  C   LIG    1        6.772  -3.385  -0.340  0.00  0.00    -0.011 C 
BRANCH  23  24
ATOM     24  C   LIG    1        6.059  -2.241  -1.014  0.00  0.00    -0.059 A 
ATOM     25  C   LIG    1        5.906  -1.036  -0.352  0.00  0.00    +0.002 A 
ATOM     26  C   LIG    1        5.251   0.013  -0.970  0.00  0.00    +0.000 A 
ATOM     27  C   LIG    1        4.751  -0.142  -2.249  0.00  0.00    +0.000 A 
ATOM     28  C   LIG    1        4.905  -1.346  -2.911  0.00  0.00    +0.000 A 
ATOM     29  C   LIG    1        5.563  -2.394  -2.295  0.00  0.00    +0.002 A 
ENDBRANCH  23  24
BRANCH  23  30
ATOM     30  C   LIG    1        7.296  -2.928   1.023  0.00  0.00    +0.145 C 
BRANCH  30  31
ATOM     31  O   LIG    1        7.876  -4.040   1.708  0.00  0.00    -0.396 OA
ATOM     32  H   LIG    1        8.161  -3.841   2.610  0.00  0.00    +0.209 HD
ENDBRANCH  30  31
ENDBRANCH  23  30
ENDBRANCH   5  23
TORSDOF 10
