REMARK  Name = ZINC27868777
REMARK                            x       y       z     vdW  Elec       q    Type
REMARK                         _______ _______ _______ _____ _____    ______ ____
ROOT
ATOM      1  C   LIG    1        0.967   2.222   0.099  0.00  0.00    -0.033 C 
ATOM      2  C   LIG    1       -0.058   1.379   0.002  0.00  0.00    +0.061 C 
ENDROOT
BRANCH   2   3
ATOM      3  C   LIG    1        0.148  -0.057   0.236  0.00  0.00    +0.335 C 
ATOM      4  O   LIG    1        1.254  -0.475   0.518  0.00  0.00    -0.245 OA
BRANCH   3   5
ATOM      5  O   LIG    1       -0.890  -0.911   0.139  0.00  0.00    -0.477 OA
ATOM      6  H   LIG    1       -1.743  -0.589  -0.078  0.00  0.00    +0.295 HD
ENDBRANCH   3   5
ENDBRANCH   2   3
BRANCH   2   7
ATOM      7  C   LIG    1       -1.428   1.896  -0.353  0.00  0.00    +0.255 C 
ATOM      8  F   LIG    1       -1.331   3.230  -0.762  0.00  0.00    -0.244 F 
ENDBRANCH   2   7
BRANCH   1   9
ATOM      9  C   LIG    1        0.724   3.709   0.076  0.00  0.00    -0.058 C 
BRANCH   9  10
ATOM     10  N   LIG    1        1.842   4.398   0.736  0.00  0.00    +0.380 N 
ATOM     11  H   LIG    1        1.920   4.055   1.778  0.00  0.00    -0.090 HD
ATOM     12  H   LIG    1        2.777   4.172   0.204  0.00  0.00    -0.090 HD
ATOM     13  H   LIG    1        1.664   5.484   0.720  0.00  0.00    -0.090 HD
ENDBRANCH   9  10
ENDBRANCH   1   9
TORSDOF 5
