REMARK  Name = ZINC16957627
REMARK                            x       y       z     vdW  Elec       q    Type
REMARK                         _______ _______ _______ _____ _____    ______ ____
ROOT
ATOM      1  C   LIG    1        1.832   8.008  -0.183  0.00  0.00    +0.067 C 
ATOM      2  C   LIG    1        1.745   6.507  -0.080  0.00  0.00    +0.059 A 
ATOM      3  C   LIG    1        0.518   5.865   0.042  0.00  0.00    +0.083 A 
ATOM      4  S   LIG    1        1.047   4.159   0.117  0.00  0.00    -0.044 S 
ATOM      5  C   LIG    1        2.755   4.445  -0.013  0.00  0.00    +0.195 A 
ATOM      6  N   LIG    1        2.821   5.765  -0.097  0.00  0.00    -0.226 NA
ENDROOT
BRANCH   5   7
ATOM      7  N   LIG    1        3.791   3.523  -0.021  0.00  0.00    -0.207 N 
ATOM      8  C   LIG    1        4.017   2.556   0.921  0.00  0.00    +0.077 A 
ATOM      9  C   LIG    1        5.126   1.862   0.539  0.00  0.00    +0.058 A 
ATOM     10  C   LIG    1        5.592   2.424  -0.663  0.00  0.00    +0.094 A 
ATOM     11  N   LIG    1        4.794   3.418  -0.993  0.00  0.00    -0.164 NA
BRANCH   8  12
ATOM     12  C   LIG    1        3.202   2.306   2.130  0.00  0.00    +0.001 A 
ATOM     13  C   LIG    1        3.227   1.054   2.745  0.00  0.00    +0.010 A 
ATOM     14  C   LIG    1        2.465   0.827   3.872  0.00  0.00    +0.001 A 
ATOM     15  C   LIG    1        1.676   1.837   4.393  0.00  0.00    +0.000 A 
ATOM     16  C   LIG    1        1.647   3.081   3.788  0.00  0.00    +0.001 A 
ATOM     17  C   LIG    1        2.405   3.321   2.660  0.00  0.00    +0.010 A 
ENDBRANCH   8  12
BRANCH  10  18
ATOM     18  C   LIG    1        6.780   1.974  -1.429  0.00  0.00    +0.002 A 
ATOM     19  C   LIG    1        7.548   0.908  -0.966  0.00  0.00    +0.010 A 
ATOM     20  C   LIG    1        8.650   0.490  -1.685  0.00  0.00    +0.001 A 
ATOM     21  C   LIG    1        8.998   1.134  -2.858  0.00  0.00    +0.000 A 
ATOM     22  C   LIG    1        8.242   2.196  -3.320  0.00  0.00    +0.001 A 
ATOM     23  C   LIG    1        7.136   2.619  -2.612  0.00  0.00    +0.010 A 
ENDBRANCH  10  18
ENDBRANCH   5   7
BRANCH   3  24
ATOM     24  C   LIG    1       -0.833   6.429   0.094  0.00  0.00    +0.194 C 
ATOM     25  O   LIG    1       -0.992   7.636   0.027  0.00  0.00    -0.287 OA
BRANCH  24  26
ATOM     26  C   LIG    1       -1.992   5.543   0.228  0.00  0.00    +0.052 C 
ATOM     27  C   LIG    1       -3.236   6.063   0.276  0.00  0.00    +0.012 C 
BRANCH  27  28
ATOM     28  C   LIG    1       -4.400   5.173   0.409  0.00  0.00    -0.023 A 
ATOM     29  C   LIG    1       -5.691   5.709   0.460  0.00  0.00    +0.009 A 
ATOM     30  C   LIG    1       -6.778   4.870   0.585  0.00  0.00    +0.022 A 
ATOM     31  C   LIG    1       -6.594   3.499   0.661  0.00  0.00    +0.059 A 
ATOM     32 CL   LIG    1       -7.968   2.450   0.820  0.00  0.00    -0.082 Cl
ATOM     33  C   LIG    1       -5.317   2.961   0.612  0.00  0.00    +0.060 A 
ATOM     34 CL   LIG    1       -5.098   1.241   0.708  0.00  0.00    -0.082 Cl
ATOM     35  C   LIG    1       -4.221   3.788   0.481  0.00  0.00    +0.029 A 
ENDBRANCH  27  28
ENDBRANCH  24  26
ENDBRANCH   3  24
TORSDOF 6
