REMARK  Name = ZINC54362881
REMARK                            x       y       z     vdW  Elec       q    Type
REMARK                         _______ _______ _______ _____ _____    ______ ____
ROOT
ATOM      1  C   LIG    1        0.061  -4.252  -0.021  0.00  0.00    +0.055 A 
ATOM      2  C   LIG    1        0.069  -4.924  -1.192  0.00  0.00    +0.075 A 
ATOM      3  S   LIG    1        0.093  -6.624  -0.646  0.00  0.00    -0.056 S 
ATOM      4  C   LIG    1        0.089  -6.319   1.114  0.00  0.00    +0.192 A 
ATOM      5  N   LIG    1        0.101  -7.187   2.112  0.00  0.00    -0.124 NA
ATOM      6  N   LIG    1        0.076  -4.946   1.157  0.00  0.00    -0.332 N 
ATOM      7  H   LIG    1        0.074  -4.478   2.006  0.00  0.00    +0.168 HD
ENDROOT
BRANCH   1  12
ATOM      8  C   LIG    1       -0.018   1.503   0.010  0.00  0.00    +0.044 C 
ATOM      9  C   LIG    1        0.002  -0.004   0.002  0.00  0.00    -0.050 A 
ATOM     10  C   LIG    1        0.006  -0.686  -1.202  0.00  0.00    +0.004 A 
ATOM     11  C   LIG    1        0.025  -2.066  -1.216  0.00  0.00    +0.010 A 
ATOM     12  C   LIG    1        0.041  -2.773  -0.013  0.00  0.00    -0.001 A 
ATOM     13  C   LIG    1        0.037  -2.079   1.198  0.00  0.00    +0.010 A 
ATOM     14  C   LIG    1        0.023  -0.699   1.198  0.00  0.00    +0.004 A 
ENDBRANCH   1  12
BRANCH   5  15
ATOM     15  N   LIG    1        0.120  -8.562   1.845  0.00  0.00    -0.156 NA
ATOM     16  C   LIG    1        0.132  -9.411   2.822  0.00  0.00    +0.041 C 
ATOM     17  C   LIG    1        0.119  -8.940   4.260  0.00  0.00    +0.053 C 
ATOM     18  C   LIG    1       -1.006  -9.670   5.001  0.00  0.00    +0.006 C 
ATOM     19  C   LIG    1       -0.829 -11.180   4.835  0.00  0.00    +0.001 C 
ATOM     20  C   LIG    1       -0.968 -11.559   3.360  0.00  0.00    +0.006 C 
ATOM     21  C   LIG    1        0.152 -10.900   2.556  0.00  0.00    +0.053 C 
ENDBRANCH   5  15
TORSDOF 2
