REMARK  Name = ZINC13829431
REMARK                            x       y       z     vdW  Elec       q    Type
REMARK                         _______ _______ _______ _____ _____    ______ ____
ROOT
ATOM      1  C   LIG    1       -0.191  -0.572   2.348  0.00  0.00    +0.202 C 
ENDROOT
BRANCH   1   2
ATOM      2  C   LIG    1       -0.062  -1.929   2.991  0.00  0.00    +0.007 A 
ATOM      3  C   LIG    1        1.179  -2.519   3.115  0.00  0.00    +0.008 A 
ATOM      4  C   LIG    1        1.303  -3.765   3.704  0.00  0.00    +0.002 A 
ATOM      5  C   LIG    1        0.187  -4.427   4.174  0.00  0.00    +0.028 A 
ATOM      6  C   LIG    1       -1.069  -3.842   4.055  0.00  0.00    +0.066 A 
ATOM      7  N   LIG    1       -2.191  -4.515   4.531  0.00  0.00    -0.316 N 
ATOM      8  H   LIG    1       -2.094  -5.388   4.942  0.00  0.00    +0.169 HD
ATOM      9  C   LIG    1       -3.411  -3.949   4.434  0.00  0.00    +0.314 A 
ATOM     10  O   LIG    1       -4.392  -4.530   4.852  0.00  0.00    -0.262 OA
ATOM     11  C   LIG    1       -3.545  -2.606   3.798  0.00  0.00    +0.314 A 
ATOM     12  O   LIG    1       -4.636  -2.084   3.692  0.00  0.00    -0.262 OA
ATOM     13  N   LIG    1       -2.442  -1.979   3.342  0.00  0.00    -0.316 N 
ATOM     14  H   LIG    1       -2.518  -1.106   2.926  0.00  0.00    +0.169 HD
ATOM     15  C   LIG    1       -1.194  -2.583   3.465  0.00  0.00    +0.071 A 
ENDBRANCH   1   2
BRANCH   1  16
ATOM     16  N   LIG    1        0.793  -0.449   1.264  0.00  0.00    -0.293 NA
ATOM     17  H   LIG    1        1.240  -1.335   1.079  0.00  0.00    +0.124 HD
BRANCH  16  19
ATOM     18  C   LIG    1        0.156   1.619   0.118  0.00  0.00    +0.029 C 
ATOM     19  C   LIG    1        0.171   0.091   0.048  0.00  0.00    +0.082 C 
BRANCH  19  20
ATOM     20  C   LIG    1        0.962  -0.348  -1.158  0.00  0.00    -0.031 A 
ATOM     21  C   LIG    1        2.343  -0.376  -1.106  0.00  0.00    +0.006 A 
ATOM     22  C   LIG    1        3.068  -0.779  -2.212  0.00  0.00    +0.015 A 
ATOM     23  C   LIG    1        2.412  -1.154  -3.370  0.00  0.00    +0.018 A 
ATOM     24 BR   LIG    1        3.403  -1.705  -4.883  0.00  0.00    -0.050 Br
ATOM     25  C   LIG    1        1.030  -1.126  -3.422  0.00  0.00    +0.015 A 
ATOM     26  C   LIG    1        0.305  -0.728  -2.314  0.00  0.00    +0.006 A 
ENDBRANCH  19  20
ENDBRANCH  16  19
ENDBRANCH   1  16
BRANCH   1  27
ATOM     27  P   LIG    1        0.114   0.723   3.595  0.00  0.00    +0.349 P 
ATOM     28  O   LIG    1        1.649   0.805   3.898  0.00  0.00    -0.257 OA
BRANCH  27  29
ATOM     29  O   LIG    1       -0.661   0.373   4.910  0.00  0.00    -0.323 OA
ATOM     30  H   LIG    1       -0.352  -0.482   5.250  0.00  0.00    +0.220 HD
ENDBRANCH  27  29
BRANCH  27  31
ATOM     31  O   LIG    1       -0.385   2.103   3.046  0.00  0.00    -0.323 OA
ATOM     32  H   LIG    1        0.095   2.319   2.231  0.00  0.00    +0.220 HD
ENDBRANCH  27  31
ENDBRANCH   1  27
TORSDOF 7
