REMARK  Name = ZINC45254195
REMARK                            x       y       z     vdW  Elec       q    Type
REMARK                         _______ _______ _______ _____ _____    ______ ____
ROOT
ATOM      1  C   LIG    1        1.250  -2.161  -0.023  0.00  0.00    +0.247 C 
ATOM      2  N   LIG    1        0.101  -2.857   0.086  0.00  0.00    -0.295 N 
ATOM      3  C   LIG    1       -1.195  -2.164   0.099  0.00  0.00    +0.127 C 
ATOM      4  C   LIG    1       -2.075  -2.750  -1.013  0.00  0.00    +0.126 C 
ATOM      5  N   LIG    1       -2.054  -4.215  -0.905  0.00  0.00    -0.307 N 
ATOM      6  C   LIG    1       -0.758  -4.908  -0.918  0.00  0.00    +0.126 C 
ATOM      7  C   LIG    1        0.121  -4.323   0.188  0.00  0.00    +0.127 C 
ATOM      8  O   LIG    1        2.308  -2.748  -0.137  0.00  0.00    -0.270 OA
ENDROOT
BRANCH   1  13
ATOM      9  C   LIG    1        0.595   1.373   1.067  0.00  0.00    +0.001 A 
ATOM     10  C   LIG    1        1.172   2.086   0.031  0.00  0.00    +0.001 A 
ATOM     11  C   LIG    1        1.774   1.422  -1.023  0.00  0.00    +0.013 A 
ATOM     12  C   LIG    1        1.803   0.042  -1.046  0.00  0.00    +0.067 A 
ATOM     13  C   LIG    1        1.223  -0.682  -0.004  0.00  0.00    +0.049 A 
ATOM     14  C   LIG    1        0.618  -0.006   1.056  0.00  0.00    +0.013 A 
BRANCH  12  15
ATOM     15  C   LIG    1        2.458  -0.680  -2.195  0.00  0.00    +0.418 C 
ATOM     16  F   LIG    1        1.516  -1.493  -2.833  0.00  0.00    -0.166 F 
ATOM     17  F   LIG    1        3.506  -1.471  -1.712  0.00  0.00    -0.166 F 
ATOM     18  F   LIG    1        2.962   0.254  -3.107  0.00  0.00    -0.166 F 
ENDBRANCH  12  15
ENDBRANCH   1  13
BRANCH   5  19
ATOM     19  C   LIG    1       -3.228  -4.926  -0.794  0.00  0.00    +0.161 A 
ATOM     20  N   LIG    1       -4.467  -4.463  -0.772  0.00  0.00    -0.232 NA
ATOM     21  C   LIG    1       -5.494  -5.263  -0.661  0.00  0.00    +0.135 A 
ATOM     22  C   LIG    1       -5.210  -6.622  -0.568  0.00  0.00    +0.117 A 
ATOM     23  S   LIG    1       -3.427  -6.592  -0.660  0.00  0.00    -0.046 S 
BRANCH  22  24
ATOM     24  C   LIG    1       -6.089  -7.721  -0.439  0.00  0.00    +0.345 C 
ATOM     25  O   LIG    1       -7.300  -7.535  -0.397  0.00  0.00    -0.244 OA
BRANCH  24  26
ATOM     26  O   LIG    1       -5.641  -8.859  -0.370  0.00  0.00    -0.477 OA
ATOM     27  H   LIG    1       -4.715  -9.001  -0.402  0.00  0.00    +0.295 HD
ENDBRANCH  24  26
ENDBRANCH  22  24
ENDBRANCH   5  19
TORSDOF 5
