REMARK  Name = ZINC17022433
REMARK                            x       y       z     vdW  Elec       q    Type
REMARK                         _______ _______ _______ _____ _____    ______ ____
ROOT
ATOM      1  C   LIG    1        1.411   4.388   0.011  0.00  0.00    +0.115 C 
ATOM      2  C   LIG    1        2.305   4.407   1.252  0.00  0.00    +0.036 C 
ENDROOT
BRANCH   1   8
ATOM      3  C   LIG    1       -1.686   4.285   0.039  0.00  0.00    +0.086 C 
ATOM      4  C   LIG    1       -0.750   3.104   0.025  0.00  0.00    +0.107 A 
ATOM      5  N   LIG    1       -1.108   1.849   0.017  0.00  0.00    -0.241 NA
ATOM      6  C   LIG    1       -0.013   1.076   0.008  0.00  0.00    +0.130 A 
ATOM      7  C   LIG    1        1.066   1.882   0.002  0.00  0.00    +0.107 A 
ATOM      8  N   LIG    1        0.599   3.169   0.013  0.00  0.00    -0.327 N 
ENDBRANCH   1   8
BRANCH   1   9
ATOM      9  C   LIG    1        2.270   4.418  -1.227  0.00  0.00    -0.025 A 
ATOM     10  C   LIG    1        3.188   3.411  -1.456  0.00  0.00    +0.005 A 
ATOM     11  C   LIG    1        3.973   3.436  -2.593  0.00  0.00    +0.000 A 
ATOM     12  C   LIG    1        3.846   4.474  -3.498  0.00  0.00    +0.000 A 
ATOM     13  C   LIG    1        2.931   5.484  -3.267  0.00  0.00    +0.000 A 
ATOM     14  C   LIG    1        2.143   5.456  -2.131  0.00  0.00    +0.005 A 
ENDBRANCH   1   9
TORSDOF 2
