REMARK  Name = ZINC32012642
REMARK                            x       y       z     vdW  Elec       q    Type
REMARK                         _______ _______ _______ _____ _____    ______ ____
ROOT
ATOM      1  C   LIG    1        3.969  -0.703   0.998  0.00  0.00    +0.001 A 
ATOM      2  C   LIG    1        2.828   0.078   1.015  0.00  0.00    +0.004 A 
ATOM      3  C   LIG    1        2.581   0.963  -0.017  0.00  0.00    -0.045 A 
ATOM      4  C   LIG    1        3.479   1.075  -1.062  0.00  0.00    +0.019 A 
ATOM      5  C   LIG    1        4.622   0.297  -1.077  0.00  0.00    +0.018 A 
ATOM      6 BR   LIG    1        5.852   0.451  -2.506  0.00  0.00    -0.050 Br
ATOM      7  C   LIG    1        4.867  -0.592  -0.046  0.00  0.00    +0.015 A 
ENDROOT
BRANCH   3   8
ATOM      8  C   LIG    1        1.335   1.811  -0.001  0.00  0.00    +0.003 C 
ATOM      9  C   LIG    1        0.484   1.792   1.271  0.00  0.00    -0.009 C 
ATOM     10  C   LIG    1       -0.013   1.086   0.008  0.00  0.00    -0.067 C 
BRANCH  10  11
ATOM     11  N   LIG    1       -1.123   1.708  -0.726  0.00  0.00    +0.380 N 
ATOM     12  H   LIG    1       -1.326   2.705  -0.306  0.00  0.00    -0.090 HD
ATOM     13  H   LIG    1       -0.852   1.805  -1.787  0.00  0.00    -0.090 HD
ATOM     14  H   LIG    1       -2.022   1.081  -0.632  0.00  0.00    -0.090 HD
ENDBRANCH  10  11
ENDBRANCH   3   8
TORSDOF 2
