REMARK  Name = ZINC14951272
REMARK                            x       y       z     vdW  Elec       q    Type
REMARK                         _______ _______ _______ _____ _____    ______ ____
ROOT
ATOM      1  C   LIG    1        3.463   0.675  -0.007  0.00  0.00    +0.080 A 
ATOM      2  C   LIG    1        4.148   1.364  -0.988  0.00  0.00    +0.058 A 
ATOM      3  C   LIG    1        5.549   1.320  -1.023  0.00  0.00    +0.093 A 
ATOM      4  C   LIG    1        6.241   0.572  -0.054  0.00  0.00    +0.070 A 
ATOM      5  N   LIG    1        7.623   0.520  -0.076  0.00  0.00    -0.316 N 
ATOM      6  H   LIG    1        8.107   0.006   0.589  0.00  0.00    +0.169 HD
ATOM      7  C   LIG    1        8.289   1.196  -1.037  0.00  0.00    +0.311 A 
ATOM      8  O   LIG    1        9.506   1.169  -1.080  0.00  0.00    -0.262 OA
ATOM      9  C   LIG    1        7.525   1.968  -2.033  0.00  0.00    +0.280 A 
ATOM     10  C   LIG    1        5.532  -0.116   0.927  0.00  0.00    +0.062 A 
ATOM     11  N   LIG    1        6.220   1.993  -1.980  0.00  0.00    -0.207 NA
ATOM     12  C   LIG    1        4.157  -0.060   0.952  0.00  0.00    +0.147 A 
ENDROOT
BRANCH   1  15
ATOM     13  C   LIG    1        0.002   1.026   0.681  0.00  0.00    +0.130 A 
ATOM     14  C   LIG    1        1.285   1.152   1.071  0.00  0.00    +0.112 A 
ATOM     15  N   LIG    1        2.061   0.720   0.027  0.00  0.00    -0.304 N 
ATOM     16  C   LIG    1        1.217   0.344  -0.968  0.00  0.00    +0.204 A 
ATOM     17  N   LIG    1       -0.010   0.532  -0.565  0.00  0.00    -0.244 NA
ENDBRANCH   1  15
BRANCH   9  18
ATOM     18  O   LIG    1        8.177   2.652  -3.003  0.00  0.00    -0.489 OA
ATOM     19  H   LIG    1        9.113   2.634  -3.042  0.00  0.00    +0.294 HD
ENDBRANCH   9  18
BRANCH  12  20
ATOM     20  N   LIG    1        3.410  -0.789   2.002  0.00  0.00    +0.008 N 
ATOM     21  O   LIG    1        4.007  -1.327   2.905  0.00  0.00    -0.130 OA
BRANCH  20  22
ATOM     22  O   LIG    1        2.203  -0.846   1.956  0.00  0.00    -0.396 OA
ATOM     23  H   LIG    1        1.741  -0.428   1.256  0.00  0.00    +0.329 HD
ENDBRANCH  20  22
ENDBRANCH  12  20
TORSDOF 4
