REMARK  Name = ZINC00001601
REMARK                            x       y       z     vdW  Elec       q    Type
REMARK                         _______ _______ _______ _____ _____    ______ ____
ROOT
ATOM      1  C   LIG    1        5.463   0.574   1.586  0.00  0.00    +0.150 A 
ATOM      2  C   LIG    1        5.962   0.550   2.900  0.00  0.00    +0.147 A 
ATOM      3  C   LIG    1        7.355   0.516   3.080  0.00  0.00    +0.163 A 
ATOM      4  N   LIG    1        8.145   0.508   2.010  0.00  0.00    -0.216 NA
ATOM      5  C   LIG    1        7.632   0.531   0.798  0.00  0.00    +0.225 A 
ATOM      6  N   LIG    1        7.561   0.499   4.436  0.00  0.00    -0.329 N 
ATOM      7  C   LIG    1        6.337   0.521   5.035  0.00  0.00    +0.198 A 
ATOM      8  H   LIG    1        8.420   0.476   4.886  0.00  0.00    +0.168 HD
ATOM      9  N   LIG    1        5.401   0.551   4.133  0.00  0.00    -0.231 NA
ATOM     10  N   LIG    1        6.330   0.558   0.579  0.00  0.00    -0.219 NA
ENDROOT
BRANCH   1  11
ATOM     11  N   LIG    1        4.101   0.607   1.347  0.00  0.00    -0.320 N 
ATOM     12  H   LIG    1        3.478   0.617   2.090  0.00  0.00    +0.148 HD
BRANCH  11  13
ATOM     13  C   LIG    1        3.599   0.625  -0.029  0.00  0.00    +0.177 C 
BRANCH  13  16
ATOM     14  C   LIG    1       -0.016   1.341   0.009  0.00  0.00    +0.041 A 
ATOM     15  C   LIG    1        1.331   1.769  -0.001  0.00  0.00    +0.046 A 
ATOM     16  C   LIG    1        2.092   0.660  -0.014  0.00  0.00    +0.122 A 
ATOM     17  O   LIG    1        1.282  -0.411  -0.012  0.00  0.00    -0.466 OA
ATOM     18  C   LIG    1        0.002  -0.004   0.002  0.00  0.00    +0.195 A 
ENDBRANCH  13  16
ENDBRANCH  11  13
ENDBRANCH   1  11
TORSDOF 3
