REMARK  Name = ZINC13782570
REMARK                            x       y       z     vdW  Elec       q    Type
REMARK                         _______ _______ _______ _____ _____    ______ ____
ROOT
ATOM      1  C   LIG    1       -1.226   1.748   0.017  0.00  0.00    +0.002 A 
ATOM      2  C   LIG    1       -0.013   1.076   0.008  0.00  0.00    +0.002 A 
ATOM      3  C   LIG    1        1.175   1.777   0.000  0.00  0.00    +0.028 A 
ATOM      4  C   LIG    1        1.154   3.165   0.008  0.00  0.00    +0.073 A 
ATOM      5  C   LIG    1       -0.075   3.845   0.023  0.00  0.00    +0.089 A 
ATOM      6  N   LIG    1        0.207   5.174   0.028  0.00  0.00    -0.235 NA
ATOM      7  C   LIG    1        1.497   5.348   0.017  0.00  0.00    +0.205 A 
ATOM      8  N   LIG    1        2.131   4.142   0.004  0.00  0.00    -0.299 N 
ATOM      9  C   LIG    1       -1.266   3.114   0.032  0.00  0.00    +0.030 A 
ENDROOT
BRANCH   8  10
ATOM     10  C   LIG    1        3.518   3.932  -0.010  0.00  0.00    +0.048 A 
ATOM     11  C   LIG    1        4.098   3.063   0.905  0.00  0.00    +0.030 A 
ATOM     12  C   LIG    1        5.462   2.852   0.888  0.00  0.00    +0.047 A 
ATOM     13  C   LIG    1        6.255   3.516  -0.037  0.00  0.00    +0.117 A 
ATOM     14  C   LIG    1        5.677   4.389  -0.948  0.00  0.00    +0.047 A 
ATOM     15  C   LIG    1        4.312   4.596  -0.935  0.00  0.00    +0.030 A 
BRANCH  13  16
ATOM     16  O   LIG    1        7.599   3.313  -0.050  0.00  0.00    -0.507 OA
ATOM     17  H   LIG    1        8.095   3.920   0.517  0.00  0.00    +0.292 HD
ENDBRANCH  13  16
ENDBRANCH   8  10
TORSDOF 2
