REMARK  Name = ZINC00006016
REMARK                            x       y       z     vdW  Elec       q    Type
REMARK                         _______ _______ _______ _____ _____    ______ ____
ROOT
ATOM      1  C   LIG    1        2.125   0.052  -1.218  0.00  0.00    +0.034 C 
ENDROOT
BRANCH   1   2
ATOM      2  C   LIG    1        3.186  -0.517  -0.274  0.00  0.00    +0.071 C 
ATOM      3  C   LIG    1        3.298  -2.029  -0.484  0.00  0.00    +0.035 C 
ATOM      4  C   LIG    1        4.359  -2.598   0.460  0.00  0.00    +0.003 C 
ATOM      5  C   LIG    1        5.709  -1.940   0.166  0.00  0.00    +0.000 C 
ATOM      6  C   LIG    1        5.597  -0.429   0.376  0.00  0.00    +0.003 C 
ATOM      7  C   LIG    1        4.536   0.140  -0.568  0.00  0.00    +0.035 C 
BRANCH   2   8
ATOM      8  O   LIG    1        2.812  -0.252   1.080  0.00  0.00    -0.388 OA
ATOM      9  H   LIG    1        3.440  -0.585   1.734  0.00  0.00    +0.210 HD
ENDBRANCH   2   8
ENDBRANCH   1   2
BRANCH   1  10
ATOM     10  C   LIG    1        2.605  -0.064  -2.641  0.00  0.00    -0.043 A 
ATOM     11  C   LIG    1        2.610  -1.296  -3.270  0.00  0.00    +0.007 A 
ATOM     12  C   LIG    1        3.050  -1.405  -4.575  0.00  0.00    +0.046 A 
ATOM     13  C   LIG    1        3.486  -0.278  -5.255  0.00  0.00    +0.120 A 
ATOM     14  C   LIG    1        3.480   0.957  -4.622  0.00  0.00    +0.046 A 
ATOM     15  C   LIG    1        3.035   1.062  -3.319  0.00  0.00    +0.007 A 
BRANCH  13  16
ATOM     16  O   LIG    1        3.920  -0.382  -6.538  0.00  0.00    -0.495 OA
ATOM     17  C   LIG    1        4.355   0.820  -7.176  0.00  0.00    +0.277 C 
ENDBRANCH  13  16
ENDBRANCH   1  10
BRANCH   1  18
ATOM     18  C   LIG    1        0.822  -0.733  -1.053  0.00  0.00    -0.069 C 
BRANCH  18  20
ATOM     19  C   LIG    1       -0.043   0.894   0.482  0.00  0.00    -0.097 C 
ATOM     20  N   LIG    1        0.292  -0.524   0.301  0.00  0.00    +0.376 N 
ATOM     21  H   LIG    1        0.988  -0.795   0.980  0.00  0.00    -0.083 HD
ATOM     22  C   LIG    1       -0.915  -1.340   0.486  0.00  0.00    -0.097 C 
ENDBRANCH  18  20
ENDBRANCH   1  18
TORSDOF 6
