REMARK  Name = ZINC18085270
REMARK                            x       y       z     vdW  Elec       q    Type
REMARK                         _______ _______ _______ _____ _____    ______ ____
ROOT
ATOM      1  C   LIG    1        1.455  -2.347  -2.526  0.00  0.00    +0.182 A 
ATOM      2  C   LIG    1        1.635  -3.712  -2.833  0.00  0.00    +0.104 A 
ATOM      3  C   LIG    1        2.324  -3.727  -4.046  0.00  0.00    +0.137 A 
ATOM      4  C   LIG    1        2.522  -5.147  -4.383  0.00  0.00    +0.284 A 
ATOM      5  N   LIG    1        1.975  -5.902  -3.412  0.00  0.00    -0.242 N 
ATOM      6  O   LIG    1        3.086  -5.568  -5.373  0.00  0.00    -0.265 OA
ATOM      7  N   LIG    1        2.514  -2.431  -4.392  0.00  0.00    -0.271 N 
ATOM      8  H   LIG    1        2.978  -2.129  -5.206  0.00  0.00    +0.189 HD
ATOM      9  C   LIG    1        1.430  -5.123  -2.459  0.00  0.00    +0.270 A 
ATOM     10  O   LIG    1        0.865  -5.516  -1.458  0.00  0.00    -0.266 OA
ATOM     11  N   LIG    1        2.001  -1.652  -3.507  0.00  0.00    -0.166 NA
ENDROOT
BRANCH   5  12
ATOM     12  C   LIG    1        1.973  -7.303  -3.395  0.00  0.00    +0.053 A 
ATOM     13  C   LIG    1        1.374  -7.986  -2.345  0.00  0.00    +0.027 A 
ATOM     14  C   LIG    1        1.374  -9.367  -2.331  0.00  0.00    +0.017 A 
ATOM     15  C   LIG    1        1.970 -10.070  -3.362  0.00  0.00    +0.018 A 
ATOM     16 BR   LIG    1        1.968 -11.961  -3.339  0.00  0.00    -0.050 Br
ATOM     17  C   LIG    1        2.569  -9.393  -4.409  0.00  0.00    +0.017 A 
ATOM     18  C   LIG    1        2.566  -8.012  -4.431  0.00  0.00    +0.027 A 
ENDBRANCH   5  12
BRANCH   1  19
ATOM     19  C   LIG    1        0.776  -1.798  -1.335  0.00  0.00    +0.360 C 
ATOM     20  O   LIG    1        0.312  -2.549  -0.500  0.00  0.00    -0.243 OA
BRANCH  19  21
ATOM     21  O   LIG    1        0.671  -0.465  -1.174  0.00  0.00    -0.460 OA
BRANCH  21  23
ATOM     22  C   LIG    1       -0.019   1.526   0.010  0.00  0.00    +0.048 C 
ATOM     23  C   LIG    1        0.002  -0.004   0.002  0.00  0.00    +0.229 C 
ENDBRANCH  21  23
ENDBRANCH  19  21
ENDBRANCH   1  19
TORSDOF 4
