REMARK  Name = ZINC40379543
REMARK                            x       y       z     vdW  Elec       q    Type
REMARK                         _______ _______ _______ _____ _____    ______ ____
ROOT
ATOM      1  C   LIG    1       -0.017   1.386   0.010  0.00  0.00    +0.040 A 
ATOM      2  C   LIG    1        1.159   2.104   0.002  0.00  0.00    +0.029 A 
ATOM      3  C   LIG    1        2.381   1.438  -0.013  0.00  0.00    +0.050 A 
ATOM      4  C   LIG    1        2.403   0.032  -0.021  0.00  0.00    +0.005 A 
ATOM      5  C   LIG    1        3.688  -0.669  -0.037  0.00  0.00    +0.061 A 
ATOM      6  C   LIG    1        4.832   0.064  -0.044  0.00  0.00    +0.182 A 
ATOM      7  C   LIG    1        4.753   1.523  -0.035  0.00  0.00    +0.291 A 
ATOM      8  O   LIG    1        5.779   2.181  -0.042  0.00  0.00    -0.264 OA
ATOM      9  C   LIG    1        1.200  -0.684  -0.014  0.00  0.00    +0.048 A 
ATOM     10  N   LIG    1        3.563   2.150  -0.021  0.00  0.00    -0.319 N 
ATOM     11  H   LIG    1        3.536   3.120  -0.016  0.00  0.00    +0.169 HD
ATOM     12  C   LIG    1        0.002  -0.004   0.002  0.00  0.00    +0.124 A 
ATOM     13  F   LIG    1       -1.161  -0.692   0.009  0.00  0.00    -0.205 F 
ENDROOT
BRANCH   6  14
ATOM     14  O   LIG    1        6.043  -0.555  -0.058  0.00  0.00    -0.502 OA
ATOM     15  H   LIG    1        6.795   0.052  -0.062  0.00  0.00    +0.292 HD
ENDBRANCH   6  14
TORSDOF 1
