REMARK  Name = ZINC13782164
REMARK                            x       y       z     vdW  Elec       q    Type
REMARK                         _______ _______ _______ _____ _____    ______ ____
ROOT
ATOM      1  C   LIG    1        3.384   1.605  -4.043  0.00  0.00    +0.044 C 
ATOM      2  C   LIG    1        1.960   1.165  -3.817  0.00  0.00    -0.050 A 
ATOM      3  C   LIG    1        1.329   0.364  -4.750  0.00  0.00    +0.006 A 
ATOM      4  C   LIG    1        0.023  -0.039  -4.544  0.00  0.00    -0.050 A 
ATOM      5  C   LIG    1       -0.666  -0.912  -5.561  0.00  0.00    +0.044 C 
ATOM      6  C   LIG    1       -0.652   0.359  -3.405  0.00  0.00    +0.007 A 
ATOM      7  C   LIG    1       -0.020   1.160  -2.472  0.00  0.00    -0.046 A 
ATOM      8  C   LIG    1        1.284   1.568  -2.681  0.00  0.00    +0.007 A 
ENDROOT
BRANCH   7   9
ATOM      9  C   LIG    1       -0.756   1.594  -1.230  0.00  0.00    +0.002 C 
ATOM     10  C   LIG    1       -0.013   1.086   0.008  0.00  0.00    +0.004 C 
ATOM     11  C   LIG    1       -0.732   1.581   1.266  0.00  0.00    -0.019 C 
ATOM     12  C   LIG    1       -0.804   3.109   1.238  0.00  0.00    -0.083 C 
ATOM     13  N   LIG    1       -1.535   3.552   0.035  0.00  0.00    +0.379 N 
ATOM     14  H   LIG    1       -2.477   3.142   0.041  0.00  0.00    -0.086 HD
ATOM     15  H   LIG    1       -1.608   4.576   0.041  0.00  0.00    -0.086 HD
ATOM     16  C   LIG    1       -0.826   3.122  -1.185  0.00  0.00    -0.075 C 
ENDBRANCH   7   9
TORSDOF 1
