REMARK  Name = ZINC00020647
REMARK                            x       y       z     vdW  Elec       q    Type
REMARK                         _______ _______ _______ _____ _____    ______ ____
ROOT
ATOM      1  C   LIG    1        0.943   3.601  -0.145  0.00  0.00    +0.162 A 
ATOM      2  C   LIG    1        2.049   4.404  -0.372  0.00  0.00    +0.050 A 
ATOM      3  C   LIG    1        3.268   3.829  -0.681  0.00  0.00    +0.009 A 
ATOM      4  C   LIG    1        3.388   2.454  -0.760  0.00  0.00    -0.024 A 
ATOM      5  C   LIG    1        2.289   1.648  -0.529  0.00  0.00    +0.054 A 
ATOM      6  C   LIG    1        1.064   2.217  -0.218  0.00  0.00    +0.163 A 
ENDROOT
BRANCH   4   7
ATOM      7  C   LIG    1        4.718   1.833  -1.097  0.00  0.00    +0.083 C 
ATOM      8  C   LIG    1        5.159   0.921   0.049  0.00  0.00    +0.034 C 
ATOM      9  C   LIG    1        6.465   0.217  -0.335  0.00  0.00    +0.076 C 
ATOM     10  C   LIG    1        7.482   1.269  -0.718  0.00  0.00    +0.133 C 
ATOM     11  C   LIG    1        7.086   2.311  -1.740  0.00  0.00    +0.076 C 
ATOM     12  O   LIG    1        8.583   1.277  -0.221  0.00  0.00    -0.297 OA
ATOM     13  C   LIG    1        5.756   2.938  -1.307  0.00  0.00    +0.034 C 
BRANCH   7  14
ATOM     14  C   LIG    1        4.590   1.042  -2.332  0.00  0.00    +0.074 C 
ATOM     15  N   LIG    1        4.491   0.431  -3.284  0.00  0.00    -0.196 NA
ENDBRANCH   7  14
ENDBRANCH   4   7
BRANCH   1  17
ATOM     16  C   LIG    1       -0.309   5.592   0.212  0.00  0.00    +0.277 C 
ATOM     17  O   LIG    1       -0.258   4.165   0.154  0.00  0.00    -0.491 OA
ENDBRANCH   1  17
BRANCH   6  18
ATOM     18  O   LIG    1       -0.017   1.425   0.010  0.00  0.00    -0.485 OA
BRANCH  18  19
ATOM     19  C   LIG    1        0.205   0.013   0.031  0.00  0.00    +0.174 C 
ATOM     20  C   LIG    1        0.111  -0.558  -1.399  0.00  0.00    +0.044 C 
ATOM     21  C   LIG    1       -0.577  -1.934  -1.214  0.00  0.00    +0.004 C 
ATOM     22  C   LIG    1       -1.617  -1.650  -0.102  0.00  0.00    +0.004 C 
ATOM     23  C   LIG    1       -0.893  -0.681   0.856  0.00  0.00    +0.044 C 
ENDBRANCH  18  19
ENDBRANCH   6  18
TORSDOF 5
