REMARK  Name = ZINC13782506
REMARK                            x       y       z     vdW  Elec       q    Type
REMARK                         _______ _______ _______ _____ _____    ______ ____
ROOT
ATOM      1  C   LIG    1       -2.056  -5.174   3.279  0.00  0.00    -0.027 C 
ATOM      2  C   LIG    1       -3.163  -5.708   3.732  0.00  0.00    -0.027 C 
ENDROOT
BRANCH   1   3
ATOM      3  C   LIG    1       -1.895  -3.675   3.260  0.00  0.00    +0.053 C 
BRANCH   3   5
ATOM      4  C   LIG    1        0.266  -2.543   3.365  0.00  0.00    -0.027 C 
ATOM      5  C   LIG    1       -0.619  -3.299   3.968  0.00  0.00    -0.027 C 
BRANCH   4   6
ATOM      6  C   LIG    1       -0.060  -1.917   2.034  0.00  0.00    +0.053 C 
BRANCH   6   8
ATOM      7  C   LIG    1        0.980   0.133   1.210  0.00  0.00    -0.031 C 
ATOM      8  C   LIG    1        0.203  -0.434   2.099  0.00  0.00    -0.027 C 
BRANCH   7   9
ATOM      9  C   LIG    1        1.479  -0.661   0.030  0.00  0.00    +0.027 C 
BRANCH   9  10
ATOM     10  C   LIG    1        1.164   0.095  -1.263  0.00  0.00    +0.004 C 
BRANCH  10  11
ATOM     11  C   LIG    1        1.670  -0.711  -2.461  0.00  0.00    +0.000 C 
BRANCH  11  13
ATOM     12  C   LIG    1        1.862  -0.760  -4.952  0.00  0.00    +0.004 C 
ATOM     13  C   LIG    1        1.356   0.045  -3.753  0.00  0.00    -0.003 C 
ENDBRANCH  11  13
ENDBRANCH  10  11
ENDBRANCH   9  10
ENDBRANCH   7   9
ENDBRANCH   6   8
ENDBRANCH   4   6
ENDBRANCH   3   5
ENDBRANCH   1   3
BRANCH   2  14
ATOM     14  C   LIG    1       -4.341  -4.830   4.068  0.00  0.00    +0.053 C 
BRANCH  14  15
ATOM     15  C   LIG    1       -5.564  -5.330   3.344  0.00  0.00    -0.027 C 
ATOM     16  C   LIG    1       -6.660  -5.592   4.013  0.00  0.00    -0.031 C 
BRANCH  16  17
ATOM     17  C   LIG    1       -6.753  -5.239   5.475  0.00  0.00    +0.027 C 
BRANCH  17  18
ATOM     18  C   LIG    1       -8.017  -4.413   5.721  0.00  0.00    +0.013 C 
BRANCH  18  19
ATOM     19  C   LIG    1       -8.111  -4.055   7.205  0.00  0.00    +0.096 C 
BRANCH  19  20
ATOM     20  C   LIG    1       -9.356  -3.241   7.447  0.00  0.00    +0.213 C 
ATOM     21  N   LIG    1       -9.648  -2.811   8.691  0.00  0.00    -0.313 N 
ATOM     22  H   LIG    1       -9.057  -3.024   9.429  0.00  0.00    +0.149 HD
ATOM     23  O   LIG    1      -10.095  -2.974   6.524  0.00  0.00    -0.276 OA
BRANCH  21  24
ATOM     24  C   LIG    1      -10.859  -2.019   8.926  0.00  0.00    +0.137 C 
BRANCH  24  25
ATOM     25  C   LIG    1      -10.953  -1.661  10.411  0.00  0.00    +0.232 C 
ATOM     26  F   LIG    1      -12.109  -0.906  10.636  0.00  0.00    -0.247 F 
ENDBRANCH  24  25
ENDBRANCH  21  24
ENDBRANCH  19  20
ENDBRANCH  18  19
ENDBRANCH  17  18
ENDBRANCH  16  17
ENDBRANCH  14  15
ENDBRANCH   2  14
TORSDOF 16
