REMARK  Name = ZINC53738098
REMARK                            x       y       z     vdW  Elec       q    Type
REMARK                         _______ _______ _______ _____ _____    ______ ____
ROOT
ATOM      1  C   LIG    1        0.844  -2.014   1.244  0.00  0.00    -0.019 C 
ATOM      2  C   LIG    1        1.717  -2.611   0.139  0.00  0.00    +0.010 C 
ATOM      3  C   LIG    1        3.109  -1.978   0.190  0.00  0.00    +0.001 C 
ATOM      4  C   LIG    1        3.747  -2.258   1.552  0.00  0.00    +0.000 C 
ATOM      5  C   LIG    1        2.873  -1.661   2.657  0.00  0.00    +0.001 C 
ATOM      6  C   LIG    1        1.482  -2.295   2.606  0.00  0.00    +0.010 C 
ENDROOT
BRANCH   1   7
ATOM      7  C   LIG    1       -0.527  -2.638   1.193  0.00  0.00    -0.042 A 
ATOM      8  C   LIG    1       -1.004  -3.348   2.280  0.00  0.00    +0.004 A 
ATOM      9  C   LIG    1       -2.261  -3.921   2.234  0.00  0.00    +0.002 A 
ATOM     10  C   LIG    1       -3.042  -3.785   1.102  0.00  0.00    +0.020 A 
ATOM     11  C   LIG    1       -2.566  -3.075   0.014  0.00  0.00    +0.041 A 
ATOM     12 CL   LIG    1       -3.546  -2.903  -1.408  0.00  0.00    -0.084 Cl
ATOM     13  C   LIG    1       -1.310  -2.496   0.063  0.00  0.00    +0.024 A 
ENDBRANCH   1   7
BRANCH   1  14
ATOM     14  C   LIG    1        0.724  -0.503   1.039  0.00  0.00    -0.071 C 
BRANCH  14  16
ATOM     15  C   LIG    1       -0.345   1.497   1.824  0.00  0.00    -0.100 C 
ATOM     16  N   LIG    1       -0.131   0.068   2.089  0.00  0.00    +0.378 N 
ATOM     17  H   LIG    1       -1.020  -0.410   2.095  0.00  0.00    -0.086 HD
ATOM     18  H   LIG    1        0.318  -0.045   2.986  0.00  0.00    -0.086 HD
ENDBRANCH  14  16
ENDBRANCH   1  14
TORSDOF 3
