REMARK  Name = ZINC28652142
REMARK                            x       y       z     vdW  Elec       q    Type
REMARK                         _______ _______ _______ _____ _____    ______ ____
ROOT
ATOM      1  N   LIG    1        1.357   1.660  -2.448  0.00  0.00    +0.383 N 
ATOM      2  H   LIG    1        0.329   1.271  -2.467  0.00  0.00    -0.085 HD
ATOM      3  H   LIG    1        1.334   2.757  -2.378  0.00  0.00    -0.085 HD
ENDROOT
BRANCH   1   5
ATOM      4  C   LIG    1        3.186   2.251  -3.966  0.00  0.00    -0.013 C 
ATOM      5  C   LIG    1        2.054   1.262  -3.678  0.00  0.00    -0.071 C 
BRANCH   5   6
ATOM      6  C   LIG    1        1.067   1.263  -4.847  0.00  0.00    +0.019 C 
BRANCH   6   7
ATOM      7  C   LIG    1        0.020   0.202  -4.621  0.00  0.00    -0.049 A 
ATOM      8  C   LIG    1        0.221  -1.079  -5.100  0.00  0.00    +0.007 A 
ATOM      9  C   LIG    1       -0.734  -2.054  -4.889  0.00  0.00    +0.046 A 
ATOM     10  C   LIG    1       -1.901  -1.744  -4.205  0.00  0.00    +0.120 A 
ATOM     11  C   LIG    1       -2.103  -0.457  -3.731  0.00  0.00    +0.046 A 
ATOM     12  C   LIG    1       -1.142   0.514  -3.939  0.00  0.00    +0.007 A 
BRANCH  10  13
ATOM     13  O   LIG    1       -2.845  -2.700  -4.002  0.00  0.00    -0.495 OA
ATOM     14  C   LIG    1       -2.570  -4.004  -4.518  0.00  0.00    +0.277 C 
ENDBRANCH  10  13
ENDBRANCH   6   7
ENDBRANCH   5   6
ENDBRANCH   1   5
BRANCH   1  15
ATOM     15  C   LIG    1        2.040   1.127  -1.261  0.00  0.00    -0.046 C 
BRANCH  15  16
ATOM     16  C   LIG    1        1.286   1.562  -0.002  0.00  0.00    +0.128 C 
BRANCH  16  17
ATOM     17  C   LIG    1        2.052   1.121   1.219  0.00  0.00    -0.014 A 
ATOM     18  C   LIG    1        1.955  -0.185   1.659  0.00  0.00    +0.051 A 
ATOM     19  C   LIG    1        2.663  -0.595   2.780  0.00  0.00    +0.121 A 
ATOM     20  C   LIG    1        3.459   0.310   3.465  0.00  0.00    +0.090 A 
ATOM     21  C   LIG    1        3.551   1.621   3.024  0.00  0.00    +0.121 A 
ATOM     22  C   LIG    1        2.845   2.025   1.899  0.00  0.00    +0.051 A 
BRANCH  19  23
ATOM     23  O   LIG    1        2.572  -1.881   3.210  0.00  0.00    -0.507 OA
ATOM     24  H   LIG    1        3.133  -2.206   4.098  0.00  0.00    +0.292 HD
ENDBRANCH  19  23
BRANCH  21  25
ATOM     25  O   LIG    1        4.331   2.510   3.693  0.00  0.00    -0.507 OA
ATOM     26  H   LIG    1        4.403   3.551   3.343  0.00  0.00    +0.292 HD
ENDBRANCH  21  25
ENDBRANCH  16  17
BRANCH  16  27
ATOM     27  O   LIG    1       -0.011   0.963   0.007  0.00  0.00    -0.389 OA
ATOM     28  H   LIG    1       -0.702   1.160   0.840  0.00  0.00    +0.210 HD
ENDBRANCH  16  27
ENDBRANCH  15  16
ENDBRANCH   1  15
TORSDOF 10
