REMARK  Name = ZINC28404175
REMARK                            x       y       z     vdW  Elec       q    Type
REMARK                         _______ _______ _______ _____ _____    ______ ____
ROOT
ATOM      1  C   LIG    1        0.045   1.479   0.361  0.00  0.00    +0.061 C 
ATOM      2  C   LIG    1        0.034  -0.017   0.177  0.00  0.00    +0.016 C 
ATOM      3  C   LIG    1       -1.131  -0.689   0.235  0.00  0.00    +0.067 C 
ATOM      4  C   LIG    1       -1.182  -2.181   0.066  0.00  0.00    +0.113 C 
ATOM      5  C   LIG    1        0.093  -2.694  -0.540  0.00  0.00    +0.127 C 
ATOM      6  C   LIG    1        1.187  -1.966  -0.573  0.00  0.00    +0.032 C 
ATOM      7  C   LIG    1        2.439  -2.535  -1.188  0.00  0.00    +0.063 C 
ATOM      8  N   LIG    1        1.205  -0.680  -0.053  0.00  0.00    -0.320 N 
ATOM      9  H   LIG    1        2.052  -0.254   0.150  0.00  0.00    +0.152 HD
ENDROOT
BRANCH   4  10
ATOM     10  C   LIG    1       -1.383  -2.825   1.413  0.00  0.00    -0.022 A 
ATOM     11  C   LIG    1       -0.458  -2.626   2.421  0.00  0.00    +0.005 A 
ATOM     12  C   LIG    1       -0.643  -3.217   3.656  0.00  0.00    +0.000 A 
ATOM     13  C   LIG    1       -1.753  -4.008   3.885  0.00  0.00    +0.001 A 
ATOM     14  C   LIG    1       -2.679  -4.207   2.878  0.00  0.00    +0.012 A 
ATOM     15  C   LIG    1       -2.496  -3.612   1.643  0.00  0.00    +0.059 A 
BRANCH  15  16
ATOM     16  C   LIG    1       -3.508  -3.825   0.547  0.00  0.00    +0.418 C 
ATOM     17  F   LIG    1       -2.887  -4.431  -0.550  0.00  0.00    -0.166 F 
ATOM     18  F   LIG    1       -4.041  -2.591   0.158  0.00  0.00    -0.166 F 
ATOM     19  F   LIG    1       -4.536  -4.650   1.015  0.00  0.00    -0.166 F 
ENDBRANCH  15  16
ENDBRANCH   4  10
BRANCH   3  20
ATOM     20  C   LIG    1       -2.330   0.023   0.460  0.00  0.00    +0.337 C 
ATOM     21  O   LIG    1       -2.303   1.232   0.600  0.00  0.00    -0.245 OA
BRANCH  20  22
ATOM     22  O   LIG    1       -3.506  -0.638   0.521  0.00  0.00    -0.465 OA
ATOM     23  C   LIG    1       -4.679   0.145   0.752  0.00  0.00    +0.280 C 
ENDBRANCH  20  22
ENDBRANCH   3  20
BRANCH   5  24
ATOM     24  N   LIG    1        0.117  -4.057  -1.116  0.00  0.00    +0.004 N 
ATOM     25  O   LIG    1        0.321  -5.012  -0.402  0.00  0.00    -0.130 OA
BRANCH  24  26
ATOM     26  O   LIG    1       -0.065  -4.216  -2.301  0.00  0.00    -0.396 OA
ATOM     27  H   LIG    1       -0.223  -3.477  -2.854  0.00  0.00    +0.329 HD
ENDBRANCH  24  26
ENDBRANCH   5  24
TORSDOF 6
