REMARK  Name = ZINC13779540
REMARK                            x       y       z     vdW  Elec       q    Type
REMARK                         _______ _______ _______ _____ _____    ______ ____
ROOT
ATOM      1  C   LIG    1        0.876  -1.788   0.649  0.00  0.00    +0.007 C 
ATOM      2  C   LIG    1        0.904  -0.259   0.598  0.00  0.00    -0.014 C 
ATOM      3  C   LIG    1        0.432   0.214  -0.779  0.00  0.00    +0.003 C 
ATOM      4  C   LIG    1        0.461   1.743  -0.830  0.00  0.00    +0.001 C 
ATOM      5  C   LIG    1        1.889   2.235  -0.584  0.00  0.00    +0.005 C 
ATOM      6  C   LIG    1        2.360   1.762   0.793  0.00  0.00    -0.035 C 
ATOM      7  C   LIG    1        2.332   0.233   0.844  0.00  0.00    +0.009 C 
ENDROOT
BRANCH   6   8
ATOM      8  C   LIG    1        3.788   2.254   1.039  0.00  0.00    -0.079 C 
BRANCH   8   9
ATOM      9  N   LIG    1        3.781   3.726   1.099  0.00  0.00    +0.378 N 
ATOM     10  H   LIG    1        3.305   4.096   0.268  0.00  0.00    -0.090 HD
ATOM     11  H   LIG    1        4.736   4.080   1.119  0.00  0.00    -0.090 HD
ATOM     12  H   LIG    1        3.286   4.040   1.932  0.00  0.00    -0.090 HD
ENDBRANCH   8   9
ENDBRANCH   6   8
BRANCH   6  13
ATOM     13  C   LIG    1        1.433   2.326   1.871  0.00  0.00    +0.125 C 
BRANCH  13  14
ATOM     14  C   LIG    1        1.894   1.855   3.227  0.00  0.00    +0.305 C 
ATOM     15  O   LIG    1        2.866   1.143   3.321  0.00  0.00    -0.251 OA
BRANCH  14  16
ATOM     16  O   LIG    1        1.224   2.226   4.329  0.00  0.00    -0.481 OA
ATOM     17  H   LIG    1        0.471   2.778   4.257  0.00  0.00    +0.295 HD
ENDBRANCH  14  16
ENDBRANCH  13  14
ENDBRANCH   6  13
TORSDOF 5
