REMARK  Name = ZINC34633601
REMARK                            x       y       z     vdW  Elec       q    Type
REMARK                         _______ _______ _______ _____ _____    ______ ____
ROOT
ATOM      1  C   LIG    1       -1.264  -0.761   0.011  0.00  0.00    +0.091 C 
ATOM      2  N   LIG    1       -2.451  -0.251   0.019  0.00  0.00    -0.089 NA
ATOM      3  O   LIG    1       -3.470  -1.231   0.033  0.00  0.00    -0.389 OA
ATOM      4  C   LIG    1       -2.879  -2.480  -0.380  0.00  0.00    +0.221 C 
ATOM      5  C   LIG    1       -1.396  -2.272   0.004  0.00  0.00    +0.107 C 
ENDROOT
BRANCH   1  11
ATOM      6  C   LIG    1       -0.017   1.393   0.010  0.00  0.00    +0.013 A 
ATOM      7  C   LIG    1        1.168   2.096   0.002  0.00  0.00    +0.046 A 
ATOM      8  C   LIG    1        2.380   1.418  -0.013  0.00  0.00    +0.117 A 
ATOM      9  C   LIG    1        2.404   0.029  -0.022  0.00  0.00    +0.046 A 
ATOM     10  C   LIG    1        1.223  -0.682  -0.014  0.00  0.00    +0.013 A 
ATOM     11  C   LIG    1        0.002  -0.004   0.002  0.00  0.00    -0.000 A 
BRANCH   8  12
ATOM     12  O   LIG    1        3.546   2.115  -0.021  0.00  0.00    -0.507 OA
ATOM     13  H   LIG    1        3.892   2.312   0.860  0.00  0.00    +0.292 HD
ENDBRANCH   8  12
ENDBRANCH   1  11
BRANCH   4  14
ATOM     14  C   LIG    1       -3.489  -3.655   0.387  0.00  0.00    +0.168 C 
BRANCH  14  15
ATOM     15  C   LIG    1       -4.938  -3.808   0.003  0.00  0.00    +0.311 C 
ATOM     16  O   LIG    1       -5.432  -3.055  -0.803  0.00  0.00    -0.251 OA
BRANCH  15  17
ATOM     17  O   LIG    1       -5.679  -4.781   0.555  0.00  0.00    -0.461 OA
BRANCH  17  18
ATOM     18  C   LIG    1       -7.045  -4.869   0.144  0.00  0.00    +0.176 C 
ATOM     19  C   LIG    1       -7.911  -4.006   1.065  0.00  0.00    +0.044 C 
ATOM     20  C   LIG    1       -9.373  -4.099   0.625  0.00  0.00    +0.004 C 
ATOM     21  C   LIG    1       -9.838  -5.555   0.705  0.00  0.00    +0.000 C 
ATOM     22  C   LIG    1       -8.972  -6.417  -0.216  0.00  0.00    +0.004 C 
ATOM     23  C   LIG    1       -7.510  -6.324   0.224  0.00  0.00    +0.044 C 
ENDBRANCH  17  18
ENDBRANCH  15  17
ENDBRANCH  14  15
ENDBRANCH   4  14
TORSDOF 6
