REMARK  Name = ZINC66112330
REMARK                            x       y       z     vdW  Elec       q    Type
REMARK                         _______ _______ _______ _____ _____    ______ ____
ROOT
ATOM      1  N   LIG    1        4.099  -0.920   1.363  0.00  0.00    -0.263 N 
ATOM      2  C   LIG    1        4.973  -0.171   2.051  0.00  0.00    +0.040 A 
ATOM      3  C   LIG    1        5.198  -0.775   3.247  0.00  0.00    -0.016 A 
ATOM      4  C   LIG    1        6.136  -0.226   4.291  0.00  0.00    -0.043 C 
ATOM      5  N   LIG    1        7.020   0.761   3.648  0.00  0.00    +0.382 N 
ATOM      6  H   LIG    1        7.635   0.289   3.003  0.00  0.00    -0.085 HD
ATOM      7  H   LIG    1        7.572   1.225   4.354  0.00  0.00    -0.085 HD
ATOM      8  C   LIG    1        6.223   1.758   2.921  0.00  0.00    -0.076 C 
ATOM      9  C   LIG    1        4.424  -1.942   3.291  0.00  0.00    +0.094 A 
ATOM     10  C   LIG    1        5.635   1.125   1.652  0.00  0.00    +0.036 C 
ATOM     11  N   LIG    1        3.757  -2.026   2.156  0.00  0.00    -0.170 NA
ENDROOT
BRANCH   9  12
ATOM     12  C   LIG    1        4.361  -2.907   4.417  0.00  0.00    +0.002 A 
ATOM     13  C   LIG    1        4.341  -4.277   4.163  0.00  0.00    +0.011 A 
ATOM     14  C   LIG    1        4.282  -5.170   5.213  0.00  0.00    +0.020 A 
ATOM     15  C   LIG    1        4.242  -4.707   6.517  0.00  0.00    +0.041 A 
ATOM     16 CL   LIG    1        4.167  -5.837   7.833  0.00  0.00    -0.084 Cl
ATOM     17  C   LIG    1        4.261  -3.348   6.774  0.00  0.00    +0.020 A 
ATOM     18  C   LIG    1        4.326  -2.446   5.731  0.00  0.00    +0.011 A 
ENDBRANCH   9  12
BRANCH   1  19
ATOM     19  C   LIG    1        3.587  -0.630   0.021  0.00  0.00    +0.179 C 
BRANCH  19  23
ATOM     20  C   LIG    1        0.049   1.744   0.327  0.00  0.00    +0.000 A 
ATOM     21  C   LIG    1        1.286   2.355   0.239  0.00  0.00    +0.000 A 
ATOM     22  C   LIG    1        2.431   1.586   0.141  0.00  0.00    +0.005 A 
ATOM     23  C   LIG    1        2.339   0.207   0.130  0.00  0.00    -0.026 A 
ATOM     24  C   LIG    1        1.102  -0.404   0.218  0.00  0.00    +0.005 A 
ATOM     25  C   LIG    1       -0.043   0.365   0.316  0.00  0.00    +0.000 A 
ENDBRANCH  19  23
ENDBRANCH   1  19
TORSDOF 3
