REMARK  Name = ZINC33961502
REMARK                            x       y       z     vdW  Elec       q    Type
REMARK                         _______ _______ _______ _____ _____    ______ ____
ROOT
ATOM      1  C   LIG    1        0.137   1.614   0.803  0.00  0.00    +0.007 C 
ATOM      2  C   LIG    1        0.081   0.119   0.480  0.00  0.00    -0.014 C 
ATOM      3  C   LIG    1        0.843  -0.180  -0.835  0.00  0.00    +0.004 C 
ATOM      4  C   LIG    1        1.207  -1.679  -0.685  0.00  0.00    +0.006 C 
ATOM      5  C   LIG    1        1.556  -1.836   0.809  0.00  0.00    -0.035 C 
ATOM      6  C   LIG    1        0.837  -0.693   1.552  0.00  0.00    +0.009 C 
ENDROOT
BRANCH   5   7
ATOM      7  C   LIG    1        3.068  -1.724   1.009  0.00  0.00    -0.079 C 
BRANCH   7   8
ATOM      8  N   LIG    1        3.734  -2.856   0.351  0.00  0.00    +0.378 N 
ATOM      9  H   LIG    1        3.475  -2.879  -0.623  0.00  0.00    -0.090 HD
ATOM     10  H   LIG    1        3.451  -3.717   0.795  0.00  0.00    -0.090 HD
ATOM     11  H   LIG    1        4.735  -2.750   0.431  0.00  0.00    -0.090 HD
ENDBRANCH   7   8
ENDBRANCH   5   7
BRANCH   5  12
ATOM     12  C   LIG    1        1.057  -3.188   1.324  0.00  0.00    +0.125 C 
BRANCH  12  13
ATOM     13  C   LIG    1        1.298  -3.280   2.808  0.00  0.00    +0.305 C 
ATOM     14  O   LIG    1        1.762  -2.327   3.411  0.00  0.00    -0.251 OA
BRANCH  13  15
ATOM     15  O   LIG    1        1.030  -4.308   3.407  0.00  0.00    -0.481 OA
ATOM     16  H   LIG    1        0.674  -5.040   2.944  0.00  0.00    +0.295 HD
ENDBRANCH  13  15
ENDBRANCH  12  13
ENDBRANCH   5  12
TORSDOF 5
