REMARK  Name = ZINC49089740
REMARK                            x       y       z     vdW  Elec       q    Type
REMARK                         _______ _______ _______ _____ _____    ______ ____
ROOT
ATOM      1  C   LIG    1       -2.554  -4.147   0.015  0.00  0.00    +0.121 C 
ATOM      2  N   LIG    1       -1.537  -4.966   0.013  0.00  0.00    -0.177 NA
ATOM      3  N   LIG    1       -1.956  -6.296   0.012  0.00  0.00    -0.201 N 
ATOM      4  H   LIG    1       -1.364  -7.064   0.010  0.00  0.00    +0.178 HD
ATOM      5  C   LIG    1       -3.303  -6.362   0.015  0.00  0.00    +0.285 C 
ATOM      6  O   LIG    1       -3.986  -7.371   0.015  0.00  0.00    -0.267 OA
ATOM      7  C   LIG    1       -3.781  -4.970   0.023  0.00  0.00    +0.172 C 
ATOM      8  N   LIG    1       -5.032  -4.549   0.033  0.00  0.00    -0.175 NA
ENDROOT
BRANCH   1  13
ATOM      9  C   LIG    1       -1.200  -0.637   0.010  0.00  0.00    +0.121 A 
ATOM     10  C   LIG    1       -2.375   0.103   0.019  0.00  0.00    +0.045 A 
ATOM     11  C   LIG    1       -3.600  -0.536   0.027  0.00  0.00    +0.004 A 
ATOM     12  C   LIG    1       -3.664  -1.915   0.026  0.00  0.00    +0.010 A 
ATOM     13  C   LIG    1       -2.489  -2.667   0.016  0.00  0.00    +0.008 A 
ATOM     14  C   LIG    1       -1.254  -2.021   0.003  0.00  0.00    +0.055 A 
BRANCH   9  16
ATOM     15  C   LIG    1       -0.017   1.425   0.010  0.00  0.00    +0.277 C 
ATOM     16  O   LIG    1        0.002  -0.004   0.002  0.00  0.00    -0.495 OA
ENDBRANCH   9  16
ENDBRANCH   1  13
BRANCH   8  17
ATOM     17  N   LIG    1       -5.999  -5.402   0.039  0.00  0.00    -0.237 N 
ATOM     18  H   LIG    1       -5.808  -6.353   0.036  0.00  0.00    +0.174 HD
BRANCH  17  19
ATOM     19  C   LIG    1       -7.321  -4.958   0.049  0.00  0.00    +0.052 A 
ATOM     20  C   LIG    1       -7.598  -3.595   0.047  0.00  0.00    +0.025 A 
ATOM     21  C   LIG    1       -8.906  -3.155   0.057  0.00  0.00    +0.005 A 
ATOM     22  C   LIG    1       -9.945  -4.067   0.069  0.00  0.00    +0.046 A 
ATOM     23  C   LIG    1       -9.676  -5.429   0.071  0.00  0.00    +0.122 A 
ATOM     24  C   LIG    1       -8.364  -5.875   0.056  0.00  0.00    +0.070 A 
BRANCH  23  25
ATOM     25  O   LIG    1      -10.698  -6.324   0.084  0.00  0.00    -0.495 OA
ATOM     26  C   LIG    1      -12.025  -5.793   0.093  0.00  0.00    +0.277 C 
ENDBRANCH  23  25
ENDBRANCH  17  19
ENDBRANCH   8  17
TORSDOF 5
