REMARK  Name = ZINC40394057
REMARK                            x       y       z     vdW  Elec       q    Type
REMARK                         _______ _______ _______ _____ _____    ______ ____
ROOT
ATOM      1  C   LIG    1        0.483  -2.720   1.299  0.00  0.00    +0.255 A 
ATOM      2  N   LIG    1        0.616  -3.986   0.940  0.00  0.00    -0.195 NA
ATOM      3  C   LIG    1        0.867  -4.929   1.844  0.00  0.00    +0.132 A 
ATOM      4  C   LIG    1        0.990  -4.568   3.182  0.00  0.00    +0.087 A 
ATOM      5  C   LIG    1        0.845  -3.225   3.521  0.00  0.00    +0.129 A 
ATOM      6  N   LIG    1        0.599  -2.338   2.560  0.00  0.00    -0.196 NA
ENDROOT
BRANCH   1  12
ATOM      7  C   LIG    1       -0.222   1.674  -0.877  0.00  0.00    +0.067 C 
ATOM      8  C   LIG    1       -0.090   0.192  -0.633  0.00  0.00    +0.061 A 
ATOM      9  C   LIG    1       -0.244  -0.813  -1.596  0.00  0.00    +0.048 A 
ATOM     10  C   LIG    1       -0.049  -2.005  -0.989  0.00  0.00    +0.045 A 
ATOM     11  C   LIG    1       -0.118  -3.360  -1.645  0.00  0.00    +0.066 C 
ATOM     12  N   LIG    1        0.221  -1.761   0.321  0.00  0.00    -0.202 N 
ATOM     13  N   LIG    1        0.194  -0.373   0.511  0.00  0.00    -0.169 NA
ENDBRANCH   1  12
BRANCH   3  14
ATOM     14  N   LIG    1        1.004  -6.258   1.458  0.00  0.00    -0.270 N 
ATOM     15  H   LIG    1        1.111  -6.950   2.129  0.00  0.00    +0.156 HD
ATOM     16  C   LIG    1        0.987  -6.584   0.150  0.00  0.00    +0.215 C 
ATOM     17  C   LIG    1        1.251  -8.006  -0.275  0.00  0.00    +0.109 C 
ATOM     18  O   LIG    1        0.761  -5.734  -0.684  0.00  0.00    -0.276 OA
ENDBRANCH   3  14
BRANCH   5  19
ATOM     19  N   LIG    1        0.959  -2.817   4.841  0.00  0.00    -0.310 N 
ATOM     20  C   LIG    1        0.718  -1.452   5.343  0.00  0.00    +0.107 C 
ATOM     21  C   LIG    1        0.362  -1.637   6.839  0.00  0.00    +0.021 C 
ATOM     22  C   LIG    1        1.306  -2.800   7.243  0.00  0.00    +0.026 C 
ATOM     23  C   LIG    1        1.333  -3.677   5.974  0.00  0.00    +0.100 C 
BRANCH  23  24
ATOM     24  C   LIG    1        2.742  -4.234   5.760  0.00  0.00    +0.181 C 
BRANCH  24  25
ATOM     25  O   LIG    1        3.686  -3.162   5.777  0.00  0.00    -0.381 OA
ATOM     26  C   LIG    1        5.040  -3.577   5.585  0.00  0.00    +0.194 C 
ENDBRANCH  24  25
ENDBRANCH  23  24
ENDBRANCH   5  19
TORSDOF 5
