REMARK  Name = ZINC14976356
REMARK                            x       y       z     vdW  Elec       q    Type
REMARK                         _______ _______ _______ _____ _____    ______ ____
ROOT
ATOM      1  C   LIG    1        4.462  -1.207   1.127  0.00  0.00    +0.119 A 
ATOM      2  C   LIG    1        3.689  -0.774  -0.037  0.00  0.00    +0.033 A 
ATOM      3  C   LIG    1        4.389  -1.173  -1.143  0.00  0.00    +0.048 A 
ATOM      4  N   LIG    1        5.504  -1.803  -0.733  0.00  0.00    -0.267 N 
ATOM      5  C   LIG    1        6.307  -2.252  -1.885  0.00  0.00    +0.144 C 
ATOM      6  C   LIG    1        5.352  -2.215  -3.096  0.00  0.00    +0.029 C 
ATOM      7  C   LIG    1        4.328  -1.144  -2.656  0.00  0.00    +0.057 C 
ATOM      8  N   LIG    1        5.530  -1.821   0.672  0.00  0.00    -0.169 NA
ENDROOT
BRANCH   2   9
ATOM      9  C   LIG    1        2.403  -0.043  -0.021  0.00  0.00    -0.003 A 
ATOM     10  C   LIG    1        1.191  -0.722  -0.013  0.00  0.00    +0.029 A 
ATOM     11  C   LIG    1        0.002  -0.004   0.002  0.00  0.00    +0.112 A 
ATOM     12  N   LIG    1       -0.016   1.308   0.009  0.00  0.00    -0.255 NA
ATOM     13  C   LIG    1        1.111   2.028   0.002  0.00  0.00    +0.072 A 
ATOM     14  C   LIG    1        1.072   3.433   0.011  0.00  0.00    +0.029 A 
ATOM     15  C   LIG    1        2.235   4.142   0.003  0.00  0.00    +0.017 A 
ATOM     16  C   LIG    1        3.470   3.495  -0.013  0.00  0.00    +0.019 A 
ATOM     17 BR   LIG    1        5.059   4.519  -0.023  0.00  0.00    -0.050 Br
ATOM     18  C   LIG    1        3.545   2.134  -0.021  0.00  0.00    +0.026 A 
ATOM     19  C   LIG    1        2.367   1.375  -0.013  0.00  0.00    +0.009 A 
ENDBRANCH   2   9
BRANCH   1  25
ATOM     20  C   LIG    1        2.075   1.399   4.472  0.00  0.00    +0.065 C 
ATOM     21  C   LIG    1        2.975   0.237   4.141  0.00  0.00    +0.039 A 
ATOM     22  C   LIG    1        3.433  -0.582   5.157  0.00  0.00    +0.023 A 
ATOM     23  C   LIG    1        4.262  -1.652   4.848  0.00  0.00    +0.004 A 
ATOM     24  C   LIG    1        4.603  -1.861   3.523  0.00  0.00    +0.030 A 
ATOM     25  C   LIG    1        4.106  -0.996   2.550  0.00  0.00    +0.092 A 
ATOM     26  N   LIG    1        3.320   0.018   2.889  0.00  0.00    -0.250 NA
ENDBRANCH   1  25
TORSDOF 2
