REMARK  Name = ZINC19795938
REMARK                            x       y       z     vdW  Elec       q    Type
REMARK                         _______ _______ _______ _____ _____    ______ ____
ROOT
ATOM      1  C   LIG    1      -12.405   2.028  -1.326  0.00  0.00    +0.048 C 
ATOM      2  C   LIG    1      -11.243   1.088  -1.517  0.00  0.00    +0.002 C 
ATOM      3  C   LIG    1      -11.374   0.041  -2.373  0.00  0.00    +0.167 C 
ATOM      4  C   LIG    1      -10.284  -0.831  -2.592  0.00  0.00    +0.221 C 
ATOM      5  C   LIG    1       -9.043  -0.572  -1.979  0.00  0.00    +0.059 C 
ATOM      6  C   LIG    1       -8.912   0.458  -1.103  0.00  0.00    -0.026 C 
ATOM      7  C   LIG    1       -7.560   0.731  -0.493  0.00  0.00    +0.015 C 
ATOM      8  C   LIG    1       -6.750   1.427  -1.594  0.00  0.00    +0.021 C 
ATOM      9  C   LIG    1       -6.877  -0.589  -0.160  0.00  0.00    +0.016 C 
ATOM     10  C   LIG    1       -5.674  -0.413   0.761  0.00  0.00    +0.009 C 
ATOM     11  C   LIG    1       -6.060   0.338   2.041  0.00  0.00    -0.020 C 
ATOM     12  C   LIG    1       -7.281  -0.378   2.637  0.00  0.00    +0.012 C 
ATOM     13  C   LIG    1       -6.483   1.759   1.649  0.00  0.00    -0.004 C 
ATOM     14  C   LIG    1       -5.339   2.522   0.980  0.00  0.00    +0.016 C 
ATOM     15  C   LIG    1       -6.889   2.516   2.912  0.00  0.00    +0.012 C 
ATOM     16  C   LIG    1       -5.684   2.649   3.835  0.00  0.00    +0.008 C 
ATOM     17  C   LIG    1       -5.088   1.295   4.212  0.00  0.00    -0.029 C 
ATOM     18  C   LIG    1       -3.684   1.595   4.787  0.00  0.00    +0.011 C 
ATOM     19  C   LIG    1       -5.915   0.656   5.319  0.00  0.00    +0.008 C 
ATOM     20  C   LIG    1       -5.237  -0.596   5.840  0.00  0.00    +0.018 C 
ATOM     21  C   LIG    1       -4.858  -1.589   4.759  0.00  0.00    +0.065 C 
ATOM     22  C   LIG    1       -3.645  -2.398   5.294  0.00  0.00    +0.023 C 
ATOM     23  C   LIG    1       -4.449  -1.024   3.419  0.00  0.00    +0.022 C 
ATOM     24  C   LIG    1       -4.911   0.365   3.030  0.00  0.00    +0.003 C 
ATOM     25  C   LIG    1       -7.661   1.627   0.706  0.00  0.00    -0.053 C 
ATOM     26  C   LIG    1       -8.771   2.325   0.978  0.00  0.00    +0.001 C 
ATOM     27  C   LIG    1       -9.941   2.220   0.216  0.00  0.00    +0.008 C 
ATOM     28  O   LIG    1      -10.417  -1.805  -3.318  0.00  0.00    -0.284 OA
ATOM     29  C   LIG    1      -10.035   1.267  -0.800  0.00  0.00    -0.014 C 
ENDROOT
BRANCH   3  30
ATOM     30  O   LIG    1      -12.560  -0.165  -3.011  0.00  0.00    -0.503 OA
ATOM     31  H   LIG    1      -12.562  -0.932  -3.599  0.00  0.00    +0.292 HD
ENDBRANCH   3  30
BRANCH  21  32
ATOM     32  C   LIG    1       -5.977  -2.599   4.582  0.00  0.00    +0.311 C 
ATOM     33  O   LIG    1       -6.686  -2.895   5.529  0.00  0.00    -0.250 OA
BRANCH  32  34
ATOM     34  O   LIG    1       -6.166  -3.115   3.494  0.00  0.00    -0.480 OA
ATOM     35  H   LIG    1       -5.621  -2.888   2.767  0.00  0.00    +0.295 HD
ENDBRANCH  32  34
ENDBRANCH  21  32
TORSDOF 3
