REMARK  Name = ZINC28899933
REMARK                            x       y       z     vdW  Elec       q    Type
REMARK                         _______ _______ _______ _____ _____    ______ ____
ROOT
ATOM      1  C   LIG    1        1.134   3.176   0.008  0.00  0.00    +0.001 A 
ATOM      2  C   LIG    1        1.170   1.787   0.001  0.00  0.00    +0.001 A 
ATOM      3  C   LIG    1       -0.013   1.076   0.008  0.00  0.00    +0.015 A 
ATOM      4  C   LIG    1       -1.213   1.754   0.017  0.00  0.00    +0.020 A 
ATOM      5  C   LIG    1       -1.280   3.167   0.031  0.00  0.00    -0.010 A 
ATOM      6  C   LIG    1       -2.578   3.709   0.047  0.00  0.00    +0.029 A 
ATOM      7  C   LIG    1       -3.658   2.883   0.053  0.00  0.00    +0.077 A 
ATOM      8  S   LIG    1       -2.918   1.259   0.037  0.00  0.00    -0.084 S 
ATOM      9  C   LIG    1       -0.041   3.858   0.023  0.00  0.00    +0.009 A 
ENDROOT
BRANCH   7  10
ATOM     10  C   LIG    1       -5.084   3.239   0.069  0.00  0.00    +0.273 C 
ATOM     11  N   LIG    1       -6.021   2.270   0.072  0.00  0.00    -0.193 N 
ATOM     12  H   LIG    1       -5.718   1.213   0.063  0.00  0.00    +0.183 HD
ATOM     13  O   LIG    1       -5.419   4.409   0.079  0.00  0.00    -0.268 OA
BRANCH  11  14
ATOM     14  O   LIG    1       -7.394   2.614   0.088  0.00  0.00    -0.295 OA
ATOM     15  H   LIG    1       -8.159   1.823   0.091  0.00  0.00    +0.241 HD
ENDBRANCH  11  14
ENDBRANCH   7  10
TORSDOF 2
