REMARK  Name = ZINC43152618
REMARK                            x       y       z     vdW  Elec       q    Type
REMARK                         _______ _______ _______ _____ _____    ______ ____
ROOT
ATOM      1  C   LIG    1       -4.869  -1.045   0.036  0.00  0.00    +0.282 C 
ATOM      2  N   LIG    1       -5.399   0.189   0.143  0.00  0.00    -0.293 N 
ATOM      3  C   LIG    1       -4.540   1.383   0.135  0.00  0.00    +0.123 C 
ATOM      4  C   LIG    1       -5.083   2.366  -0.907  0.00  0.00    +0.103 C 
ATOM      5  N   LIG    1       -6.504   2.625  -0.638  0.00  0.00    -0.296 NA
ATOM      6  C   LIG    1       -7.304   1.401  -0.776  0.00  0.00    +0.103 C 
ATOM      7  C   LIG    1       -6.853   0.379   0.265  0.00  0.00    +0.123 C 
ATOM      8  O   LIG    1       -5.598  -2.012  -0.088  0.00  0.00    -0.267 OA
ENDROOT
BRANCH   5   9
ATOM      9  C   LIG    1       -7.019   3.692  -1.507  0.00  0.00    +0.057 C 
ATOM     10  C   LIG    1       -6.229   4.979  -1.257  0.00  0.00    +0.019 C 
ATOM     11  C   LIG    1       -6.766   6.090  -2.162  0.00  0.00    +0.002 C 
ATOM     12  C   LIG    1       -8.245   6.330  -1.853  0.00  0.00    +0.000 C 
ATOM     13  C   LIG    1       -9.034   5.043  -2.103  0.00  0.00    +0.002 C 
ATOM     14  C   LIG    1       -8.498   3.933  -1.198  0.00  0.00    +0.019 C 
ENDBRANCH   5   9
BRANCH   1  18
ATOM     15  C   LIG    1       -1.271  -0.792   0.280  0.00  0.00    +0.136 A 
ATOM     16  C   LIG    1       -1.376  -2.116  -0.037  0.00  0.00    +0.050 A 
ATOM     17  C   LIG    1       -2.739  -2.399  -0.173  0.00  0.00    +0.055 A 
ATOM     18  C   LIG    1       -3.415  -1.224   0.069  0.00  0.00    +0.190 A 
ATOM     19  O   LIG    1       -2.505  -0.266   0.347  0.00  0.00    -0.450 OA
BRANCH  15  26
ATOM     20  C   LIG    1       -0.037   1.298   0.841  0.00  0.00    +0.013 A 
ATOM     21  C   LIG    1        1.144   1.974   1.062  0.00  0.00    +0.021 A 
ATOM     22  C   LIG    1        2.355   1.310   0.962  0.00  0.00    +0.041 A 
ATOM     23 CL   LIG    1        3.838   2.170   1.240  0.00  0.00    -0.084 Cl
ATOM     24  C   LIG    1        2.389  -0.036   0.639  0.00  0.00    +0.021 A 
ATOM     25  C   LIG    1        1.215  -0.724   0.417  0.00  0.00    +0.013 A 
ATOM     26  C   LIG    1       -0.010  -0.061   0.517  0.00  0.00    +0.017 A 
ENDBRANCH  15  26
ENDBRANCH   1  18
TORSDOF 3
