REMARK  Name = ZINC33744856
REMARK                            x       y       z     vdW  Elec       q    Type
REMARK                         _______ _______ _______ _____ _____    ______ ____
ROOT
ATOM      1  C   LIG    1        1.239   3.567  -0.122  0.00  0.00    +0.091 C 
ATOM      2  C   LIG    1        0.430   4.100   1.071  0.00  0.00    -0.057 C 
ATOM      3  C   LIG    1        0.759   5.603   1.231  0.00  0.00    -0.017 C 
ATOM      4  C   LIG    1        1.991   5.641   2.159  0.00  0.00    -0.017 C 
ATOM      5  C   LIG    1        2.295   4.159   2.475  0.00  0.00    -0.071 C 
ATOM      6  C   LIG    1        3.252   3.634   1.392  0.00  0.00    -0.007 C 
ATOM      7  N   LIG    1        0.988   3.472   2.298  0.00  0.00    +0.383 N 
ATOM      8  H   LIG    1        1.102   2.390   2.136  0.00  0.00    -0.085 HD
ATOM      9  H   LIG    1        0.305   3.647   3.143  0.00  0.00    -0.085 HD
ATOM     10  C   LIG    1        2.690   4.036   0.013  0.00  0.00    +0.030 C 
ENDROOT
BRANCH  10  11
ATOM     11  C   LIG    1        2.747   5.535  -0.125  0.00  0.00    -0.044 A 
ATOM     12  C   LIG    1        1.819   6.193  -0.911  0.00  0.00    +0.005 A 
ATOM     13  C   LIG    1        1.868   7.569  -1.033  0.00  0.00    +0.014 A 
ATOM     14  C   LIG    1        2.852   8.287  -0.378  0.00  0.00    +0.013 A 
ATOM     15  I   LIG    1        2.931  10.371  -0.571  0.00  0.00    -0.044 I 
ATOM     16  C   LIG    1        3.784   7.628   0.403  0.00  0.00    +0.014 A 
ATOM     17  C   LIG    1        3.731   6.253   0.529  0.00  0.00    +0.005 A 
ENDBRANCH  10  11
BRANCH   1  18
ATOM     18  C   LIG    1        1.194   2.060  -0.129  0.00  0.00    +0.309 C 
ATOM     19  O   LIG    1        2.218   1.425  -0.046  0.00  0.00    -0.251 OA
BRANCH  18  21
ATOM     20  C   LIG    1        0.048  -0.027  -0.228  0.00  0.00    +0.280 C 
ATOM     21  O   LIG    1        0.015   1.425  -0.227  0.00  0.00    -0.468 OA
ENDBRANCH  18  21
ENDBRANCH   1  18
TORSDOF 3
