REMARK  Name = ZINC16740081
REMARK                            x       y       z     vdW  Elec       q    Type
REMARK                         _______ _______ _______ _____ _____    ______ ____
ROOT
ATOM      1  C   LIG    1       -0.041   6.018   0.112  0.00  0.00    +0.280 C 
ATOM      2  C   LIG    1        0.629   6.554   1.348  0.00  0.00    +0.262 C 
ATOM      3  N   LIG    1        1.883   6.234   1.658  0.00  0.00    -0.271 N 
ATOM      4  C   LIG    1        2.422   6.758   2.915  0.00  0.00    +0.138 C 
ATOM      5  C   LIG    1        2.720   5.444   0.885  0.00  0.00    +0.045 A 
ATOM      6  C   LIG    1        4.056   5.835   0.781  0.00  0.00    +0.024 A 
ATOM      7  C   LIG    1        4.947   5.098   0.032  0.00  0.00    +0.002 A 
ATOM      8  C   LIG    1        4.524   3.956  -0.627  0.00  0.00    +0.001 A 
ATOM      9  C   LIG    1        3.211   3.556  -0.536  0.00  0.00    +0.012 A 
ATOM     10  C   LIG    1        2.290   4.296   0.228  0.00  0.00    +0.022 A 
ATOM     11  C   LIG    1        0.901   3.812   0.272  0.00  0.00    +0.077 C 
ATOM     12  O   LIG    1        0.010   7.297   2.080  0.00  0.00    -0.271 OA
ATOM     13  N   LIG    1       -0.141   4.563   0.221  0.00  0.00    -0.251 NA
ENDROOT
BRANCH   1  17
ATOM     14  N   LIG    1        0.872   7.161  -3.262  0.00  0.00    -0.269 N 
ATOM     15  H   LIG    1        1.827   6.991  -3.272  0.00  0.00    +0.156 HD
ATOM     16  C   LIG    1        0.142   6.839  -2.175  0.00  0.00    +0.306 C 
ATOM     17  N   LIG    1        0.752   6.367  -1.070  0.00  0.00    -0.270 N 
ATOM     18  H   LIG    1        1.716   6.259  -1.056  0.00  0.00    +0.153 HD
ATOM     19  O   LIG    1       -1.066   6.975  -2.191  0.00  0.00    -0.252 OA
BRANCH  14  26
ATOM     20  C   LIG    1        1.025  10.318  -7.027  0.00  0.00    +0.044 C 
ATOM     21  C   LIG    1        0.302   9.273  -6.218  0.00  0.00    -0.048 A 
ATOM     22  C   LIG    1       -0.976   8.885  -6.574  0.00  0.00    +0.006 A 
ATOM     23  C   LIG    1       -1.642   7.926  -5.834  0.00  0.00    -0.048 A 
ATOM     24  C   LIG    1       -3.035   7.506  -6.226  0.00  0.00    +0.044 C 
ATOM     25  C   LIG    1       -1.033   7.352  -4.735  0.00  0.00    +0.026 A 
ATOM     26  C   LIG    1        0.251   7.740  -4.375  0.00  0.00    +0.035 A 
ATOM     27  C   LIG    1        0.916   8.707  -5.117  0.00  0.00    +0.026 A 
ENDBRANCH  14  26
ENDBRANCH   1  17
BRANCH  11  28
ATOM     28  C   LIG    1        0.688   2.350   0.389  0.00  0.00    +0.001 A 
ATOM     29  C   LIG    1        1.686   1.539   0.927  0.00  0.00    +0.010 A 
ATOM     30  C   LIG    1        1.482   0.178   1.034  0.00  0.00    +0.001 A 
ATOM     31  C   LIG    1        0.290  -0.381   0.608  0.00  0.00    +0.000 A 
ATOM     32  C   LIG    1       -0.704   0.419   0.074  0.00  0.00    +0.001 A 
ATOM     33  C   LIG    1       -0.511   1.781  -0.039  0.00  0.00    +0.010 A 
ENDBRANCH  11  28
TORSDOF 3
