REMARK  Name = ZINC28570578
REMARK                            x       y       z     vdW  Elec       q    Type
REMARK                         _______ _______ _______ _____ _____    ______ ____
ROOT
ATOM      1  C   UNK    1       -0.013   1.086   0.008  0.00  0.00    +0.068 C 
ENDROOT
BRANCH   1   2
ATOM      2  S   UNK    1       -0.890   1.687  -1.462  0.00  0.00    -0.156 S 
BRANCH   2   3
ATOM      3  C   UNK    1        0.072   1.024  -2.849  0.00  0.00    +0.107 C 
BRANCH   3   9
ATOM      4  C   UNK    1       -0.167   2.643  -4.748  0.00  0.00    +0.124 A 
ATOM      5  C   UNK    1       -0.749   3.037  -5.945  0.00  0.00    +0.046 A 
ATOM      6  C   UNK    1       -1.714   2.245  -6.536  0.00  0.00    +0.004 A 
ATOM      7  C   UNK    1       -2.101   1.061  -5.936  0.00  0.00    +0.001 A 
ATOM      8  C   UNK    1       -1.519   0.664  -4.747  0.00  0.00    +0.008 A 
ATOM      9  C   UNK    1       -0.557   1.455  -4.149  0.00  0.00    +0.004 A 
BRANCH   4  11
ATOM     10  C   UNK    1        1.135   4.630  -4.839  0.00  0.00    +0.277 C 
ATOM     11  O   UNK    1        0.783   3.420  -4.165  0.00  0.00    -0.495 OA
ENDBRANCH   4  11
ENDBRANCH   3   9
ENDBRANCH   2   3
ENDBRANCH   1   2
BRANCH   1  12
ATOM     12  C   UNK    1       -0.729   1.579   1.267  0.00  0.00    +0.005 C 
BRANCH  12  13
ATOM     13  C   UNK    1        0.011   1.072   2.506  0.00  0.00    +0.036 C 
BRANCH  13  14
ATOM     14  N   UNK    1        1.349   1.676   2.559  0.00  0.00    +0.387 N 
ATOM     15  H   UNK    1        1.913   1.398   1.656  0.00  0.00    -0.089 HD
ATOM     16  H   UNK    1        1.256   2.771   2.610  0.00  0.00    -0.089 HD
ATOM     17  H   UNK    1        1.881   1.312   3.450  0.00  0.00    -0.089 HD
ENDBRANCH  13  14
BRANCH  13  18
ATOM     18  C   UNK    1       -0.761   1.454   3.743  0.00  0.00    +0.290 C 
ATOM     19  O   UNK    1       -0.423   2.414   4.394  0.00  0.00    -0.253 OA
BRANCH  18  20
ATOM     20  O   UNK    1       -1.824   0.727   4.122  0.00  0.00    -0.482 OA
ATOM     21  H   UNK    1       -2.086  -0.018   3.617  0.00  0.00    +0.295 HD
ENDBRANCH  18  20
ENDBRANCH  13  18
ENDBRANCH  12  13
ENDBRANCH   1  12
TORSDOF 9
