REMARK  Name = ZINC18119189
REMARK                            x       y       z     vdW  Elec       q    Type
REMARK                         _______ _______ _______ _____ _____    ______ ____
ROOT
ATOM      1  C   LIG    1       -1.187  -0.712   0.010  0.00  0.00    +0.101 A 
ATOM      2  C   LIG    1       -1.186  -2.094  -0.096  0.00  0.00    +0.019 A 
ATOM      3  C   LIG    1       -2.471  -2.801  -0.083  0.00  0.00    +0.019 A 
ATOM      4  C   LIG    1       -2.510  -4.206  -0.189  0.00  0.00    +0.032 A 
ATOM      5  C   LIG    1       -1.255  -4.966  -0.312  0.00  0.00    +0.194 A 
ATOM      6  C   LIG    1        0.035  -4.255  -0.324  0.00  0.00    +0.030 A 
ATOM      7  C   LIG    1        1.230  -4.967  -0.441  0.00  0.00    +0.012 A 
ATOM      8  C   LIG    1        2.433  -4.294  -0.451  0.00  0.00    +0.001 A 
ATOM      9  C   LIG    1        2.466  -2.912  -0.347  0.00  0.00    +0.001 A 
ATOM     10  C   LIG    1        1.297  -2.189  -0.232  0.00  0.00    +0.009 A 
ATOM     11  O   LIG    1       -1.284  -6.179  -0.404  0.00  0.00    -0.287 OA
ATOM     12  C   LIG    1       -3.740  -4.860  -0.175  0.00  0.00    +0.012 A 
ATOM     13  C   LIG    1       -4.909  -4.130  -0.058  0.00  0.00    +0.003 A 
ATOM     14  C   LIG    1       -4.879  -2.754   0.046  0.00  0.00    +0.026 A 
ATOM     15  C   LIG    1       -3.664  -2.073   0.035  0.00  0.00    +0.053 A 
ATOM     16  N   LIG    1       -3.632  -0.697   0.138  0.00  0.00    -0.310 N 
ATOM     17  C   LIG    1       -4.893   0.039   0.260  0.00  0.00    +0.152 C 
ATOM     18  C   LIG    1        0.069  -2.850  -0.219  0.00  0.00    -0.004 A 
ATOM     19  C   LIG    1       -2.474  -0.014   0.136  0.00  0.00    +0.273 A 
ATOM     20  O   LIG    1       -2.492   1.200   0.234  0.00  0.00    -0.266 OA
ENDROOT
BRANCH   1  22
ATOM     21  C   LIG    1        0.310   0.898  -1.110  0.00  0.00    +0.125 C 
ATOM     22  N   LIG    1        0.002  -0.004   0.002  0.00  0.00    -0.342 N 
ATOM     23  H   LIG    1        0.631  -0.105   0.733  0.00  0.00    +0.146 HD
ENDBRANCH   1  22
TORSDOF 1
