REMARK  Name = ZINC00001792
REMARK                            x       y       z     vdW  Elec       q    Type
REMARK                         _______ _______ _______ _____ _____    ______ ____
ROOT
ATOM      1  C   LIG    1       -0.017  -2.736  -2.330  0.00  0.00    +0.135 A 
ATOM      2  C   LIG    1        0.006  -2.085  -3.555  0.00  0.00    +0.046 A 
ATOM      3  C   LIG    1       -0.030  -2.816  -4.726  0.00  0.00    +0.005 A 
ATOM      4  C   LIG    1       -0.088  -4.197  -4.678  0.00  0.00    +0.022 A 
ATOM      5  C   LIG    1       -0.111  -4.849  -3.459  0.00  0.00    +0.019 A 
ATOM      6  C   LIG    1       -0.069  -4.122  -2.285  0.00  0.00    +0.068 A 
ENDROOT
BRANCH   5   7
ATOM      7  N   LIG    1       -0.171  -6.245  -3.414  0.00  0.00    -0.390 NA
ATOM      8  C   LIG    1       -1.387  -6.660  -2.701  0.00  0.00    +0.109 C 
ATOM      9  C   LIG    1        1.010  -6.763  -2.711  0.00  0.00    +0.109 C 
ATOM     10  C   LIG    1       -0.200  -6.778  -4.783  0.00  0.00    +0.109 C 
ENDBRANCH   5   7
BRANCH   1  11
ATOM     11  O   LIG    1        0.018  -2.018  -1.176  0.00  0.00    -0.411 OA
BRANCH  11  14
ATOM     12  C   LIG    1       -2.386  -0.114   0.849  0.00  0.00    +0.135 C 
ATOM     13  N   LIG    1       -1.153  -0.773   0.412  0.00  0.00    -0.273 N 
ATOM     14  C   LIG    1       -1.115  -1.412  -0.774  0.00  0.00    +0.408 C 
ATOM     15  O   LIG    1       -2.103  -1.440  -1.481  0.00  0.00    -0.226 OA
ATOM     16  C   LIG    1        0.038  -0.739   1.264  0.00  0.00    +0.135 C 
ENDBRANCH  11  14
ENDBRANCH   1  11
TORSDOF 3
