REMARK  Name = ZINC19632614
REMARK                            x       y       z     vdW  Elec       q    Type
REMARK                         _______ _______ _______ _____ _____    ______ ____
ROOT
ATOM      1  C   LIG    1        0.073  -0.628   1.437  0.00  0.00    +0.164 A 
ATOM      2  C   LIG    1        0.819   0.135   2.309  0.00  0.00    +0.078 A 
ATOM      3  C   LIG    1        1.642  -0.498   3.248  0.00  0.00    +0.080 A 
ATOM      4  C   LIG    1        1.695  -1.913   3.287  0.00  0.00    +0.044 A 
ATOM      5  C   LIG    1        2.536  -2.523   4.248  0.00  0.00    +0.134 A 
ATOM      6  N   LIG    1        3.231  -1.740   5.062  0.00  0.00    -0.220 NA
ATOM      7  C   LIG    1        3.149  -0.421   4.989  0.00  0.00    +0.223 A 
ATOM      8  C   LIG    1        0.928  -2.665   2.390  0.00  0.00    +0.062 A 
ATOM      9  N   LIG    1        2.388   0.200   4.120  0.00  0.00    -0.235 NA
ATOM     10  C   LIG    1        0.127  -2.028   1.486  0.00  0.00    +0.163 A 
ENDROOT
BRANCH   1  12
ATOM     11  C   LIG    1       -0.737   1.412   0.525  0.00  0.00    +0.277 C 
ATOM     12  O   LIG    1       -0.726  -0.017   0.525  0.00  0.00    -0.491 OA
ENDBRANCH   1  12
BRANCH   5  13
ATOM     13  N   LIG    1        2.631  -3.898   4.336  0.00  0.00    -0.299 N 
ATOM     14  H   LIG    1        2.183  -4.457   3.682  0.00  0.00    +0.154 HD
BRANCH  13  15
ATOM     15  C   LIG    1        3.371  -4.483   5.368  0.00  0.00    +0.034 A 
ATOM     16  C   LIG    1        3.404  -3.890   6.624  0.00  0.00    +0.026 A 
ATOM     17  C   LIG    1        4.135  -4.470   7.642  0.00  0.00    +0.041 A 
ATOM     18  C   LIG    1        4.836  -5.642   7.412  0.00  0.00    +0.142 A 
ATOM     19  F   LIG    1        5.551  -6.207   8.410  0.00  0.00    -0.204 F 
ATOM     20  C   LIG    1        4.805  -6.235   6.161  0.00  0.00    +0.078 A 
ATOM     21 CL   LIG    1        5.685  -7.705   5.876  0.00  0.00    -0.081 Cl
ATOM     22  C   LIG    1        4.070  -5.661   5.141  0.00  0.00    +0.046 A 
ENDBRANCH  13  15
ENDBRANCH   5  13
BRANCH  10  23
ATOM     23  O   LIG    1       -0.623  -2.760   0.619  0.00  0.00    -0.488 OA
BRANCH  23  24
ATOM     24  C   LIG    1       -0.525  -4.182   0.717  0.00  0.00    +0.230 C 
BRANCH  24  25
ATOM     25  C   LIG    1       -1.433  -4.829  -0.331  0.00  0.00    +0.056 C 
BRANCH  25  26
ATOM     26  C   LIG    1       -1.329  -6.352  -0.225  0.00  0.00    +0.088 C 
BRANCH  26  27
ATOM     27  N   LIG    1       -2.201  -6.973  -1.231  0.00  0.00    -0.298 NA
ATOM     28  C   LIG    1       -3.616  -6.705  -0.939  0.00  0.00    +0.112 C 
ATOM     29  C   LIG    1       -4.484  -7.318  -2.042  0.00  0.00    +0.175 C 
ATOM     30  O   LIG    1       -4.207  -8.718  -2.137  0.00  0.00    -0.377 OA
ATOM     31  C   LIG    1       -2.837  -9.015  -2.421  0.00  0.00    +0.175 C 
ATOM     32  C   LIG    1       -1.952  -8.419  -1.322  0.00  0.00    +0.112 C 
ENDBRANCH  26  27
ENDBRANCH  25  26
ENDBRANCH  24  25
ENDBRANCH  23  24
ENDBRANCH  10  23
TORSDOF 8
