REMARK  Name = ZINC13760073
REMARK                            x       y       z     vdW  Elec       q    Type
REMARK                         _______ _______ _______ _____ _____    ______ ____
ROOT
ATOM      1  C   UNK A  0       -5.564  -5.330   3.344  0.00  0.00    -0.027 C 
ATOM      2  C   UNK A  0       -6.660  -5.592   4.013  0.00  0.00    -0.031 C 
ENDROOT
BRANCH   1   3
ATOM      3  C   UNK A  0       -4.341  -4.830   4.068  0.00  0.00    +0.053 C 
BRANCH   3   5
ATOM      4  C   UNK A  0       -2.056  -5.174   3.279  0.00  0.00    -0.027 C 
ATOM      5  C   UNK A  0       -3.163  -5.708   3.732  0.00  0.00    -0.027 C 
BRANCH   4   6
ATOM      6  C   UNK A  0       -1.895  -3.675   3.260  0.00  0.00    +0.053 C 
BRANCH   6   8
ATOM      7  C   UNK A  0        0.266  -2.543   3.365  0.00  0.00    -0.027 C 
ATOM      8  C   UNK A  0       -0.619  -3.299   3.968  0.00  0.00    -0.027 C 
BRANCH   7   9
ATOM      9  C   UNK A  0       -0.060  -1.917   2.034  0.00  0.00    +0.053 C 
BRANCH   9  11
ATOM     10  C   UNK A  0        0.980   0.133   1.210  0.00  0.00    -0.031 C 
ATOM     11  C   UNK A  0        0.203  -0.434   2.099  0.00  0.00    -0.027 C 
BRANCH  10  12
ATOM     12  C   UNK A  0        1.479  -0.661   0.030  0.00  0.00    +0.027 C 
BRANCH  12  13
ATOM     13  C   UNK A  0        1.164   0.095  -1.263  0.00  0.00    +0.004 C 
BRANCH  13  14
ATOM     14  C   UNK A  0        1.670  -0.711  -2.461  0.00  0.00    +0.000 C 
BRANCH  14  16
ATOM     15  C   UNK A  0        1.862  -0.760  -4.952  0.00  0.00    +0.004 C 
ATOM     16  C   UNK A  0        1.356   0.045  -3.753  0.00  0.00    -0.003 C 
ENDBRANCH  14  16
ENDBRANCH  13  14
ENDBRANCH  12  13
ENDBRANCH  10  12
ENDBRANCH   9  11
ENDBRANCH   7   9
ENDBRANCH   6   8
ENDBRANCH   4   6
ENDBRANCH   3   5
ENDBRANCH   1   3
BRANCH   2  17
ATOM     17  C   UNK A  0       -6.753  -5.239   5.475  0.00  0.00    +0.027 C 
BRANCH  17  18
ATOM     18  C   UNK A  0       -8.017  -4.413   5.721  0.00  0.00    +0.013 C 
BRANCH  18  19
ATOM     19  C   UNK A  0       -8.111  -4.055   7.205  0.00  0.00    +0.096 C 
BRANCH  19  20
ATOM     20  C   UNK A  0       -9.356  -3.241   7.447  0.00  0.00    +0.213 C 
ATOM     21  N   SER A  1       -9.648  -2.811   8.691  0.00  0.00    -0.308 N 
ATOM     22  H   SER A  1       -9.057  -3.024   9.429  0.00  0.00    +0.149 HD
ATOM     23  O   UNK A  0      -10.095  -2.974   6.524  0.00  0.00    -0.276 OA
BRANCH  21  24
ATOM     24  CA  SER A  1      -10.859  -2.019   8.926  0.00  0.00    +0.124 C 
BRANCH  24  25
ATOM     25  C   SER A  1      -10.669  -1.157  10.176  0.00  0.00    +0.180 C 
BRANCH  25  26
ATOM     26  O   SER A  1      -10.540  -2.001  11.322  0.00  0.00    -0.393 OA
ATOM     27  H   SER A  1      -10.417  -1.521  12.152  0.00  0.00    +0.209 HD
ENDBRANCH  25  26
ENDBRANCH  24  25
BRANCH  24  28
ATOM     28  CB  SER A  1      -12.050  -2.958   9.130  0.00  0.00    +0.180 C 
BRANCH  28  29
ATOM     29  OG  SER A  1      -11.857  -3.719  10.324  0.00  0.00    -0.393 OA
ATOM     30  H   SER A  1      -12.576  -4.337  10.517  0.00  0.00    +0.209 HD
ENDBRANCH  28  29
ENDBRANCH  24  28
ENDBRANCH  21  24
ENDBRANCH  19  20
ENDBRANCH  18  19
ENDBRANCH  17  18
ENDBRANCH   2  17
TORSDOF 19
