REMARK  Name = ZINC28465228
REMARK                            x       y       z     vdW  Elec       q    Type
REMARK                         _______ _______ _______ _____ _____    ______ ____
ROOT
ATOM      1  N   LIG    1       -1.251  -0.733  -0.165  0.00  0.00    -0.323 N 
ATOM      2  C   LIG    1       -1.883  -0.395  -1.449  0.00  0.00    +0.129 C 
ATOM      3  C   LIG    1       -3.231  -1.100  -1.659  0.00  0.00    +0.163 C 
ATOM      4  N   LIG    1       -3.014  -2.539  -1.460  0.00  0.00    -0.258 N 
ATOM      5  C   LIG    1       -1.965  -2.934  -0.676  0.00  0.00    +0.109 A 
ATOM      6  C   LIG    1       -1.919  -4.330  -0.629  0.00  0.00    +0.118 A 
ATOM      7  C   LIG    1       -3.043  -4.764  -1.442  0.00  0.00    +0.120 A 
ATOM      8  N   LIG    1       -0.953  -4.918   0.080  0.00  0.00    -0.248 NA
ATOM      9  C   LIG    1       -0.075  -4.149   0.710  0.00  0.00    +0.041 A 
ATOM     10  C   LIG    1        1.009  -4.833   1.502  0.00  0.00    +0.065 C 
ATOM     11  C   LIG    1       -0.080  -2.758   0.694  0.00  0.00    +0.048 A 
ATOM     12  N   LIG    1       -3.657  -3.681  -1.908  0.00  0.00    -0.168 NA
ATOM     13  C   LIG    1       -1.056  -2.091  -0.019  0.00  0.00    +0.059 A 
ENDROOT
BRANCH   7  14
ATOM     14  C   LIG    1       -3.434  -6.169  -1.707  0.00  0.00    +0.023 A 
ATOM     15  C   LIG    1       -2.696  -7.217  -1.159  0.00  0.00    +0.013 A 
ATOM     16  C   LIG    1       -3.067  -8.523  -1.406  0.00  0.00    +0.021 A 
ATOM     17  C   LIG    1       -4.166  -8.794  -2.204  0.00  0.00    +0.042 A 
ATOM     18 CL   LIG    1       -4.623 -10.440  -2.514  0.00  0.00    -0.083 Cl
ATOM     19  C   LIG    1       -4.901  -7.759  -2.754  0.00  0.00    +0.040 A 
ATOM     20  C   LIG    1       -4.540  -6.448  -2.510  0.00  0.00    +0.052 A 
ATOM     21 CL   LIG    1       -5.462  -5.149  -3.203  0.00  0.00    -0.083 Cl
ENDBRANCH   7  14
BRANCH   1  22
ATOM     22  C   LIG    1        0.009   0.001   0.012  0.00  0.00    +0.074 C 
BRANCH  22  23
ATOM     23  C   LIG    1       -0.294   1.477   0.280  0.00  0.00    +0.022 C 
BRANCH  23  25
ATOM     24  C   LIG    1       -1.335   3.087   1.882  0.00  0.00    +0.004 C 
ATOM     25  C   LIG    1       -1.032   1.611   1.614  0.00  0.00    -0.002 C 
ENDBRANCH  23  25
ENDBRANCH  22  23
BRANCH  22  26
ATOM     26  C   LIG    1        0.854  -0.123  -1.257  0.00  0.00    +0.022 C 
BRANCH  26  27
ATOM     27  C   LIG    1        1.166  -1.598  -1.520  0.00  0.00    -0.002 C 
ATOM     28  C   LIG    1        2.123  -1.713  -2.709  0.00  0.00    +0.004 C 
ENDBRANCH  26  27
ENDBRANCH  22  26
ENDBRANCH   1  22
TORSDOF 6
