REMARK  Name = ZINC36378506
REMARK                            x       y       z     vdW  Elec       q    Type
REMARK                         _______ _______ _______ _____ _____    ______ ____
ROOT
ATOM      1  C   LIG    1        1.119  -1.884  -1.847  0.00  0.00    -0.022 A 
ATOM      2  C   LIG    1        0.523  -1.844  -3.093  0.00  0.00    +0.007 A 
ATOM      3  C   LIG    1        1.145  -2.429  -4.179  0.00  0.00    +0.023 A 
ATOM      4  C   LIG    1        2.373  -3.061  -4.020  0.00  0.00    +0.031 A 
ATOM      5  C   LIG    1        2.973  -3.102  -2.769  0.00  0.00    +0.068 A 
ATOM      6  C   LIG    1        2.349  -2.508  -1.684  0.00  0.00    +0.120 A 
ENDROOT
BRANCH   4   7
ATOM      7  N   LIG    1        3.001  -3.653  -5.118  0.00  0.00    -0.341 N 
ATOM      8  H   LIG    1        2.991  -3.210  -5.981  0.00  0.00    +0.146 HD
BRANCH   7   9
ATOM      9  C   LIG    1        3.640  -4.877  -4.975  0.00  0.00    +0.076 C 
ATOM     10  C   LIG    1        3.531  -5.606  -3.801  0.00  0.00    +0.037 C 
ATOM     11  C   LIG    1        4.181  -6.827  -3.688  0.00  0.00    +0.083 C 
ATOM     12  N   LIG    1        4.904  -7.321  -4.667  0.00  0.00    -0.313 NA
ATOM     13  H   LIG    1        5.342  -8.178  -4.546  0.00  0.00    +0.122 HD
ATOM     14  C   LIG    1        5.053  -6.671  -5.827  0.00  0.00    +0.060 C 
ATOM     15  C   LIG    1        5.831  -7.212  -6.864  0.00  0.00    +0.038 C 
ATOM     16  C   LIG    1        5.952  -6.537  -8.042  0.00  0.00    +0.082 C 
ATOM     17 CL   LIG    1        6.909  -7.215  -9.322  0.00  0.00    -0.122 Cl
ATOM     18  C   LIG    1        5.329  -5.304  -8.230  0.00  0.00    +0.020 C 
ATOM     19  C   LIG    1        4.572  -4.747  -7.243  0.00  0.00    +0.008 C 
ATOM     20  C   LIG    1        4.417  -5.421  -6.024  0.00  0.00    +0.026 C 
ENDBRANCH   7   9
ENDBRANCH   4   7
BRANCH   6  21
ATOM     21  O   LIG    1        2.937  -2.541  -0.459  0.00  0.00    -0.507 OA
ATOM     22  H   LIG    1        2.697  -3.313   0.071  0.00  0.00    +0.292 HD
ENDBRANCH   6  21
BRANCH   1  23
ATOM     23  C   LIG    1        0.438  -1.245  -0.665  0.00  0.00    -0.039 C 
BRANCH  23  24
ATOM     24  N   LIG    1        1.115   0.016  -0.332  0.00  0.00    +0.382 N 
ATOM     25  H   LIG    1        2.087  -0.168  -0.130  0.00  0.00    -0.081 HD
BRANCH  24  27
ATOM     26  C   LIG    1        1.828   2.203  -1.172  0.00  0.00    -0.017 C 
ATOM     27  C   LIG    1        1.017   0.940  -1.470  0.00  0.00    -0.082 C 
ENDBRANCH  24  27
BRANCH  24  28
ATOM     28  C   LIG    1        0.476   0.619   0.845  0.00  0.00    -0.082 C 
ATOM     29  C   LIG    1        0.739  -0.256   2.072  0.00  0.00    -0.017 C 
ENDBRANCH  24  28
ENDBRANCH  23  24
ENDBRANCH   1  23
TORSDOF 7
