REMARK  Name = ZINC22463345
REMARK                            x       y       z     vdW  Elec       q    Type
REMARK                         _______ _______ _______ _____ _____    ______ ____
ROOT
ATOM      1  C   LIG    1       -1.066  -4.871  -3.075  0.00  0.00    +0.048 C 
ATOM      2  C   LIG    1        0.240  -4.568  -2.305  0.00  0.00    +0.002 C 
ATOM      3  C   LIG    1       -0.290  -4.113  -0.928  0.00  0.00    -0.036 C 
ATOM      4  C   LIG    1       -1.637  -4.787  -0.776  0.00  0.00    -0.057 A 
ATOM      5  C   LIG    1       -2.410  -5.002   0.351  0.00  0.00    +0.014 A 
ATOM      6  C   LIG    1       -3.626  -5.650   0.247  0.00  0.00    +0.055 A 
ATOM      7  C   LIG    1       -4.072  -6.086  -0.987  0.00  0.00    +0.012 A 
ATOM      8  C   LIG    1       -3.301  -5.872  -2.113  0.00  0.00    +0.005 A 
ATOM      9  C   LIG    1       -2.083  -5.223  -2.010  0.00  0.00    -0.038 A 
ENDROOT
BRANCH   1  16
ATOM     10  C   LIG    1       -0.432  -7.252  -3.514  0.00  0.00    +0.007 A 
ATOM     11  C   LIG    1       -0.251  -8.322  -4.369  0.00  0.00    +0.038 A 
ATOM     12  C   LIG    1       -0.490  -8.173  -5.725  0.00  0.00    +0.123 A 
ATOM     13  F   LIG    1       -0.307  -9.217  -6.563  0.00  0.00    -0.205 F 
ATOM     14  C   LIG    1       -0.917  -6.952  -6.221  0.00  0.00    +0.038 A 
ATOM     15  C   LIG    1       -1.103  -5.885  -5.363  0.00  0.00    +0.007 A 
ATOM     16  C   LIG    1       -0.863  -6.035  -4.010  0.00  0.00    -0.040 A 
ENDBRANCH   1  16
BRANCH   3  17
ATOM     17  N   LIG    1       -0.445  -2.653  -0.899  0.00  0.00    +0.386 N 
ATOM     18  H   LIG    1       -1.036  -2.359  -1.779  0.00  0.00    -0.081 HD
ATOM     19  C   LIG    1       -1.175  -2.224   0.302  0.00  0.00    -0.062 C 
ATOM     20  C   LIG    1       -1.384  -0.709   0.255  0.00  0.00    +0.066 C 
ATOM     21  N   LIG    1       -0.079  -0.039   0.170  0.00  0.00    -0.304 NA
ATOM     22  C   LIG    1        0.651  -0.468  -1.032  0.00  0.00    +0.066 C 
ATOM     23  C   LIG    1        0.861  -1.983  -0.985  0.00  0.00    -0.062 C 
BRANCH  21  24
ATOM     24  C   LIG    1       -0.234   1.421   0.199  0.00  0.00    +0.112 C 
BRANCH  24  25
ATOM     25  C   LIG    1       -0.543   1.873   1.627  0.00  0.00    +0.171 C 
BRANCH  25  26
ATOM     26  O   LIG    1        0.572   1.580   2.471  0.00  0.00    -0.394 OA
ATOM     27  H   LIG    1        0.534   1.834   3.541  0.00  0.00    +0.209 HD
ENDBRANCH  25  26
ENDBRANCH  24  25
ENDBRANCH  21  24
ENDBRANCH   3  17
BRANCH   6  28
ATOM     28  C   LIG    1       -4.465  -5.883   1.477  0.00  0.00    +0.417 C 
ATOM     29  F   LIG    1       -4.787  -4.653   2.061  0.00  0.00    -0.166 F 
ATOM     30  F   LIG    1       -3.746  -6.659   2.392  0.00  0.00    -0.166 F 
ATOM     31  F   LIG    1       -5.640  -6.552   1.120  0.00  0.00    -0.166 F 
ENDBRANCH   6  28
TORSDOF 6
