REMARK  Name = ZINC24632618
REMARK                            x       y       z     vdW  Elec       q    Type
REMARK                         _______ _______ _______ _____ _____    ______ ____
ROOT
ATOM      1  C   LIG    1        0.430  -0.556  -0.939  0.00  0.00    +0.149 A 
ATOM      2  O   LIG    1       -0.296  -1.323  -1.767  0.00  0.00    -0.355 OA
ATOM      3  N   LIG    1        0.508  -1.637  -2.890  0.00  0.00    -0.040 NA
ATOM      4  C   LIG    1        1.675  -1.074  -2.718  0.00  0.00    +0.256 A 
ATOM      5  C   LIG    1        1.647  -0.384  -1.486  0.00  0.00    +0.057 A 
ENDROOT
BRANCH   1   7
ATOM      6  C   LIG    1        0.187   1.523   0.391  0.00  0.00    +0.019 C 
ATOM      7  C   LIG    1       -0.035   0.009   0.378  0.00  0.00    +0.023 C 
ATOM      8  C   LIG    1       -1.524  -0.289   0.564  0.00  0.00    +0.019 C 
ATOM      9  C   LIG    1        0.759  -0.632   1.517  0.00  0.00    +0.019 C 
ENDBRANCH   1   7
BRANCH   4  10
ATOM     10  O   LIG    1        2.728  -1.141  -3.571  0.00  0.00    -0.490 OA
ATOM     11  H   LIG    1        3.530  -0.703  -3.362  0.00  0.00    +0.294 HD
ENDBRANCH   4  10
BRANCH   5  12
ATOM     12  C   LIG    1        2.781   0.409  -0.889  0.00  0.00    +0.039 C 
BRANCH  12  13
ATOM     13  CA  LIG    1        2.779   1.823  -1.474  0.00  0.00    +0.040 C 
BRANCH  13  14
ATOM     14  N   LIG    1        3.083   1.759  -2.910  0.00  0.00    +0.387 N 
ATOM     15  H1  LIG    1        2.334   1.285  -3.392  0.00  0.00    -0.089 HD
ATOM     16  H2  LIG    1        3.946   1.254  -3.049  0.00  0.00    -0.089 HD
ATOM     17  H3  LIG    1        3.179   2.695  -3.275  0.00  0.00    -0.089 HD
ENDBRANCH  13  14
BRANCH  13  18
ATOM     18  C   LIG    1        3.822   2.657  -0.776  0.00  0.00    +0.290 C 
ATOM     19  O   LIG    1        4.960   2.699  -1.211  0.00  0.00    -0.253 OA
BRANCH  18  20
ATOM     20  OXT LIG    1        3.527   3.289   0.224  0.00  0.00    -0.482 OA
ATOM     21  HXT LIG    1        2.652   3.257   0.558  0.00  0.00    +0.295 HD
ENDBRANCH  18  20
ENDBRANCH  13  18
ENDBRANCH  12  13
ENDBRANCH   5  12
TORSDOF 7
