REMARK  Name = ZINC28822568
REMARK                            x       y       z     vdW  Elec       q    Type
REMARK                         _______ _______ _______ _____ _____    ______ ____
ROOT
ATOM      1  C   LIG    1        3.309   2.534   0.959  0.00  0.00    +0.162 A 
ATOM      2  C   LIG    1        2.316   1.612   0.694  0.00  0.00    +0.057 A 
ATOM      3  C   LIG    1        1.047   2.051   0.296  0.00  0.00    -0.020 A 
ATOM      4  C   LIG    1        0.790   3.422   0.180  0.00  0.00    +0.012 A 
ATOM      5  C   LIG    1        1.786   4.334   0.452  0.00  0.00    +0.050 A 
ATOM      6  C   LIG    1        3.045   3.898   0.841  0.00  0.00    +0.163 A 
ENDROOT
BRANCH   3   7
ATOM      7  C   LIG    1       -0.013   1.076   0.008  0.00  0.00    +0.028 C 
ATOM      8  C   LIG    1        0.281  -0.248  -0.052  0.00  0.00    +0.080 C 
ATOM      9  C   LIG    1       -0.625  -1.410  -0.148  0.00  0.00    +0.261 C 
ATOM     10  N   LIG    1       -0.056  -2.603  -0.192  0.00  0.00    -0.218 N 
ATOM     11  C   LIG    1        1.284  -2.746  -0.150  0.00  0.00    +0.286 C 
ATOM     12  O   LIG    1        1.935  -3.773  -0.180  0.00  0.00    -0.262 OA
ATOM     13  O   LIG    1       -1.834  -1.276  -0.185  0.00  0.00    -0.269 OA
ATOM     14  S   LIG    1        1.872  -1.063  -0.045  0.00  0.00    -0.026 S 
BRANCH  10  15
ATOM     15  C   LIG    1       -0.901  -3.796  -0.287  0.00  0.00    +0.237 C 
BRANCH  15  16
ATOM     16  C   LIG    1       -1.139  -4.128  -1.738  0.00  0.00    +0.323 C 
ATOM     17  O   LIG    1       -0.652  -3.439  -2.603  0.00  0.00    -0.249 OA
BRANCH  16  18
ATOM     18  O   LIG    1       -1.891  -5.189  -2.068  0.00  0.00    -0.480 OA
ATOM     19  H   LIG    1       -2.268  -5.724  -1.397  0.00  0.00    +0.295 HD
ENDBRANCH  16  18
ENDBRANCH  15  16
ENDBRANCH  10  15
ENDBRANCH   3   7
BRANCH   1  21
ATOM     20  C   LIG    1        4.745   0.700   1.442  0.00  0.00    +0.277 C 
ATOM     21  O   LIG    1        4.544   2.111   1.341  0.00  0.00    -0.491 OA
ENDBRANCH   1  21
BRANCH   6  22
ATOM     22  O   LIG    1        4.023   4.802   1.108  0.00  0.00    -0.477 OA
BRANCH  22  23
ATOM     23  C   LIG    1        3.684   6.184   0.968  0.00  0.00    +0.349 C 
BRANCH  23  24
ATOM     24  C   LIG    1        4.885   7.031   1.303  0.00  0.00    +0.343 C 
ATOM     25  O   LIG    1        5.923   6.506   1.629  0.00  0.00    -0.247 OA
BRANCH  24  26
ATOM     26  O   LIG    1        4.800   8.370   1.240  0.00  0.00    -0.478 OA
ATOM     27  H   LIG    1        3.994   8.776   0.987  0.00  0.00    +0.295 HD
ENDBRANCH  24  26
ENDBRANCH  23  24
ENDBRANCH  22  23
ENDBRANCH   6  22
TORSDOF 9
