REMARK  Name = ZINC33359324
REMARK                            x       y       z     vdW  Elec       q    Type
REMARK                         _______ _______ _______ _____ _____    ______ ____
ROOT
ATOM      1  C   LIG    1        4.420   0.955  -3.552  0.00  0.00    +0.249 C 
ATOM      2  N   LIG    1        3.777   2.121  -3.342  0.00  0.00    -0.281 N 
ATOM      3  H   LIG    1        3.472   2.405  -2.324  0.00  0.00    +0.155 HD
ATOM      4  O   LIG    1        4.671   0.596  -4.686  0.00  0.00    -0.270 OA
ENDROOT
BRANCH   2   5
ATOM      5  C   LIG    1        3.498   2.970  -4.418  0.00  0.00    +0.034 A 
ATOM      6  C   LIG    1        2.343   3.741  -4.415  0.00  0.00    +0.023 A 
ATOM      7  C   LIG    1        2.072   4.577  -5.478  0.00  0.00    +0.006 A 
ATOM      8  C   LIG    1        2.947   4.650  -6.550  0.00  0.00    -0.043 A 
ATOM      9  C   LIG    1        4.097   3.883  -6.557  0.00  0.00    -0.041 A 
ATOM     10  C   LIG    1        4.878   4.141  -7.828  0.00  0.00    +0.054 C 
ATOM     11  C   LIG    1        4.311   5.463  -8.389  0.00  0.00    +0.063 C 
ATOM     12  C   LIG    1        2.877   5.476  -7.817  0.00  0.00    +0.054 C 
ATOM     13  C   LIG    1        4.375   3.047  -5.489  0.00  0.00    +0.027 A 
BRANCH  11  14
ATOM     14  N   LIG    1        4.287   5.439  -9.857  0.00  0.00    -0.307 NA
ATOM     15  H   LIG    1        5.159   4.880 -10.229  0.00  0.00    +0.123 HD
BRANCH  14  16
ATOM     16  C   LIG    1        4.332   6.801 -10.406  0.00  0.00    +0.144 C 
BRANCH  16  17
ATOM     17  C   LIG    1        4.306   6.736 -11.912  0.00  0.00    +0.092 A 
ATOM     18  N   LIG    1        3.271   6.741 -12.720  0.00  0.00    -0.248 NA
ATOM     19  C   LIG    1        3.420   6.678 -14.027  0.00  0.00    +0.046 A 
ATOM     20  C   LIG    1        2.222   6.685 -14.941  0.00  0.00    +0.066 C 
ATOM     21  C   LIG    1        4.679   6.608 -14.530  0.00  0.00    +0.070 A 
ATOM     22  S   LIG    1        5.638   6.645 -13.023  0.00  0.00    -0.079 S 
ENDBRANCH  16  17
ENDBRANCH  14  16
ENDBRANCH  11  14
ENDBRANCH   2   5
BRANCH   1  28
ATOM     23  C   LIG    1        6.570  -3.196  -1.751  0.00  0.00    +0.044 C 
ATOM     24  C   LIG    1        5.855  -1.887  -1.531  0.00  0.00    -0.042 A 
ATOM     25  C   LIG    1        5.569  -1.464  -0.248  0.00  0.00    +0.004 A 
ATOM     26  C   LIG    1        4.908  -0.266  -0.036  0.00  0.00    +0.001 A 
ATOM     27  C   LIG    1        4.533   0.523  -1.103  0.00  0.00    +0.014 A 
ATOM     28  C   LIG    1        4.819   0.115  -2.406  0.00  0.00    +0.045 A 
ATOM     29  C   LIG    1        5.490  -1.103  -2.621  0.00  0.00    -0.003 A 
BRANCH  29  30
ATOM     30  C   LIG    1        5.800  -1.550  -3.999  0.00  0.00    -0.017 A 
ATOM     31  C   LIG    1        7.125  -1.661  -4.417  0.00  0.00    +0.009 A 
ATOM     32  C   LIG    1        7.408  -2.073  -5.703  0.00  0.00    +0.013 A 
ATOM     33  C   LIG    1        6.380  -2.385  -6.574  0.00  0.00    +0.055 A 
ATOM     34  C   LIG    1        5.062  -2.276  -6.165  0.00  0.00    +0.013 A 
ATOM     35  C   LIG    1        4.767  -1.861  -4.883  0.00  0.00    +0.009 A 
BRANCH  33  36
ATOM     36  C   LIG    1        6.695  -2.840  -7.976  0.00  0.00    +0.417 C 
ATOM     37  F   LIG    1        5.688  -3.701  -8.425  0.00  0.00    -0.166 F 
ATOM     38  F   LIG    1        7.922  -3.512  -7.983  0.00  0.00    -0.166 F 
ATOM     39  F   LIG    1        6.768  -1.728  -8.822  0.00  0.00    -0.166 F 
ENDBRANCH  33  36
ENDBRANCH  29  30
ENDBRANCH   1  28
TORSDOF 7
