REMARK  Name = ZINC49036660
REMARK                            x       y       z     vdW  Elec       q    Type
REMARK                         _______ _______ _______ _____ _____    ______ ____
ROOT
ATOM      1  N   LIG    1        2.502  -3.743  -4.366  0.00  0.00    -0.175 NA
ATOM      2  C   LIG    1        3.088  -4.328  -5.393  0.00  0.00    +0.172 C 
ATOM      3  C   LIG    1        3.231  -5.778  -5.643  0.00  0.00    +0.121 C 
ATOM      4  N   LIG    1        3.874  -5.917  -6.771  0.00  0.00    -0.177 NA
ATOM      5  N   LIG    1        4.191  -4.679  -7.329  0.00  0.00    -0.201 N 
ATOM      6  H   LIG    1        4.667  -4.553  -8.165  0.00  0.00    +0.178 HD
ATOM      7  C   LIG    1        3.737  -3.681  -6.545  0.00  0.00    +0.285 C 
ATOM      8  O   LIG    1        3.844  -2.484  -6.747  0.00  0.00    -0.267 OA
ENDROOT
BRANCH   3   9
ATOM      9  C   LIG    1        2.738  -6.871  -4.773  0.00  0.00    +0.008 A 
ATOM     10  C   LIG    1        2.059  -6.572  -3.592  0.00  0.00    +0.014 A 
ATOM     11  C   LIG    1        1.599  -7.591  -2.784  0.00  0.00    +0.050 A 
ATOM     12  C   LIG    1        1.811  -8.914  -3.142  0.00  0.00    +0.162 A 
ATOM     13  C   LIG    1        2.488  -9.219  -4.320  0.00  0.00    +0.162 A 
ATOM     14  C   LIG    1        2.946  -8.201  -5.138  0.00  0.00    +0.059 A 
BRANCH  12  15
ATOM     15  O   LIG    1        1.357  -9.915  -2.342  0.00  0.00    -0.491 OA
ATOM     16  C   LIG    1        0.671  -9.531  -1.149  0.00  0.00    +0.277 C 
ENDBRANCH  12  15
BRANCH  13  17
ATOM     17  O   LIG    1        2.695 -10.517  -4.670  0.00  0.00    -0.491 OA
ATOM     18  C   LIG    1        3.397 -10.756  -5.891  0.00  0.00    +0.277 C 
ENDBRANCH  13  17
ENDBRANCH   3   9
BRANCH   1  19
ATOM     19  N   LIG    1        2.456  -2.455  -4.297  0.00  0.00    -0.237 N 
ATOM     20  H   LIG    1        2.852  -1.918  -5.001  0.00  0.00    +0.174 HD
BRANCH  19  24
ATOM     21  C   LIG    1        0.606  -0.607  -1.056  0.00  0.00    +0.120 A 
ATOM     22  C   LIG    1        1.173   0.163  -2.062  0.00  0.00    +0.047 A 
ATOM     23  C   LIG    1        1.786  -0.449  -3.137  0.00  0.00    +0.028 A 
ATOM     24  C   LIG    1        1.836  -1.836  -3.211  0.00  0.00    +0.049 A 
ATOM     25  C   LIG    1        1.269  -2.606  -2.202  0.00  0.00    +0.028 A 
ATOM     26  C   LIG    1        0.660  -1.992  -1.126  0.00  0.00    +0.047 A 
BRANCH  21  28
ATOM     27  C   LIG    1       -0.017   1.425   0.010  0.00  0.00    +0.277 C 
ATOM     28  O   LIG    1        0.002  -0.004   0.002  0.00  0.00    -0.495 OA
ENDBRANCH  21  28
ENDBRANCH  19  24
ENDBRANCH   1  19
TORSDOF 6
