REMARK  Name = ZINC28563821
REMARK                            x       y       z     vdW  Elec       q    Type
REMARK                         _______ _______ _______ _____ _____    ______ ____
ROOT
ATOM      1  C   LIG    1       -0.813  -8.075   1.833  0.00  0.00    +0.139 A 
ATOM      2  N   LIG    1       -0.507  -8.720   2.997  0.00  0.00    -0.337 N 
ATOM      3  C   LIG    1       -0.568 -10.070   2.741  0.00  0.00    +0.074 A 
ATOM      4  C   LIG    1       -0.907 -10.200   1.403  0.00  0.00    +0.097 A 
ATOM      5  H   LIG    1       -0.291  -8.303   3.846  0.00  0.00    +0.167 HD
ATOM      6  N   LIG    1       -1.045  -8.965   0.895  0.00  0.00    -0.227 NA
ENDROOT
BRANCH   3   7
ATOM      7  C   LIG    1       -0.317 -11.163   3.699  0.00  0.00    +0.001 A 
ATOM      8  C   LIG    1       -1.177 -12.266   3.745  0.00  0.00    +0.010 A 
ATOM      9  C   LIG    1       -0.943 -13.275   4.632  0.00  0.00    +0.011 A 
ATOM     10  C   LIG    1        0.159 -13.213   5.501  0.00  0.00    +0.003 A 
ATOM     11  C   LIG    1        1.014 -12.113   5.453  0.00  0.00    -0.037 A 
ATOM     12  C   LIG    1        2.112 -12.279   6.476  0.00  0.00    +0.042 C 
ATOM     13  C   LIG    1        1.849 -13.617   7.179  0.00  0.00    +0.064 C 
ATOM     14  C   LIG    1        0.605 -14.172   6.530  0.00  0.00    +0.088 C 
ATOM     15  N   LIG    1        0.029 -15.294   6.824  0.00  0.00    -0.092 NA
ATOM     16  C   LIG    1        0.783 -11.102   4.559  0.00  0.00    +0.014 A 
BRANCH  15  17
ATOM     17  O   LIG    1       -1.139 -15.693   6.131  0.00  0.00    -0.409 OA
ATOM     18  H   LIG    1       -1.496 -16.544   6.420  0.00  0.00    +0.328 HD
ENDBRANCH  15  17
ENDBRANCH   3   7
BRANCH   1  22
ATOM     19  C   LIG    1       -0.971  -3.860   1.321  0.00  0.00    +0.120 A 
ATOM     20  C   LIG    1       -1.238  -4.699   0.247  0.00  0.00    +0.046 A 
ATOM     21  C   LIG    1       -1.187  -6.066   0.409  0.00  0.00    +0.015 A 
ATOM     22  C   LIG    1       -0.867  -6.609   1.655  0.00  0.00    +0.018 A 
ATOM     23  C   LIG    1       -0.600  -5.762   2.733  0.00  0.00    +0.015 A 
ATOM     24  C   LIG    1       -0.647  -4.396   2.561  0.00  0.00    +0.046 A 
BRANCH  19  25
ATOM     25  O   LIG    1       -1.022  -2.513   1.158  0.00  0.00    -0.494 OA
BRANCH  25  26
ATOM     26  C   LIG    1       -1.362  -2.030  -0.143  0.00  0.00    +0.210 C 
BRANCH  26  27
ATOM     27  C   LIG    1       -1.369  -0.500  -0.133  0.00  0.00    -0.038 C 
BRANCH  27  29
ATOM     28  C   LIG    1        0.866  -0.358  -0.993  0.00  0.00    -0.096 C 
ATOM     29  N   LIG    1       -0.012  -0.005   0.131  0.00  0.00    +0.378 N 
ATOM     30  H   LIG    1        0.340  -0.426   0.978  0.00  0.00    -0.082 HD
ATOM     31  C   LIG    1       -0.044   1.455   0.287  0.00  0.00    -0.096 C 
ENDBRANCH  27  29
ENDBRANCH  26  27
ENDBRANCH  25  26
ENDBRANCH  19  25
ENDBRANCH   1  22
BRANCH   4  32
ATOM     32  C   LIG    1       -1.086 -11.472   0.667  0.00  0.00    +0.005 A 
ATOM     33  C   LIG    1       -0.298 -12.590   0.962  0.00  0.00    +0.030 A 
ATOM     34  C   LIG    1       -0.498 -13.755   0.252  0.00  0.00    +0.111 A 
ATOM     35  N   LIG    1       -1.417 -13.824  -0.693  0.00  0.00    -0.263 NA
ATOM     36  C   LIG    1       -2.180 -12.793  -1.003  0.00  0.00    +0.111 A 
ATOM     37  C   LIG    1       -2.051 -11.591  -0.339  0.00  0.00    +0.030 A 
ENDBRANCH   4  32
TORSDOF 8
