REMARK  Name = ZINC28604308
REMARK                            x       y       z     vdW  Elec       q    Type
REMARK                         _______ _______ _______ _____ _____    ______ ____
ROOT
ATOM      1  C   LIG    1       -2.056  -1.404  -0.223  0.00  0.00    -0.017 A 
ATOM      2  C   LIG    1       -0.942  -1.321  -1.059  0.00  0.00    +0.010 A 
ATOM      3  C   LIG    1       -0.048  -2.368  -1.119  0.00  0.00    +0.024 A 
ATOM      4  C   LIG    1       -0.261  -3.511  -0.357  0.00  0.00    +0.033 A 
ATOM      5  C   LIG    1       -1.374  -3.599   0.472  0.00  0.00    +0.024 A 
ATOM      6  C   LIG    1       -2.268  -2.552   0.540  0.00  0.00    +0.010 A 
ENDROOT
BRANCH   1   9
ATOM      7  C   LIG    1       -5.258   0.570  -0.367  0.00  0.00    +0.003 A 
ATOM      8  C   LIG    1       -4.359  -0.484  -0.433  0.00  0.00    +0.009 A 
ATOM      9  C   LIG    1       -3.016  -0.278  -0.152  0.00  0.00    -0.005 A 
ATOM     10  C   LIG    1       -2.573   1.011   0.204  0.00  0.00    +0.049 A 
ATOM     11  C   LIG    1       -1.271   1.574   0.556  0.00  0.00    +0.120 A 
ATOM     12  N   LIG    1       -1.443   2.846   0.803  0.00  0.00    -0.263 N 
ATOM     13  H   LIG    1       -0.586   3.470   1.097  0.00  0.00    +0.190 HD
ATOM     14  N   LIG    1       -2.788   3.188   0.633  0.00  0.00    -0.172 NA
ATOM     15  C   LIG    1       -3.494   2.071   0.268  0.00  0.00    +0.095 A 
ATOM     16  C   LIG    1       -4.837   1.835  -0.021  0.00  0.00    +0.030 A 
BRANCH  11  17
ATOM     17  N   LIG    1       -0.061   0.877   0.621  0.00  0.00    -0.343 N 
ATOM     18  H   LIG    1       -0.033  -0.199   0.395  0.00  0.00    +0.144 HD
ATOM     19  H   LIG    1        0.863   1.405   0.898  0.00  0.00    +0.144 HD
ENDBRANCH  11  17
ENDBRANCH   1   9
BRANCH   4  20
ATOM     20  N   LIG    1        0.645  -4.574  -0.424  0.00  0.00    -0.285 N 
ATOM     21  H   LIG    1        1.720  -4.373  -0.544  0.00  0.00    +0.155 HD
ATOM     22  C   LIG    1        0.201  -5.843  -0.341  0.00  0.00    +0.220 C 
ATOM     23  O   LIG    1       -0.973  -6.063  -0.131  0.00  0.00    -0.275 OA
BRANCH  22  24
ATOM     24  C   LIG    1        1.164  -6.991  -0.511  0.00  0.00    +0.075 C 
ATOM     25  C   LIG    1        1.809  -6.914  -1.896  0.00  0.00    +0.013 C 
ATOM     26  C   LIG    1        2.787  -8.078  -2.068  0.00  0.00    +0.001 C 
ATOM     27  C   LIG    1        2.032  -9.402  -1.930  0.00  0.00    +0.000 C 
ATOM     28  C   LIG    1        1.386  -9.479  -0.545  0.00  0.00    +0.001 C 
ATOM     29  C   LIG    1        0.409  -8.314  -0.373  0.00  0.00    +0.013 C 
ENDBRANCH  22  24
ENDBRANCH   4  20
TORSDOF 4
