REMARK  Name = ZINC26507157
REMARK                            x       y       z     vdW  Elec       q    Type
REMARK                         _______ _______ _______ _____ _____    ______ ____
ROOT
ATOM      1  C   LIG    1        1.159   2.085   0.002  0.00  0.00    +0.002 A 
ATOM      2  C   LIG    1       -0.017   1.397   0.010  0.00  0.00    +0.014 A 
ATOM      3  C   LIG    1        0.002  -0.004   0.002  0.00  0.00    +0.048 A 
ATOM      4  C   LIG    1        1.247  -0.683  -0.013  0.00  0.00    +0.003 A 
ATOM      5  C   LIG    1        2.438   0.056  -0.021  0.00  0.00    +0.026 A 
ATOM      6 BR   LIG    1        4.109  -0.829  -0.041  0.00  0.00    -0.050 Br
ATOM      7  C   LIG    1        1.237  -2.092  -0.021  0.00  0.00    +0.027 A 
ATOM      8  C   LIG    1        0.041  -2.740  -0.014  0.00  0.00    +0.086 A 
ATOM      9  N   LIG    1       -1.113  -2.085   0.001  0.00  0.00    -0.329 N 
ATOM     10  H   LIG    1       -2.061  -2.641   0.006  0.00  0.00    +0.168 HD
ATOM     11  C   LIG    1       -1.183  -0.769   0.009  0.00  0.00    +0.256 A 
ATOM     12  O   LIG    1       -2.390  -0.153   0.024  0.00  0.00    -0.267 OA
ATOM     13  C   LIG    1        2.382   1.419  -0.013  0.00  0.00    +0.016 A 
ENDROOT
TORSDOF 0
