REMARK  Name = ZINC13800223
REMARK                            x       y       z     vdW  Elec       q    Type
REMARK                         _______ _______ _______ _____ _____    ______ ____
ROOT
ATOM      1  C   LIG    1        4.873  -3.937   2.375  0.00  0.00    +0.164 C 
ATOM      2  C   LIG    1        5.775  -4.670   3.395  0.00  0.00    +0.049 C 
ATOM      3  C   LIG    1        4.874  -4.698   4.649  0.00  0.00    +0.110 C 
ATOM      4  N   LIG    1        3.961  -3.559   4.501  0.00  0.00    -0.296 N 
ATOM      5  C   LIG    1        3.934  -3.115   3.230  0.00  0.00    +0.235 C 
ATOM      6  O   LIG    1        3.259  -2.191   2.829  0.00  0.00    -0.274 OA
ENDROOT
BRANCH   1   7
ATOM      7  N   LIG    1        5.677  -3.066   1.513  0.00  0.00    -0.178 NA
ATOM      8  H   LIG    1        6.469  -2.632   1.866  0.00  0.00    +0.149 HD
BRANCH   7   9
ATOM      9  S   LIG    1        5.231  -2.823  -0.063  0.00  0.00    +0.059 S 
ATOM     10  O   LIG    1        6.181  -1.923  -0.619  0.00  0.00    -0.153 OA
ATOM     11  O   LIG    1        4.984  -4.107  -0.618  0.00  0.00    -0.153 OA
BRANCH   9  17
ATOM     12  C   LIG    1       -0.016   1.357   0.009  0.00  0.00    +0.001 A 
ATOM     13  C   LIG    1        1.169   2.091   0.002  0.00  0.00    +0.001 A 
ATOM     14  C   LIG    1        2.378   1.468  -0.013  0.00  0.00    +0.008 A 
ATOM     15  C   LIG    1        2.438   0.063  -0.021  0.00  0.00    -0.016 A 
ATOM     16  C   LIG    1        3.668  -0.615  -0.036  0.00  0.00    +0.037 A 
ATOM     17  C   LIG    1        3.687  -1.976  -0.043  0.00  0.00    +0.106 A 
ATOM     18  C   LIG    1        2.502  -2.710  -0.036  0.00  0.00    +0.029 A 
ATOM     19  C   LIG    1        1.292  -2.087  -0.021  0.00  0.00    +0.010 A 
ATOM     20  C   LIG    1        1.233  -0.683  -0.013  0.00  0.00    -0.018 A 
ATOM     21  C   LIG    1        0.002  -0.004   0.002  0.00  0.00    +0.008 A 
ENDBRANCH   9  17
ENDBRANCH   7   9
ENDBRANCH   1   7
BRANCH   4  22
ATOM     22  C   LIG    1        3.177  -2.980   5.595  0.00  0.00    +0.143 C 
BRANCH  22  23
ATOM     23  C   LIG    1        3.975  -1.889   6.262  0.00  0.00    -0.029 A 
ATOM     24  C   LIG    1        4.809  -2.194   7.323  0.00  0.00    +0.005 A 
ATOM     25  C   LIG    1        5.545  -1.198   7.940  0.00  0.00    +0.001 A 
ATOM     26  C   LIG    1        5.449   0.107   7.502  0.00  0.00    +0.016 A 
ATOM     27  C   LIG    1        4.610   0.421   6.433  0.00  0.00    +0.061 A 
ATOM     28  C   LIG    1        3.875  -0.589   5.810  0.00  0.00    +0.021 A 
BRANCH  27  29
ATOM     29  C   LIG    1        4.502   1.818   5.958  0.00  0.00    +0.266 C 
ATOM     30  N   LIG    1        4.673   2.826   6.811  0.00  0.00    -0.288 N 
ATOM     31  H   LIG    1        4.603   3.742   6.500  0.00  0.00    +0.301 HD
ATOM     32  H   LIG    1        4.867   2.644   7.744  0.00  0.00    +0.301 HD
BRANCH  29  33
ATOM     33  N   LIG    1        4.235   2.067   4.678  0.00  0.00    -0.250 N 
ATOM     34  H   LIG    1        4.165   2.983   4.366  0.00  0.00    +0.288 HD
ATOM     35  H   LIG    1        4.111   1.333   4.056  0.00  0.00    +0.288 HD
ENDBRANCH  29  33
ENDBRANCH  27  29
ENDBRANCH  22  23
ENDBRANCH   4  22
TORSDOF 7
