REMARK  Name = ZINC49784878
REMARK                            x       y       z     vdW  Elec       q    Type
REMARK                         _______ _______ _______ _____ _____    ______ ____
ROOT
ATOM      1  C   LIG    1       -0.018   1.461   0.010  0.00  0.00    +0.172 C 
ATOM      2  N   LIG    1        0.002  -0.004   0.002  0.00  0.00    -0.272 N 
ATOM      3  C   LIG    1        0.007  -0.767  -1.099  0.00  0.00    +0.121 A 
ATOM      4  C   LIG    1        0.028  -2.084  -0.700  0.00  0.00    +0.078 A 
ATOM      5  C   LIG    1        0.043  -3.385  -1.366  0.00  0.00    +0.131 A 
ATOM      6  N   LIG    1        0.062  -4.467  -0.600  0.00  0.00    -0.212 NA
ATOM      7  C   LIG    1        0.068  -4.391   0.729  0.00  0.00    +0.164 A 
ATOM      8  N   LIG    1        0.055  -3.264   1.407  0.00  0.00    -0.206 NA
ATOM      9  C   LIG    1        0.035  -2.076   0.775  0.00  0.00    +0.187 A 
ATOM     10  N   LIG    1        0.024  -0.814   1.144  0.00  0.00    -0.151 NA
ENDROOT
BRANCH   7  11
ATOM     11  C   LIG    1        0.089  -5.660   1.495  0.00  0.00    +0.019 A 
ATOM     12  C   LIG    1        0.090  -5.636   2.889  0.00  0.00    +0.011 A 
ATOM     13  C   LIG    1        0.110  -6.820   3.597  0.00  0.00    +0.001 A 
ATOM     14  C   LIG    1        0.130  -8.030   2.926  0.00  0.00    +0.000 A 
ATOM     15  C   LIG    1        0.129  -8.060   1.543  0.00  0.00    +0.001 A 
ATOM     16  C   LIG    1        0.103  -6.882   0.825  0.00  0.00    +0.011 A 
ENDBRANCH   7  11
BRANCH   5  17
ATOM     17  N   LIG    1        0.037  -3.483  -2.739  0.00  0.00    -0.342 N 
ATOM     18  H   LIG    1        0.047  -4.355  -3.163  0.00  0.00    +0.144 HD
ATOM     19  H   LIG    1        0.023  -2.679  -3.283  0.00  0.00    +0.144 HD
ENDBRANCH   5  17
TORSDOF 2
