REMARK  Name = ZINC26577522
REMARK                            x       y       z     vdW  Elec       q    Type
REMARK                         _______ _______ _______ _____ _____    ______ ____
ROOT
ATOM      1  C   LIG    1       -0.013   1.086   0.008  0.00  0.00    +0.172 C 
ATOM      2  C   LIG    1       -0.615   1.613   1.334  0.00  0.00    +0.172 C 
ATOM      3  C   LIG    1       -0.020   3.039   1.437  0.00  0.00    +0.134 C 
ATOM      4  C   LIG    1        1.420   2.887   0.906  0.00  0.00    -0.012 C 
ATOM      5  C   LIG    1        1.425   1.645  -0.003  0.00  0.00    +0.134 C 
ENDROOT
BRANCH   4   6
ATOM      6  N   LIG    1        1.800   4.077   0.134  0.00  0.00    +0.383 N 
ATOM      7  H   LIG    1        1.168   4.188  -0.646  0.00  0.00    -0.089 HD
ATOM      8  H   LIG    1        2.742   3.969  -0.210  0.00  0.00    -0.089 HD
ATOM      9  H   LIG    1        1.748   4.893   0.726  0.00  0.00    -0.089 HD
ENDBRANCH   4   6
BRANCH   1  10
ATOM     10  O   LIG    1       -0.750   1.581  -1.111  0.00  0.00    -0.387 OA
ATOM     11  H   LIG    1       -1.670   1.283  -1.139  0.00  0.00    +0.210 HD
ENDBRANCH   1  10
BRANCH   2  12
ATOM     12  O   LIG    1       -2.042   1.659   1.259  0.00  0.00    -0.387 OA
ATOM     13  H   LIG    1       -2.456   0.797   1.114  0.00  0.00    +0.210 HD
ENDBRANCH   2  12
BRANCH   3  14
ATOM     14  O   LIG    1       -0.762   3.950   0.625  0.00  0.00    -0.391 OA
ATOM     15  H   LIG    1       -1.691   4.039   0.881  0.00  0.00    +0.210 HD
ENDBRANCH   3  14
BRANCH   5  16
ATOM     16  O   LIG    1        2.334   0.668   0.508  0.00  0.00    -0.391 OA
ATOM     17  H   LIG    1        2.367  -0.147  -0.010  0.00  0.00    +0.210 HD
ENDBRANCH   5  16
TORSDOF 5
