REMARK  Name = ZINC14974435
REMARK                            x       y       z     vdW  Elec       q    Type
REMARK                         _______ _______ _______ _____ _____    ______ ____
ROOT
ATOM      1  C   LIG    1       -0.224   0.713   1.704  0.00  0.00    +0.008 C 
ATOM      2  C   LIG    1       -0.340  -0.715   1.165  0.00  0.00    -0.007 C 
ATOM      3  C   LIG    1        0.690  -0.935   0.056  0.00  0.00    +0.037 C 
ATOM      4  C   LIG    1        0.108  -0.637  -1.324  0.00  0.00    +0.147 C 
ATOM      5  C   LIG    1       -0.953  -1.670  -1.694  0.00  0.00    +0.150 C 
ATOM      6  C   LIG    1       -1.618  -1.314  -3.028  0.00  0.00    +0.040 C 
ATOM      7  C   LIG    1       -1.012  -2.198  -4.128  0.00  0.00    +0.014 C 
ATOM      8  C   LIG    1       -3.091  -1.602  -2.937  0.00  0.00    -0.019 C 
ATOM      9  C   LIG    1       -4.030  -0.707  -3.060  0.00  0.00    -0.033 C 
ATOM     10  C   LIG    1       -3.724   0.745  -3.321  0.00  0.00    +0.042 C 
ATOM     11  C   LIG    1       -5.479  -1.133  -2.928  0.00  0.00    +0.236 C 
ATOM     12  C   LIG    1       -5.750  -1.552  -1.485  0.00  0.00    +0.186 C 
ATOM     13  C   LIG    1       -7.033  -0.945  -0.975  0.00  0.00    +0.008 C 
ATOM     14  C   LIG    1       -7.279  -0.910   0.344  0.00  0.00    -0.001 C 
ATOM     15  C   LIG    1       -6.362  -1.482   1.246  0.00  0.00    +0.008 C 
ATOM     16  C   LIG    1       -6.111  -1.020   2.493  0.00  0.00    +0.013 C 
ATOM     17  C   LIG    1       -6.844   0.170   3.046  0.00  0.00    +0.049 C 
ATOM     18  C   LIG    1       -5.105  -1.711   3.273  0.00  0.00    +0.264 C 
ATOM     19  N   LIG    1       -4.531  -1.282   4.386  0.00  0.00    -0.173 NA
ATOM     20  C   LIG    1       -3.226  -1.175   4.505  0.00  0.00    +0.107 C 
ATOM     21  C   LIG    1       -2.626  -0.759   5.720  0.00  0.00    +0.078 C 
ATOM     22  C   LIG    1       -1.276  -0.637   5.811  0.00  0.00    +0.161 C 
ATOM     23  C   LIG    1       -0.404  -0.954   4.668  0.00  0.00    +0.168 C 
ATOM     24  C   LIG    1       -0.934  -1.365   3.494  0.00  0.00    +0.047 C 
ATOM     25  C   LIG    1       -2.340  -1.498   3.349  0.00  0.00    +0.209 C 
ATOM     26  O   LIG    1       -2.795  -1.861   2.284  0.00  0.00    -0.285 OA
ATOM     27  O   LIG    1       -4.779  -2.821   2.858  0.00  0.00    -0.268 OA
ATOM     28  C   LIG    1       -0.074  -1.705   2.302  0.00  0.00    +0.046 C 
ENDROOT
BRANCH   4  29
ATOM     29  O   LIG    1       -0.456   0.673  -1.345  0.00  0.00    -0.377 OA
ATOM     30  C   LIG    1        0.464   1.696  -1.733  0.00  0.00    +0.194 C 
ENDBRANCH   4  29
BRANCH   5  31
ATOM     31  O   LIG    1       -0.336  -2.957  -1.816  0.00  0.00    -0.389 OA
ATOM     32  H   LIG    1       -0.950  -3.667  -2.050  0.00  0.00    +0.210 HD
ENDBRANCH   5  31
BRANCH  12  33
ATOM     33  O   LIG    1       -4.654  -1.120  -0.670  0.00  0.00    -0.372 OA
ATOM     34  C   LIG    1       -4.665   0.279  -0.375  0.00  0.00    +0.195 C 
ENDBRANCH  12  33
BRANCH  23  35
ATOM     35  O   LIG    1        0.937  -0.842   4.812  0.00  0.00    -0.491 OA
ATOM     36  C   LIG    1        1.569  -1.733   5.732  0.00  0.00    +0.277 C 
ENDBRANCH  23  35
BRANCH  22  37
ATOM     37  O   LIG    1       -0.721  -0.214   6.973  0.00  0.00    -0.503 OA
ATOM     38  H   LIG    1       -1.268  -0.010   7.706  0.00  0.00    +0.292 HD
ENDBRANCH  22  37
BRANCH  11  39
ATOM     39  O   LIG    1       -6.320  -0.044  -3.297  0.00  0.00    -0.440 OA
BRANCH  39  40
ATOM     40  C   LIG    1       -6.673   0.044  -4.593  0.00  0.00    +0.398 C 
ATOM     41  N   LIG    1       -7.468   1.050  -5.009  0.00  0.00    -0.295 N 
ATOM     42  H   LIG    1       -7.722   1.113  -5.943  0.00  0.00    +0.148 HD
ATOM     43  H   LIG    1       -7.786   1.711  -4.374  0.00  0.00    +0.148 HD
ATOM     44  O   LIG    1       -6.275  -0.784  -5.389  0.00  0.00    -0.227 OA
ENDBRANCH  39  40
ENDBRANCH  11  39
TORSDOF 7
