REMARK  Name = ZINC13779480
REMARK                            x       y       z     vdW  Elec       q    Type
REMARK                         _______ _______ _______ _____ _____    ______ ____
ROOT
ATOM      1  C   LIG    1       -2.904   1.556   0.038  0.00  0.00    +0.000 C 
ATOM      2  C   LIG    1       -2.188   1.063  -1.221  0.00  0.00    +0.000 C 
ATOM      3  C   LIG    1       -0.753   1.593  -1.232  0.00  0.00    +0.005 C 
ATOM      4  C   LIG    1       -0.013   1.086   0.008  0.00  0.00    +0.006 C 
ATOM      5  C   LIG    1       -0.729   1.579   1.267  0.00  0.00    +0.005 C 
ATOM      6  C   LIG    1       -2.164   1.050   1.278  0.00  0.00    +0.000 C 
ENDROOT
BRANCH   4   7
ATOM      7  C   LIG    1        1.423   1.615  -0.003  0.00  0.00    +0.107 C 
BRANCH   7   8
ATOM      8  N   LIG    1        2.166   1.035   1.118  0.00  0.00    -0.318 N 
ATOM      9  H   LIG    1        1.668   0.334   1.804  0.00  0.00    +0.148 HD
ATOM     10  C   LIG    1        3.460   1.360   1.310  0.00  0.00    +0.325 C 
ATOM     11  O   LIG    1        4.009   2.133   0.553  0.00  0.00    -0.280 OA
ENDBRANCH   7   8
ENDBRANCH   4   7
TORSDOF 2
