REMARK  Name = ZINC13829395
REMARK                            x       y       z     vdW  Elec       q    Type
REMARK                         _______ _______ _______ _____ _____    ______ ____
ROOT
ATOM      1  C   LIG    1        0.097  -0.088   2.615  0.00  0.00    +0.136 A 
ATOM      2  C   LIG    1       -0.759  -0.281   3.661  0.00  0.00    +0.051 A 
ATOM      3  C   LIG    1       -0.452   0.685   4.626  0.00  0.00    +0.057 A 
ATOM      4  C   LIG    1        0.580   1.430   4.129  0.00  0.00    +0.209 A 
ATOM      5  O   LIG    1        0.904   0.946   2.912  0.00  0.00    -0.449 OA
ENDROOT
BRANCH   1  13
ATOM      6  C   LIG    1        0.103   1.262   0.057  0.00  0.00    +0.044 C 
ATOM      7  C   LIG    1        0.138  -0.243   0.130  0.00  0.00    -0.040 A 
ATOM      8  C   LIG    1        0.178  -0.991  -1.029  0.00  0.00    +0.007 A 
ATOM      9  C   LIG    1        0.211  -2.372  -0.965  0.00  0.00    +0.038 A 
ATOM     10  C   LIG    1        0.202  -3.015   0.264  0.00  0.00    +0.124 A 
ATOM     11  F   LIG    1        0.234  -4.364   0.319  0.00  0.00    -0.205 F 
ATOM     12  C   LIG    1        0.161  -2.278   1.431  0.00  0.00    +0.050 A 
ATOM     13  C   LIG    1        0.135  -0.883   1.371  0.00  0.00    +0.023 A 
ENDBRANCH   1  13
BRANCH   4  14
ATOM     14  C   LIG    1        1.229   2.561   4.806  0.00  0.00    +0.376 C 
ATOM     15  O   LIG    1        0.851   2.907   5.912  0.00  0.00    -0.245 OA
BRANCH  14  16
ATOM     16  N   LIG    1        2.238   3.213   4.206  0.00  0.00    +0.003 NA
ATOM     17  C   LIG    1        3.387   3.380   4.840  0.00  0.00    +0.375 C 
BRANCH  17  18
ATOM     18  N   LIG    1        4.370   4.145   4.281  0.00  0.00    -0.291 N 
ATOM     19  H   LIG    1        5.213   4.267   4.746  0.00  0.00    +0.254 HD
ATOM     20  H   LIG    1        4.226   4.566   3.420  0.00  0.00    +0.254 HD
ENDBRANCH  17  18
BRANCH  17  21
ATOM     21  N   LIG    1        3.590   2.787   6.052  0.00  0.00    -0.291 N 
ATOM     22  H   LIG    1        4.401   2.971   6.552  0.00  0.00    +0.254 HD
ATOM     23  H   LIG    1        2.924   2.181   6.413  0.00  0.00    +0.254 HD
ENDBRANCH  17  21
ENDBRANCH  14  16
ENDBRANCH   4  14
TORSDOF 5
