REMARK  Name = ZINC13862637
REMARK                            x       y       z     vdW  Elec       q    Type
REMARK                         _______ _______ _______ _____ _____    ______ ____
ROOT
ATOM      1  N   LIG    1       -0.098  -2.434   3.670  0.00  0.00    -0.312 N 
ATOM      2  H   LIG    1        0.689  -1.915   3.895  0.00  0.00    +0.149 HD
ATOM      3  C   LIG    1       -0.360  -3.581   4.328  0.00  0.00    +0.225 C 
ATOM      4  O   LIG    1       -1.345  -4.231   4.047  0.00  0.00    -0.275 OA
ENDROOT
BRANCH   3   5
ATOM      5  C   LIG    1        0.571  -4.056   5.414  0.00  0.00    +0.142 C 
ATOM      6  C   LIG    1        0.659  -3.006   6.489  0.00  0.00    +0.013 A 
ATOM      7  C   LIG    1        1.447  -1.888   6.282  0.00  0.00    +0.028 A 
ATOM      8  C   LIG    1        1.540  -0.912   7.258  0.00  0.00    +0.041 A 
ATOM      9 CL   LIG    1        2.532   0.488   6.993  0.00  0.00    -0.084 Cl
ATOM     10  C   LIG    1        0.845  -1.053   8.446  0.00  0.00    +0.023 A 
ATOM     11  C   LIG    1        0.057  -2.167   8.656  0.00  0.00    +0.048 A 
ATOM     12  C   LIG    1       -0.040  -3.148   7.677  0.00  0.00    +0.133 A 
ATOM     13  O   LIG    1       -0.817  -4.235   7.904  0.00  0.00    -0.455 OA
ATOM     14  C   LIG    1       -0.612  -5.373   7.197  0.00  0.00    +0.133 A 
ATOM     15  C   LIG    1       -1.081  -6.580   7.704  0.00  0.00    +0.048 A 
ATOM     16  C   LIG    1       -0.883  -7.750   6.999  0.00  0.00    +0.023 A 
ATOM     17  C   LIG    1       -0.218  -7.724   5.786  0.00  0.00    +0.041 A 
ATOM     18 CL   LIG    1        0.030  -9.196   4.900  0.00  0.00    -0.084 Cl
ATOM     19  C   LIG    1        0.250  -6.525   5.280  0.00  0.00    +0.028 A 
ATOM     20  C   LIG    1        0.054  -5.349   5.983  0.00  0.00    +0.013 A 
ENDBRANCH   3   5
BRANCH   1  24
ATOM     21  N   LIG    1       -1.342  -0.639   0.066  0.00  0.00    +0.382 N 
ATOM     22  C   LIG    1       -1.771   0.012   1.309  0.00  0.00    -0.073 C 
ATOM     23  C   LIG    1       -0.883  -0.454   2.465  0.00  0.00    +0.004 C 
ATOM     24  C   LIG    1       -1.003  -1.973   2.615  0.00  0.00    +0.069 C 
ATOM     25  C   LIG    1       -0.625  -2.638   1.288  0.00  0.00    +0.004 C 
ATOM     26  C   LIG    1       -1.522  -2.092   0.176  0.00  0.00    -0.073 C 
BRANCH  21  28
ATOM     27  C   LIG    1        0.254   1.168  -0.363  0.00  0.00    -0.016 C 
ATOM     28  C   LIG    1        0.075  -0.340  -0.178  0.00  0.00    -0.078 C 
ENDBRANCH  21  28
BRANCH  21  29
ATOM     29  C   LIG    1       -2.148  -0.131  -1.053  0.00  0.00    -0.044 C 
BRANCH  29  30
ATOM     30  C   LIG    1       -3.585  -0.545  -0.866  0.00  0.00    -0.090 C 
ATOM     31  C   LIG    1       -3.992  -1.606  -1.417  0.00  0.00    -0.029 C 
ATOM     32  C   LIG    1       -3.470  -2.065  -2.754  0.00  0.00    +0.027 C 
ATOM     33  C   LIG    1       -4.511  -1.383  -3.681  0.00  0.00    +0.004 C 
ATOM     34  C   LIG    1       -4.587   0.126  -3.364  0.00  0.00    +0.000 C 
ATOM     35  C   LIG    1       -5.630   0.425  -2.288  0.00  0.00    +0.000 C 
ATOM     36  C   LIG    1       -5.038   1.261  -1.133  0.00  0.00    +0.004 C 
ATOM     37  C   LIG    1       -4.488   0.316  -0.023  0.00  0.00    +0.028 C 
ENDBRANCH  29  30
ENDBRANCH  21  29
ENDBRANCH   1  24
TORSDOF 5
