REMARK  Name = ZINC27640867
REMARK                            x       y       z     vdW  Elec       q    Type
REMARK                         _______ _______ _______ _____ _____    ______ ____
ROOT
ATOM      1  N   LIG    1       -2.316   9.577   0.105  0.00  0.00    -0.341 N 
ATOM      2  C   LIG    1       -2.622   8.258   0.120  0.00  0.00    +0.028 A 
ATOM      3  C   LIG    1       -4.017   7.693   0.194  0.00  0.00    +0.064 C 
ATOM      4  C   LIG    1       -1.477   7.518   0.057  0.00  0.00    +0.050 A 
ATOM      5  C   LIG    1       -0.360   8.479   0.004  0.00  0.00    +0.011 A 
ATOM      6  C   LIG    1        1.024   8.351  -0.076  0.00  0.00    +0.011 A 
ATOM      7  C   LIG    1        1.812   9.481  -0.115  0.00  0.00    +0.001 A 
ATOM      8  C   LIG    1        1.232  10.740  -0.083  0.00  0.00    +0.002 A 
ATOM      9  C   LIG    1       -0.137  10.882  -0.009  0.00  0.00    +0.026 A 
ATOM     10  C   LIG    1       -0.949   9.754   0.032  0.00  0.00    +0.050 A 
ENDROOT
BRANCH   1  11
ATOM     11  C   LIG    1       -3.297  10.664   0.160  0.00  0.00    +0.084 C 
ATOM     12  C   LIG    1       -3.038  11.524   1.398  0.00  0.00    +0.031 C 
BRANCH  11  13
ATOM     13  C   LIG    1       -3.172  11.528  -1.097  0.00  0.00    +0.025 C 
BRANCH  13  14
ATOM     14  C   LIG    1       -4.276  12.586  -1.100  0.00  0.00    +0.002 C 
BRANCH  14  15
ATOM     15  C   LIG    1       -4.151  13.450  -2.356  0.00  0.00    -0.000 C 
BRANCH  15  17
ATOM     16  C   LIG    1       -5.130  15.373  -3.616  0.00  0.00    +0.004 C 
ATOM     17  C   LIG    1       -5.255  14.509  -2.360  0.00  0.00    -0.003 C 
ENDBRANCH  15  17
ENDBRANCH  14  15
ENDBRANCH  13  14
ENDBRANCH  11  13
ENDBRANCH   1  11
BRANCH   4  18
ATOM     18  C   LIG    1       -1.376   6.053   0.050  0.00  0.00    +0.196 C 
ATOM     19  O   LIG    1       -1.301   5.453  -1.007  0.00  0.00    -0.287 OA
BRANCH  18  20
ATOM     20  C   LIG    1       -1.366   5.308   1.323  0.00  0.00    +0.030 A 
ATOM     21  C   LIG    1       -1.334   5.981   2.538  0.00  0.00    +0.012 A 
ATOM     22  C   LIG    1       -1.326   5.277   3.734  0.00  0.00    +0.001 A 
ATOM     23  C   LIG    1       -1.349   3.917   3.768  0.00  0.00    +0.008 A 
ATOM     24  C   LIG    1       -1.382   3.171   2.578  0.00  0.00    -0.017 A 
ATOM     25  C   LIG    1       -1.406   1.766   2.595  0.00  0.00    +0.008 A 
ATOM     26  C   LIG    1       -1.437   1.078   1.421  0.00  0.00    +0.001 A 
ATOM     27  C   LIG    1       -1.440   1.746   0.198  0.00  0.00    +0.001 A 
ATOM     28  C   LIG    1       -1.424   3.108   0.144  0.00  0.00    +0.009 A 
ATOM     29  C   LIG    1       -1.391   3.847   1.333  0.00  0.00    -0.007 A 
ENDBRANCH  18  20
ENDBRANCH   4  18
TORSDOF 7
