REMARK  Name = ZINC13766121
REMARK                            x       y       z     vdW  Elec       q    Type
REMARK                         _______ _______ _______ _____ _____    ______ ____
ROOT
ATOM      1  C   LIG    1       -0.021   3.701   0.022  0.00  0.00    +0.116 A 
ATOM      2  C   LIG    1       -1.197   3.038   0.030  0.00  0.00    +0.121 A 
ATOM      3 CL   LIG    1       -2.698   3.909   0.049  0.00  0.00    -0.076 Cl
ATOM      4  C   LIG    1       -1.189   1.621   0.017  0.00  0.00    +0.272 A 
ATOM      5  N   LIG    1       -0.011   0.966   0.007  0.00  0.00    -0.274 N 
ATOM      6  C   LIG    1        1.147   1.652   0.000  0.00  0.00    +0.329 A 
ATOM      7  O   LIG    1        2.202   1.047  -0.014  0.00  0.00    -0.246 OA
ATOM      8  H   LIG    1        0.003  -0.034   0.006  0.00  0.00    +0.173 HD
ATOM      9  O   LIG    1       -2.237   1.001   0.018  0.00  0.00    -0.266 OA
ATOM     10  N   LIG    1        1.154   2.997   0.007  0.00  0.00    -0.300 N 
ENDROOT
BRANCH  10  11
ATOM     11  C   LIG    1        2.431   3.716  -0.001  0.00  0.00    +0.121 C 
BRANCH  11  12
ATOM     12  CA  LIG    1        2.862   3.974  -1.446  0.00  0.00    +0.056 C 
BRANCH  12  13
ATOM     13  N   LIG    1        2.910   2.710  -2.202  0.00  0.00    +0.388 N 
ATOM     14  H1  LIG    1        3.232   2.901  -3.158  0.00  0.00    -0.089 HD
ATOM     15  H2  LIG    1        1.982   2.292  -2.242  0.00  0.00    -0.089 HD
ATOM     16  H3  LIG    1        3.555   2.061  -1.756  0.00  0.00    -0.089 HD
ENDBRANCH  12  13
BRANCH  12  17
ATOM     17  C   LIG    1        4.231   4.603  -1.457  0.00  0.00    +0.292 C 
ATOM     18  O   LIG    1        5.206   3.925  -1.682  0.00  0.00    -0.253 OA
BRANCH  17  19
ATOM     19  OXT LIG    1        4.369   5.916  -1.217  0.00  0.00    -0.482 OA
ATOM     20  HXT LIG    1        3.613   6.442  -1.042  0.00  0.00    +0.295 HD
ENDBRANCH  17  19
ENDBRANCH  12  17
ENDBRANCH  11  12
ENDBRANCH  10  11
TORSDOF 5
