REMARK  Name = ZINC22023403
REMARK                            x       y       z     vdW  Elec       q    Type
REMARK                         _______ _______ _______ _____ _____    ______ ____
ROOT
ATOM      1  N   LIG    1       -6.016   2.150   0.042  0.00  0.00    -0.187 NA
ATOM      2  C   LIG    1       -7.144   1.507   0.044  0.00  0.00    +0.142 C 
ENDROOT
BRANCH   2   3
ATOM      3  C   LIG    1       -8.416   2.251   0.054  0.00  0.00    +0.037 A 
ATOM      4  C   LIG    1       -9.632   1.563   0.056  0.00  0.00    +0.028 A 
ATOM      5  C   LIG    1      -10.819   2.265   0.066  0.00  0.00    +0.019 A 
ATOM      6 BR   LIG    1      -12.465   1.334   0.068  0.00  0.00    -0.050 Br
ATOM      7  C   LIG    1      -10.811   3.651   0.073  0.00  0.00    +0.019 A 
ATOM      8  C   LIG    1       -9.614   4.342   0.071  0.00  0.00    +0.047 A 
ATOM      9  C   LIG    1       -8.413   3.652   0.068  0.00  0.00    +0.130 A 
BRANCH   9  10
ATOM     10  O   LIG    1       -7.237   4.331   0.072  0.00  0.00    -0.480 OA
BRANCH  10  11
ATOM     11  C   LIG    1       -7.311   5.758   0.086  0.00  0.00    +0.349 C 
BRANCH  11  12
ATOM     12  C   LIG    1       -5.919   6.334   0.088  0.00  0.00    +0.343 C 
ATOM     13  O   LIG    1       -4.961   5.598   0.080  0.00  0.00    -0.247 OA
BRANCH  12  14
ATOM     14  O   LIG    1       -5.743   7.665   0.101  0.00  0.00    -0.478 OA
ATOM     15  H   LIG    1       -6.486   8.236   0.108  0.00  0.00    +0.295 HD
ENDBRANCH  12  14
ENDBRANCH  11  12
ENDBRANCH  10  11
ENDBRANCH   9  10
ENDBRANCH   2   3
BRANCH   1  16
ATOM     16  N   LIG    1       -4.807   1.443   0.033  0.00  0.00    -0.204 N 
ATOM     17  H   LIG    1       -4.813   0.343   0.027  0.00  0.00    +0.177 HD
BRANCH  16  22
ATOM     18  C   LIG    1       -1.310   2.116   0.020  0.00  0.00    +0.094 A 
ATOM     19  C   LIG    1       -1.342   3.515   0.028  0.00  0.00    +0.163 A 
ATOM     20  N   LIG    1       -2.510   4.131   0.036  0.00  0.00    -0.152 NA
ATOM     21  N   LIG    1       -3.606   3.456   0.038  0.00  0.00    -0.112 NA
ATOM     22  C   LIG    1       -3.604   2.129   0.031  0.00  0.00    +0.255 A 
ATOM     23  N   LIG    1       -2.464   1.451   0.016  0.00  0.00    -0.210 NA
BRANCH  18  27
ATOM     24  C   LIG    1        2.396   0.033  -0.021  0.00  0.00    +0.000 A 
ATOM     25  C   LIG    1        1.208  -0.675  -0.013  0.00  0.00    +0.001 A 
ATOM     26  C   LIG    1        0.002  -0.004   0.002  0.00  0.00    +0.010 A 
ATOM     27  C   LIG    1       -0.017   1.390   0.010  0.00  0.00    +0.002 A 
ATOM     28  C   LIG    1        1.184   2.098   0.002  0.00  0.00    +0.010 A 
ATOM     29  C   LIG    1        2.384   1.416  -0.013  0.00  0.00    +0.001 A 
ENDBRANCH  18  27
ENDBRANCH  16  22
ENDBRANCH   1  16
TORSDOF 8
