REMARK  Name = ZINC00006486
REMARK                            x       y       z     vdW  Elec       q    Type
REMARK                         _______ _______ _______ _____ _____    ______ ____
ROOT
ATOM      1  S   LIG    1        1.180  -2.452  -0.023  0.00  0.00    +0.061 S 
ATOM      2  O   LIG    1       -0.187  -2.832   0.068  0.00  0.00    -0.153 OA
ATOM      3  O   LIG    1        2.156  -2.890   0.912  0.00  0.00    -0.153 OA
ENDROOT
BRANCH   1  12
ATOM      4  C   LIG    1        1.930   1.388  -0.961  0.00  0.00    +0.003 A 
ATOM      5  C   LIG    1        1.294   2.107   0.005  0.00  0.00    +0.010 A 
ATOM      6  C   LIG    1        0.589   1.435   1.016  0.00  0.00    +0.002 A 
ATOM      7  C   LIG    1       -0.086   2.123   2.038  0.00  0.00    +0.119 A 
ATOM      8  N   LIG    1       -0.733   1.451   2.961  0.00  0.00    -0.263 NA
ATOM      9  C   LIG    1       -0.785   0.126   2.980  0.00  0.00    +0.111 A 
ATOM     10  C   LIG    1       -0.165  -0.633   2.035  0.00  0.00    +0.030 A 
ATOM     11  C   LIG    1        0.550   0.016   1.011  0.00  0.00    +0.011 A 
ATOM     12  C   LIG    1        1.216  -0.691   0.000  0.00  0.00    +0.113 A 
ATOM     13  C   LIG    1        1.891  -0.005  -0.964  0.00  0.00    +0.029 A 
ENDBRANCH   1  12
BRANCH   1  14
ATOM     14  N   LIG    1        1.706  -2.933  -1.517  0.00  0.00    -0.178 NA
ATOM     15  C   LIG    1        0.787  -3.034  -2.619  0.00  0.00    +0.107 C 
ATOM     16  C   LIG    1        0.119  -4.414  -2.825  0.00  0.00    -0.002 C 
ATOM     17  C   LIG    1        1.157  -5.543  -2.620  0.00  0.00    -0.081 C 
ATOM     18  N   LIG    1        2.428  -5.146  -3.178  0.00  0.00    +0.380 N 
ATOM     19  H   LIG    1        2.305  -4.383  -3.827  0.00  0.00    -0.086 HD
ATOM     20  H   LIG    1        2.874  -5.929  -3.632  0.00  0.00    -0.086 HD
ATOM     21  C   LIG    1        3.212  -4.713  -2.025  0.00  0.00    -0.065 C 
ATOM     22  C   LIG    1        3.153  -3.265  -1.746  0.00  0.00    +0.090 C 
ENDBRANCH   1  14
TORSDOF 2
