REMARK  Name = ZINC25758512
REMARK                            x       y       z     vdW  Elec       q    Type
REMARK                         _______ _______ _______ _____ _____    ______ ____
ROOT
ATOM      1  C   LIG    1       -0.017   1.376   0.010  0.00  0.00    +0.000 A 
ATOM      2  C   LIG    1        1.176   2.074   0.002  0.00  0.00    +0.000 A 
ATOM      3  C   LIG    1        2.373   1.390  -0.038  0.00  0.00    +0.004 A 
ATOM      4  C   LIG    1        2.401   0.003  -0.086  0.00  0.00    -0.034 A 
ATOM      5  C   LIG    1        1.205  -0.690  -0.021  0.00  0.00    -0.030 A 
ATOM      6  C   LIG    1        1.175  -2.193   0.100  0.00  0.00    +0.117 C 
ATOM      7  N   LIG    1        2.469  -2.670   0.619  0.00  0.00    -0.308 NA
ATOM      8  H   LIG    1        2.622  -2.330   1.556  0.00  0.00    +0.123 HD
ATOM      9  C   LIG    1        3.525  -2.226  -0.286  0.00  0.00    +0.066 C 
ATOM     10  C   LIG    1        4.882  -2.851   0.031  0.00  0.00    +0.024 C 
ATOM     11  C   LIG    1        5.851  -2.510  -1.098  0.00  0.00    +0.037 C 
ATOM     12  C   LIG    1        5.606  -1.162  -1.719  0.00  0.00    -0.040 A 
ATOM     13  C   LIG    1        6.449  -0.785  -2.759  0.00  0.00    +0.053 A 
ATOM     14  C   LIG    1        6.273   0.418  -3.413  0.00  0.00    +0.158 A 
ATOM     15  C   LIG    1        5.234   1.261  -3.035  0.00  0.00    +0.159 A 
ATOM     16  C   LIG    1        4.396   0.886  -1.996  0.00  0.00    +0.053 A 
ATOM     17  C   LIG    1        4.591  -0.303  -1.325  0.00  0.00    -0.032 A 
ATOM     18  C   LIG    1        3.706  -0.710  -0.181  0.00  0.00    +0.067 C 
ATOM     19  C   LIG    1        0.002  -0.004   0.002  0.00  0.00    +0.005 A 
ENDROOT
BRANCH  14  20
ATOM     20  O   LIG    1        7.113   0.776  -4.421  0.00  0.00    -0.503 OA
ATOM     21  H   LIG    1        7.889   1.274  -4.129  0.00  0.00    +0.292 HD
ENDBRANCH  14  20
BRANCH  15  22
ATOM     22  O   LIG    1        5.038   2.443  -3.677  0.00  0.00    -0.503 OA
ATOM     23  H   LIG    1        5.517   3.187  -3.286  0.00  0.00    +0.292 HD
ENDBRANCH  15  22
TORSDOF 2
