REMARK  Name = ZINC16052001
REMARK                            x       y       z     vdW  Elec       q    Type
REMARK                         _______ _______ _______ _____ _____    ______ ____
ROOT
ATOM      1  C   LIG    1        2.462   2.606  -4.737  0.00  0.00    +0.051 C 
ATOM      2  C   LIG    1        2.565   1.718  -3.524  0.00  0.00    +0.030 A 
ATOM      3  C   LIG    1        1.995   2.086  -2.356  0.00  0.00    +0.099 A 
ATOM      4  N   LIG    1        2.099   1.268  -1.264  0.00  0.00    -0.301 N 
ATOM      5  C   LIG    1        2.768   0.103  -1.341  0.00  0.00    +0.332 A 
ATOM      6  N   LIG    1        3.342  -0.290  -2.493  0.00  0.00    -0.256 N 
ATOM      7  O   LIG    1        2.852  -0.606  -0.357  0.00  0.00    -0.246 OA
ATOM      8  C   LIG    1        3.262   0.487  -3.592  0.00  0.00    +0.260 A 
ATOM      9  O   LIG    1        3.785   0.134  -4.634  0.00  0.00    -0.267 OA
ENDROOT
BRANCH   4  10
ATOM     10  C   LIG    1        1.481   1.667   0.003  0.00  0.00    +0.121 C 
BRANCH  10  11
ATOM     11  CA  LIG    1        0.046   1.138   0.059  0.00  0.00    +0.056 C 
BRANCH  11  12
ATOM     12  N   LIG    1       -0.716   1.589  -1.119  0.00  0.00    +0.388 N 
ATOM     13  H1  LIG    1       -1.682   1.251  -1.045  0.00  0.00    -0.089 HD
ATOM     14  H2  LIG    1       -0.297   1.215  -1.969  0.00  0.00    -0.089 HD
ATOM     15  H3  LIG    1       -0.721   2.607  -1.163  0.00  0.00    -0.089 HD
ENDBRANCH  11  12
BRANCH  11  16
ATOM     16  C   LIG    1       -0.630   1.651   1.305  0.00  0.00    +0.292 C 
ATOM     17  O   LIG    1       -1.379   2.597   1.240  0.00  0.00    -0.253 OA
BRANCH  16  18
ATOM     18  OXT LIG    1       -0.400   1.057   2.486  0.00  0.00    -0.482 OA
ATOM     19  HXT LIG    1        0.181   0.324   2.537  0.00  0.00    +0.295 HD
ENDBRANCH  16  18
ENDBRANCH  11  16
ENDBRANCH  10  11
ENDBRANCH   4  10
BRANCH   6  20
ATOM     20  C   LIG    1        4.060  -1.565  -2.552  0.00  0.00    +0.166 C 
BRANCH  20  21
ATOM     21  C   LIG    1        5.524  -1.331  -2.282  0.00  0.00    -0.006 A 
ATOM     22  C   LIG    1        5.995  -0.095  -1.917  0.00  0.00    +0.014 A 
ATOM     23  C   LIG    1        7.325   0.066  -1.684  0.00  0.00    +0.046 A 
ATOM     24  S   LIG    1        7.971  -1.517  -1.969  0.00  0.00    -0.090 S 
ATOM     25  C   LIG    1        6.453  -2.356  -2.386  0.00  0.00    +0.101 A 
BRANCH  25  26
ATOM     26  C   LIG    1        6.242  -3.759  -2.746  0.00  0.00    +0.344 C 
ATOM     27  O   LIG    1        5.141  -4.138  -3.098  0.00  0.00    -0.245 OA
BRANCH  26  28
ATOM     28  O   LIG    1        7.269  -4.632  -2.687  0.00  0.00    -0.477 OA
ATOM     29  H   LIG    1        8.117  -4.340  -2.416  0.00  0.00    +0.295 HD
ENDBRANCH  26  28
ENDBRANCH  25  26
ENDBRANCH  20  21
ENDBRANCH   6  20
TORSDOF 9
