REMARK  Name = ZINC22450939
REMARK                            x       y       z     vdW  Elec       q    Type
REMARK                         _______ _______ _______ _____ _____    ______ ____
ROOT
ATOM      1  C   LIG    1        1.843   5.568  -0.062  0.00  0.00    +0.164 A 
ATOM      2  C   LIG    1        1.960   4.205   0.100  0.00  0.00    +0.078 A 
ATOM      3  C   LIG    1        0.816   3.401   0.033  0.00  0.00    +0.080 A 
ATOM      4  C   LIG    1       -0.446   4.003  -0.200  0.00  0.00    +0.044 A 
ATOM      5  C   LIG    1       -1.584   3.164  -0.263  0.00  0.00    +0.134 A 
ATOM      6  N   LIG    1       -1.411   1.858  -0.105  0.00  0.00    -0.220 NA
ATOM      7  C   LIG    1       -0.213   1.341   0.116  0.00  0.00    +0.223 A 
ATOM      8  C   LIG    1       -0.538   5.390  -0.361  0.00  0.00    +0.062 A 
ATOM      9  N   LIG    1        0.877   2.068   0.184  0.00  0.00    -0.235 NA
ATOM     10  C   LIG    1        0.591   6.156  -0.292  0.00  0.00    +0.162 A 
ENDROOT
BRANCH   5  11
ATOM     11  N   LIG    1       -2.840   3.690  -0.488  0.00  0.00    -0.297 N 
ATOM     12  H   LIG    1       -2.955   4.761  -0.715  0.00  0.00    +0.154 HD
BRANCH  11  13
ATOM     13  C   LIG    1       -3.967   2.862  -0.427  0.00  0.00    +0.068 A 
ATOM     14  C   LIG    1       -3.899   1.642   0.231  0.00  0.00    +0.027 A 
ATOM     15  C   LIG    1       -5.012   0.827   0.289  0.00  0.00    +0.022 A 
ATOM     16  C   LIG    1       -6.196   1.224  -0.307  0.00  0.00    +0.044 A 
ATOM     17 CL   LIG    1       -7.592   0.196  -0.231  0.00  0.00    -0.083 Cl
ATOM     18  C   LIG    1       -6.268   2.439  -0.965  0.00  0.00    +0.060 A 
ATOM     19  C   LIG    1       -5.159   3.263  -1.022  0.00  0.00    +0.146 A 
ATOM     20  F   LIG    1       -5.231   4.452  -1.658  0.00  0.00    -0.203 F 
ENDBRANCH  11  13
ENDBRANCH   5  11
BRANCH  10  21
ATOM     21  O   LIG    1        0.500   7.504  -0.449  0.00  0.00    -0.491 OA
ATOM     22  C   LIG    1       -0.802   8.043  -0.681  0.00  0.00    +0.277 C 
ENDBRANCH  10  21
BRANCH   1  23
ATOM     23  O   LIG    1        2.951   6.350   0.002  0.00  0.00    -0.490 OA
BRANCH  23  24
ATOM     24  C   LIG    1        4.197   5.692   0.239  0.00  0.00    +0.211 C 
BRANCH  24  25
ATOM     25  C   LIG    1        5.322   6.728   0.278  0.00  0.00    -0.037 C 
BRANCH  25  30
ATOM     26  C   LIG    1        5.710  10.090   4.800  0.00  0.00    +0.104 C 
ATOM     27  N   LIG    1        5.920   9.183   3.663  0.00  0.00    -0.309 NA
ATOM     28  C   LIG    1        5.170   7.932   3.844  0.00  0.00    +0.065 C 
ATOM     29  C   LIG    1        5.476   6.985   2.681  0.00  0.00    -0.063 C 
ATOM     30  N   LIG    1        5.113   7.635   1.414  0.00  0.00    +0.384 N 
ATOM     31  H   LIG    1        4.042   7.883   1.454  0.00  0.00    -0.082 HD
ATOM     32  C   LIG    1        5.863   8.886   1.234  0.00  0.00    -0.063 C 
ATOM     33  C   LIG    1        5.556   9.833   2.397  0.00  0.00    +0.065 C 
ENDBRANCH  25  30
ENDBRANCH  24  25
ENDBRANCH  23  24
ENDBRANCH   1  23
TORSDOF 7
