REMARK  Name = ZINC26577575
REMARK                            x       y       z     vdW  Elec       q    Type
REMARK                         _______ _______ _______ _____ _____    ______ ____
ROOT
ATOM      1  C   LIG    1        1.266  -2.341  -2.581  0.00  0.00    +0.073 C 
ATOM      2  C   LIG    1        1.374  -3.672  -2.732  0.00  0.00    +0.017 C 
ATOM      3  C   LIG    1        0.617  -4.587  -1.805  0.00  0.00    +0.061 C 
ATOM      4  N   LIG    1        2.161  -4.208  -3.713  0.00  0.00    -0.317 N 
ATOM      5  H   LIG    1        2.040  -5.133  -3.979  0.00  0.00    +0.152 HD
ATOM      6  C   LIG    1        3.126  -3.439  -4.324  0.00  0.00    +0.050 C 
ATOM      7  C   LIG    1        3.086  -2.083  -4.236  0.00  0.00    +0.078 C 
ATOM      8  C   LIG    1        1.986  -1.383  -3.486  0.00  0.00    +0.141 C 
ENDROOT
BRANCH   6   9
ATOM      9  C   LIG    1        4.213  -4.092  -5.081  0.00  0.00    -0.003 A 
ATOM     10  C   LIG    1        4.930  -5.146  -4.510  0.00  0.00    +0.010 A 
ATOM     11  C   LIG    1        5.944  -5.752  -5.223  0.00  0.00    +0.001 A 
ATOM     12  C   LIG    1        6.252  -5.317  -6.500  0.00  0.00    +0.000 A 
ATOM     13  C   LIG    1        5.546  -4.274  -7.072  0.00  0.00    +0.001 A 
ATOM     14  C   LIG    1        4.525  -3.663  -6.373  0.00  0.00    +0.010 A 
ENDBRANCH   6   9
BRANCH   1  15
ATOM     15  C   LIG    1        0.448  -1.829  -1.548  0.00  0.00    +0.338 C 
ATOM     16  O   LIG    1       -0.676  -1.437  -1.799  0.00  0.00    -0.245 OA
BRANCH  15  17
ATOM     17  O   LIG    1        0.914  -1.776  -0.282  0.00  0.00    -0.462 OA
BRANCH  17  19
ATOM     18  C   LIG    1        0.731  -1.267   2.073  0.00  0.00    +0.048 C 
ATOM     19  C   LIG    1        0.034  -1.247   0.711  0.00  0.00    +0.229 C 
ENDBRANCH  17  19
ENDBRANCH  15  17
ENDBRANCH   1  15
BRANCH   7  20
ATOM     20  C   LIG    1        4.090  -1.320  -4.863  0.00  0.00    +0.339 C 
ATOM     21  O   LIG    1        3.840  -0.706  -5.884  0.00  0.00    -0.245 OA
BRANCH  20  22
ATOM     22  O   LIG    1        5.331  -1.270  -4.332  0.00  0.00    -0.457 OA
BRANCH  22  23
ATOM     23  C   LIG    1        6.269  -0.391  -4.956  0.00  0.00    +0.268 C 
BRANCH  23  24
ATOM     24  C   LIG    1        7.617  -0.547  -4.300  0.00  0.00    -0.010 A 
ATOM     25  C   LIG    1        7.914   0.165  -3.153  0.00  0.00    +0.007 A 
ATOM     26  C   LIG    1        9.150   0.022  -2.552  0.00  0.00    +0.000 A 
ATOM     27  C   LIG    1       10.089  -0.834  -3.097  0.00  0.00    +0.000 A 
ATOM     28  C   LIG    1        9.792  -1.546  -4.243  0.00  0.00    +0.000 A 
ATOM     29  C   LIG    1        8.554  -1.406  -4.843  0.00  0.00    +0.007 A 
ENDBRANCH  23  24
ENDBRANCH  22  23
ENDBRANCH  20  22
ENDBRANCH   7  20
BRANCH   8  30
ATOM     30  C   LIG    1        2.569  -0.299  -2.679  0.00  0.00    -0.084 C 
ATOM     31  C   LIG    1        3.034   0.565  -2.034  0.00  0.00    -0.065 C 
BRANCH  31  32
ATOM     32  C   LIG    1        3.601   1.619  -1.248  0.00  0.00    +0.025 A 
ATOM     33  C   LIG    1        3.437   1.627   0.137  0.00  0.00    +0.017 A 
ATOM     34  C   LIG    1        3.986   2.645   0.889  0.00  0.00    +0.001 A 
ATOM     35  C   LIG    1        4.698   3.658   0.271  0.00  0.00    +0.000 A 
ATOM     36  C   LIG    1        4.865   3.656  -1.102  0.00  0.00    +0.001 A 
ATOM     37  C   LIG    1        4.325   2.641  -1.865  0.00  0.00    +0.017 A 
ENDBRANCH  31  32
ENDBRANCH   8  30
TORSDOF 10
