REMARK  Name = ZINC00015515
REMARK                            x       y       z     vdW  Elec       q    Type
REMARK                         _______ _______ _______ _____ _____    ______ ____
ROOT
ATOM      1  C   LIG    1       -2.772  -2.558  -0.111  0.00  0.00    -0.024 A 
ATOM      2  C   LIG    1       -3.448  -3.011   0.957  0.00  0.00    +0.087 A 
ATOM      3  N   LIG    1       -4.705  -3.401   0.582  0.00  0.00    -0.360 N 
ATOM      4  C   LIG    1       -4.873  -3.204  -0.770  0.00  0.00    +0.047 A 
ATOM      5  C   LIG    1       -5.930  -3.426  -1.647  0.00  0.00    +0.026 A 
ATOM      6  C   LIG    1       -5.793  -3.103  -2.979  0.00  0.00    +0.006 A 
ATOM      7  C   LIG    1       -4.605  -2.572  -3.461  0.00  0.00    -0.045 A 
ATOM      8  C   LIG    1       -3.552  -2.351  -2.618  0.00  0.00    +0.014 A 
ATOM      9  H   LIG    1       -5.378  -3.762   1.180  0.00  0.00    +0.165 HD
ATOM     10  C   LIG    1       -3.672  -2.662  -1.263  0.00  0.00    +0.003 A 
ENDROOT
BRANCH   1  11
ATOM     11  C   LIG    1       -1.358  -2.037  -0.122  0.00  0.00    +0.018 C 
BRANCH  11  12
ATOM     12  C   LIG    1       -1.376  -0.512   0.012  0.00  0.00    -0.075 C 
BRANCH  12  14
ATOM     13  C   LIG    1       -0.018   1.465   0.010  0.00  0.00    -0.097 C 
ATOM     14  N   LIG    1        0.002  -0.004   0.002  0.00  0.00    +0.376 N 
ATOM     15  H   LIG    1        0.474  -0.330  -0.828  0.00  0.00    -0.083 HD
ATOM     16  C   LIG    1        0.713  -0.491   1.192  0.00  0.00    -0.097 C 
ENDBRANCH  12  14
ENDBRANCH  11  12
ENDBRANCH   1  11
BRANCH   7  17
ATOM     17  C   LIG    1       -4.475  -2.237  -4.924  0.00  0.00    +0.061 C 
BRANCH  17  18
ATOM     18  C   LIG    1       -3.941  -3.454  -5.681  0.00  0.00    +0.118 C 
ATOM     19  C   LIG    1       -3.847  -3.163  -7.198  0.00  0.00    +0.256 C 
ATOM     20  O   LIG    1       -2.634  -3.849  -7.561  0.00  0.00    -0.449 OA
ATOM     21  C   LIG    1       -1.851  -3.915  -6.471  0.00  0.00    +0.401 C 
ATOM     22  O   LIG    1       -0.656  -4.130  -6.513  0.00  0.00    -0.226 OA
ATOM     23  N   LIG    1       -2.535  -3.722  -5.322  0.00  0.00    -0.275 N 
ATOM     24  H   LIG    1       -2.169  -3.750  -4.424  0.00  0.00    +0.152 HD
ENDBRANCH  17  18
ENDBRANCH   7  17
TORSDOF 5
