REMARK  Name = ZINC38209104
REMARK                            x       y       z     vdW  Elec       q    Type
REMARK                         _______ _______ _______ _____ _____    ______ ____
ROOT
ATOM      1  C   LIG    1        5.514  -2.091   1.818  0.00  0.00    +0.097 C 
ATOM      2  C   LIG    1        5.220  -1.514   3.205  0.00  0.00    +0.050 C 
ATOM      3  C   LIG    1        6.520  -0.991   3.822  0.00  0.00    +0.109 C 
ATOM      4  N   LIG    1        7.515  -2.072   3.816  0.00  0.00    -0.314 N 
ATOM      5  C   LIG    1        7.807  -2.757   2.550  0.00  0.00    +0.109 C 
ATOM      6  C   LIG    1        6.492  -3.261   1.947  0.00  0.00    +0.050 C 
ENDROOT
BRANCH   1  15
ATOM      7  C   LIG    1        4.376  -1.100  -4.758  0.00  0.00    +0.000 A 
ATOM      8  C   LIG    1        5.696  -1.206  -4.362  0.00  0.00    +0.000 A 
ATOM      9  C   LIG    1        5.999  -1.749  -3.131  0.00  0.00    +0.005 A 
ATOM     10  C   LIG    1        4.988  -2.187  -2.285  0.00  0.00    -0.027 A 
ATOM     11  C   LIG    1        3.673  -2.073  -2.674  0.00  0.00    -0.041 A 
ATOM     12  C   LIG    1        2.523  -2.497  -1.799  0.00  0.00    +0.054 C 
ATOM     13  C   LIG    1        2.989  -3.480  -0.727  0.00  0.00    +0.113 C 
ATOM     14  N   LIG    1        4.205  -2.930  -0.106  0.00  0.00    -0.295 N 
ATOM     15  C   LIG    1        4.231  -2.576   1.194  0.00  0.00    +0.236 C 
ATOM     16  O   LIG    1        3.221  -2.649   1.862  0.00  0.00    -0.274 OA
ATOM     17  C   LIG    1        5.389  -2.783  -0.960  0.00  0.00    +0.143 C 
ATOM     18  C   LIG    1        3.371  -1.532  -3.919  0.00  0.00    +0.004 A 
ENDBRANCH   1  15
BRANCH   4  19
ATOM     19  C   LIG    1        8.165  -2.438   4.981  0.00  0.00    +0.134 A 
ATOM     20  C   LIG    1        9.400  -1.867   5.326  0.00  0.00    +0.059 A 
ATOM     21  C   LIG    1       10.288  -0.877   4.721  0.00  0.00    +0.032 A 
ATOM     22  C   LIG    1       11.342  -0.747   5.543  0.00  0.00    +0.085 A 
ATOM     23  N   LIG    1       11.193  -1.576   6.624  0.00  0.00    -0.346 N 
ATOM     24  H   LIG    1       11.826  -1.657   7.355  0.00  0.00    +0.167 HD
ATOM     25  C   LIG    1       10.020  -2.272   6.522  0.00  0.00    +0.143 A 
ATOM     26  N   LIG    1        9.410  -3.183   7.279  0.00  0.00    -0.218 NA
ATOM     27  C   LIG    1        8.252  -3.692   6.917  0.00  0.00    +0.225 A 
ATOM     28  N   LIG    1        7.633  -3.335   5.806  0.00  0.00    -0.220 NA
ENDBRANCH   4  19
BRANCH   1  29
ATOM     29  N   LIG    1        6.106  -1.048   0.970  0.00  0.00    -0.317 NA
ATOM     30  H   LIG    1        6.976  -0.716   1.360  0.00  0.00    +0.119 HD
ATOM     31  H   LIG    1        5.460  -0.287   0.828  0.00  0.00    +0.119 HD
ENDBRANCH   1  29
TORSDOF 3
