REMARK  Name = ZINC28823959
REMARK                            x       y       z     vdW  Elec       q    Type
REMARK                         _______ _______ _______ _____ _____    ______ ____
ROOT
ATOM      1  C   LIG    1       -5.804  -0.618   6.246  0.00  0.00    +0.042 A 
ATOM      2  C   LIG    1       -6.110  -1.872   5.739  0.00  0.00    +0.043 A 
ATOM      3  C   LIG    1       -5.433  -2.348   4.626  0.00  0.00    +0.113 A 
ATOM      4  N   LIG    1       -4.501  -1.643   4.028  0.00  0.00    -0.255 NA
ATOM      5  C   LIG    1       -4.154  -0.425   4.463  0.00  0.00    +0.073 A 
ATOM      6  C   LIG    1       -3.155   0.314   3.810  0.00  0.00    +0.040 A 
ATOM      7  C   LIG    1       -2.817   1.570   4.281  0.00  0.00    +0.028 A 
ATOM      8  C   LIG    1       -3.460   2.107   5.408  0.00  0.00    +0.098 A 
ATOM      9  C   LIG    1       -4.434   1.409   6.050  0.00  0.00    +0.039 A 
ATOM     10  C   LIG    1       -4.797   0.132   5.594  0.00  0.00    +0.023 A 
ENDROOT
BRANCH   7  11
ATOM     11  C   LIG    1       -1.762   2.353   3.594  0.00  0.00    +0.080 A 
ATOM     12  C   LIG    1       -0.498   1.851   3.438  0.00  0.00    +0.075 A 
ATOM     13  S   LIG    1        0.288   3.202   2.571  0.00  0.00    -0.079 S 
ATOM     14  C   LIG    1       -1.087   4.260   2.504  0.00  0.00    +0.093 A 
ATOM     15  N   LIG    1       -2.011   3.563   3.117  0.00  0.00    -0.243 NA
BRANCH  14  16
ATOM     16  C   LIG    1       -1.189   5.636   1.898  0.00  0.00    +0.147 C 
BRANCH  16  17
ATOM     17  N   LIG    1       -0.639   6.626   2.835  0.00  0.00    -0.292 NA
ATOM     18  C   LIG    1       -1.532   6.813   3.988  0.00  0.00    +0.113 C 
ATOM     19  C   LIG    1       -0.894   7.804   4.965  0.00  0.00    +0.175 C 
ATOM     20  O   LIG    1       -0.626   9.032   4.283  0.00  0.00    -0.377 OA
ATOM     21  C   LIG    1        0.241   8.887   3.155  0.00  0.00    +0.175 C 
ATOM     22  C   LIG    1       -0.385   7.907   2.159  0.00  0.00    +0.113 C 
ENDBRANCH  16  17
ENDBRANCH  14  16
ENDBRANCH   7  11
BRANCH   8  23
ATOM     23  S   LIG    1       -3.005   3.706   5.991  0.00  0.00    -0.005 S 
ATOM     24  C   LIG    1       -1.266   3.545   6.482  0.00  0.00    +0.200 C 
ATOM     25  O   LIG    1       -3.818   3.919   7.137  0.00  0.00    -0.170 OA
ATOM     26  O   LIG    1       -3.117   4.552   4.855  0.00  0.00    -0.170 OA
ENDBRANCH   8  23
BRANCH   1  27
ATOM     27  N   LIG    1       -6.463  -0.116   7.358  0.00  0.00    -0.314 N 
ATOM     28  H   LIG    1       -5.941   0.565   8.047  0.00  0.00    +0.152 HD
BRANCH  27  35
ATOM     29  C   LIG    1       -7.533   0.398   9.943  0.00  0.00    +0.045 C 
ATOM     30  C   LIG    1       -8.355  -0.241   8.853  0.00  0.00    -0.029 A 
ATOM     31  C   LIG    1       -9.668  -0.596   9.096  0.00  0.00    +0.009 A 
ATOM     32  C   LIG    1      -10.424  -1.182   8.099  0.00  0.00    +0.046 A 
ATOM     33  C   LIG    1       -9.866  -1.416   6.849  0.00  0.00    +0.119 A 
ATOM     34  C   LIG    1       -8.551  -1.058   6.600  0.00  0.00    +0.069 A 
ATOM     35  C   LIG    1       -7.791  -0.474   7.604  0.00  0.00    +0.038 A 
BRANCH  33  36
ATOM     36  O   LIG    1      -10.611  -1.992   5.870  0.00  0.00    -0.507 OA
ATOM     37  H   LIG    1      -10.169  -2.178   4.880  0.00  0.00    +0.292 HD
ENDBRANCH  33  36
ENDBRANCH  27  35
ENDBRANCH   1  27
TORSDOF 7
