REMARK  Name = ZINC27635429
REMARK                            x       y       z     vdW  Elec       q    Type
REMARK                         _______ _______ _______ _____ _____    ______ ____
ROOT
ATOM      1  C   LIG    1        3.487   2.133  -1.279  0.00  0.00    +0.008 C 
ATOM      2  C   LIG    1        2.062   1.579  -1.280  0.00  0.00    -0.000 C 
ATOM      3  C   LIG    1        1.344   2.014   0.000  0.00  0.00    -0.077 C 
ATOM      4  N   LIG    1       -0.018   1.464   0.010  0.00  0.00    +0.381 N 
ATOM      5  H   LIG    1       -0.560   1.813  -0.881  0.00  0.00    -0.086 HD
ATOM      6  H   LIG    1       -0.543   1.803   0.915  0.00  0.00    -0.086 HD
ATOM      7  C   LIG    1        0.002  -0.004   0.002  0.00  0.00    -0.048 C 
ATOM      8  C   LIG    1        0.680  -0.499  -1.278  0.00  0.00    +0.126 C 
ATOM      9  C   LIG    1        2.108   0.049  -1.338  0.00  0.00    +0.142 C 
ENDROOT
BRANCH   8  10
ATOM     10  O   LIG    1       -0.056  -0.042  -2.414  0.00  0.00    -0.391 OA
ATOM     11  H   LIG    1        0.282  -0.301  -3.429  0.00  0.00    +0.210 HD
ENDBRANCH   8  10
BRANCH   9  12
ATOM     12  O   LIG    1        2.859  -0.450  -0.230  0.00  0.00    -0.389 OA
ATOM     13  H   LIG    1        3.000  -1.533  -0.105  0.00  0.00    +0.210 HD
ENDBRANCH   9  12
TORSDOF 2
