REMARK  Name = ZINC43199965
REMARK                            x       y       z     vdW  Elec       q    Type
REMARK                         _______ _______ _______ _____ _____    ______ ____
ROOT
ATOM      1  C   LIG    1        4.406  -1.094   1.637  0.00  0.00    +0.112 A 
ATOM      2  C   LIG    1        5.162  -0.162   2.288  0.00  0.00    +0.039 A 
ATOM      3  C   LIG    1        5.516  -0.411   3.627  0.00  0.00    +0.004 A 
ATOM      4  C   LIG    1        6.290   0.503   4.360  0.00  0.00    +0.010 A 
ATOM      5  C   LIG    1        6.616   0.233   5.654  0.00  0.00    +0.003 A 
ATOM      6  C   LIG    1        6.193  -0.942   6.270  0.00  0.00    +0.025 A 
ATOM      7  C   LIG    1        5.433  -1.863   5.584  0.00  0.00    +0.056 A 
ATOM      8  C   LIG    1        5.078  -1.611   4.240  0.00  0.00    +0.092 A 
ATOM      9  N   LIG    1        4.341  -2.482   3.547  0.00  0.00    -0.251 NA
ATOM     10  C   LIG    1        4.004  -2.251   2.301  0.00  0.00    +0.138 A 
ENDROOT
BRANCH   7  11
ATOM     11  N   LIG    1        5.016  -3.037   6.212  0.00  0.00    -0.332 N 
ATOM     12  C   LIG    1        5.845  -4.252   6.171  0.00  0.00    +0.086 C 
ATOM     13  C   LIG    1        6.000  -4.782   7.600  0.00  0.00    -0.063 C 
ATOM     14  N   LIG    1        4.672  -4.974   8.197  0.00  0.00    +0.381 N 
ATOM     15  H   LIG    1        4.771  -5.394   9.109  0.00  0.00    -0.086 HD
ATOM     16  H   LIG    1        4.124  -5.583   7.607  0.00  0.00    -0.086 HD
ATOM     17  C   LIG    1        3.990  -3.680   8.327  0.00  0.00    -0.063 C 
ATOM     18  C   LIG    1        3.739  -3.093   6.939  0.00  0.00    +0.086 C 
ENDBRANCH   7  11
BRANCH   1  19
ATOM     19  S   LIG    1        3.934  -0.832  -0.041  0.00  0.00    +0.027 S 
ATOM     20  O   LIG    1        4.890   0.060  -0.597  0.00  0.00    -0.164 OA
ATOM     21  O   LIG    1        3.674  -2.114  -0.595  0.00  0.00    -0.164 OA
BRANCH  19  25
ATOM     22  C   LIG    1       -0.017   1.378   0.010  0.00  0.00    +0.000 A 
ATOM     23  C   LIG    1        1.171   2.086   0.002  0.00  0.00    +0.002 A 
ATOM     24  C   LIG    1        2.377   1.411  -0.013  0.00  0.00    +0.027 A 
ATOM     25  C   LIG    1        2.396   0.029  -0.020  0.00  0.00    +0.094 A 
ATOM     26  C   LIG    1        1.208  -0.679  -0.012  0.00  0.00    +0.027 A 
ATOM     27  C   LIG    1        0.002  -0.004   0.002  0.00  0.00    +0.002 A 
ENDBRANCH  19  25
ENDBRANCH   1  19
TORSDOF 3
