REMARK  Name = ZINC21364693
REMARK                            x       y       z     vdW  Elec       q    Type
REMARK                         _______ _______ _______ _____ _____    ______ ____
ROOT
ATOM      1  C   LIG    1       -1.273   5.916  -0.060  0.00  0.00    +0.189 A 
ATOM      2  C   LIG    1       -1.286   7.387  -0.157  0.00  0.00    +0.289 A 
ATOM      3  N   LIG    1       -2.471   8.029  -0.248  0.00  0.00    -0.318 N 
ATOM      4  C   LIG    1       -3.639   7.288  -0.238  0.00  0.00    +0.068 A 
ATOM      5  C   LIG    1       -4.873   7.925  -0.325  0.00  0.00    +0.028 A 
ATOM      6  C   LIG    1       -6.032   7.180  -0.314  0.00  0.00    +0.002 A 
ATOM      7  C   LIG    1       -5.979   5.796  -0.217  0.00  0.00    +0.002 A 
ATOM      8  C   LIG    1       -4.779   5.151  -0.130  0.00  0.00    +0.030 A 
ATOM      9  C   LIG    1       -3.585   5.887  -0.139  0.00  0.00    +0.089 A 
ATOM     10  H   LIG    1       -2.498   9.126  -0.328  0.00  0.00    +0.169 HD
ATOM     11  O   LIG    1       -0.243   8.015  -0.159  0.00  0.00    -0.264 OA
ATOM     12  N   LIG    1       -2.400   5.249  -0.053  0.00  0.00    -0.225 NA
ENDROOT
BRANCH   1  13
ATOM     13  N   LIG    1       -0.069   5.239   0.030  0.00  0.00    -0.295 N 
ATOM     14  H   LIG    1        0.873   5.802   0.113  0.00  0.00    +0.154 HD
BRANCH  13  18
ATOM     15  C   LIG    1       -0.010   1.076  -0.016  0.00  0.00    +0.000 A 
ATOM     16  C   LIG    1        0.926   1.771   0.727  0.00  0.00    +0.002 A 
ATOM     17  C   LIG    1        0.913   3.152   0.741  0.00  0.00    +0.023 A 
ATOM     18  C   LIG    1       -0.050   3.843   0.015  0.00  0.00    +0.032 A 
ATOM     19  C   LIG    1       -0.992   3.141  -0.726  0.00  0.00    +0.023 A 
ATOM     20  C   LIG    1       -0.970   1.760  -0.739  0.00  0.00    +0.002 A 
ENDBRANCH  13  18
ENDBRANCH   1  13
TORSDOF 2
