REMARK  Name = ZINC13760950
REMARK                            x       y       z     vdW  Elec       q    Type
REMARK                         _______ _______ _______ _____ _____    ______ ____
ROOT
ATOM      1  C   LIG    1        5.882  -1.921  -6.518  0.00  0.00    +0.069 C 
ATOM      2  C   LIG    1        6.087  -2.036  -5.029  0.00  0.00    +0.079 A 
ATOM      3  C   LIG    1        7.145  -2.627  -4.418  0.00  0.00    +0.123 A 
ATOM      4  N   LIG    1        6.944  -2.515  -3.070  0.00  0.00    -0.285 N 
ATOM      5  C   LIG    1        7.675  -2.925  -1.986  0.00  0.00    +0.094 A 
ATOM      6  C   LIG    1        7.242  -2.682  -0.733  0.00  0.00    +0.022 A 
ATOM      7  C   LIG    1        6.029  -2.004  -0.518  0.00  0.00    +0.051 A 
ATOM      8  C   LIG    1        5.287  -1.589  -1.585  0.00  0.00    +0.164 A 
ATOM      9  C   LIG    1        5.751  -1.855  -2.894  0.00  0.00    +0.182 A 
ATOM     10  N   LIG    1        5.257  -1.572  -4.089  0.00  0.00    -0.228 NA
ENDROOT
BRANCH   3  11
ATOM     11  N   LIG    1        8.236  -3.238  -5.049  0.00  0.00    -0.343 N 
ATOM     12  H   LIG    1        8.283  -3.264  -6.017  0.00  0.00    +0.144 HD
ATOM     13  H   LIG    1        8.944  -3.634  -4.517  0.00  0.00    +0.144 HD
ENDBRANCH   3  11
BRANCH   8  14
ATOM     14  O   LIG    1        4.113  -0.932  -1.391  0.00  0.00    -0.484 OA
BRANCH  14  15
ATOM     15  C   LIG    1        3.711  -0.707  -0.039  0.00  0.00    +0.264 C 
BRANCH  15  16
ATOM     16  C   LIG    1        2.396   0.029  -0.022  0.00  0.00    -0.010 A 
ATOM     17  C   LIG    1        1.208  -0.679  -0.014  0.00  0.00    +0.007 A 
ATOM     18  C   LIG    1        0.002  -0.004   0.002  0.00  0.00    +0.000 A 
ATOM     19  C   LIG    1       -0.017   1.378   0.010  0.00  0.00    +0.000 A 
ATOM     20  C   LIG    1        1.171   2.086   0.002  0.00  0.00    +0.000 A 
ATOM     21  C   LIG    1        2.377   1.411  -0.014  0.00  0.00    +0.007 A 
ENDBRANCH  15  16
ENDBRANCH  14  15
ENDBRANCH   8  14
TORSDOF 4
