REMARK  Name = ZINC19796168
REMARK                            x       y       z     vdW  Elec       q    Type
REMARK                         _______ _______ _______ _____ _____    ______ ____
ROOT
ATOM      1  C   LIG    1       -1.422  -3.233  -4.785  0.00  0.00    +0.061 A 
ATOM      2  C   LIG    1       -1.418  -4.249  -5.743  0.00  0.00    +0.043 A 
ATOM      3  C   LIG    1       -1.430  -3.930  -7.084  0.00  0.00    +0.106 A 
ATOM      4  C   LIG    1       -1.445  -2.605  -7.486  0.00  0.00    +0.032 A 
ATOM      5  C   LIG    1       -1.448  -1.590  -6.549  0.00  0.00    +0.048 A 
ATOM      6  C   LIG    1       -1.443  -1.894  -5.196  0.00  0.00    +0.131 A 
ENDROOT
BRANCH   1  14
ATOM      7  C   LIG    1       -1.413  -2.041   0.005  0.00  0.00    +0.089 A 
ATOM      8  C   LIG    1       -1.407  -2.855  -1.145  0.00  0.00    +0.119 A 
ATOM      9  C   LIG    1       -1.386  -4.184  -0.703  0.00  0.00    +0.151 A 
ATOM     10  N   LIG    1       -1.380  -4.150   0.664  0.00  0.00    -0.260 N 
ATOM     11  C   LIG    1       -1.360  -5.313   1.555  0.00  0.00    +0.173 C 
ATOM     12  C   LIG    1       -1.377  -5.221  -1.664  0.00  0.00    +0.278 A 
ATOM     13  N   LIG    1       -1.389  -4.885  -2.973  0.00  0.00    -0.305 N 
ATOM     14  C   LIG    1       -1.409  -3.569  -3.348  0.00  0.00    +0.145 A 
ATOM     15  H   LIG    1       -1.383  -5.579  -3.650  0.00  0.00    +0.170 HD
ATOM     16  O   LIG    1       -1.359  -6.391  -1.321  0.00  0.00    -0.265 OA
ATOM     17  N   LIG    1       -1.417  -2.597  -2.468  0.00  0.00    -0.225 NA
ATOM     18  N   LIG    1       -1.392  -2.807   1.061  0.00  0.00    -0.174 NA
BRANCH   7  19
ATOM     19  C   LIG    1       -1.433  -0.534   0.013  0.00  0.00    +0.059 C 
BRANCH  19  21
ATOM     20  C   LIG    1       -0.019   1.526   0.010  0.00  0.00    +0.004 C 
ATOM     21  C   LIG    1        0.002  -0.004   0.002  0.00  0.00    +0.003 C 
ENDBRANCH  19  21
ENDBRANCH   7  19
ENDBRANCH   1  14
BRANCH   3  22
ATOM     22  S   LIG    1       -1.425  -5.213  -8.292  0.00  0.00    +0.061 S 
ATOM     23  O   LIG    1       -0.859  -6.357  -7.667  0.00  0.00    -0.153 OA
ATOM     24  O   LIG    1       -0.887  -4.650  -9.480  0.00  0.00    -0.153 OA
BRANCH  22  25
ATOM     25  N   LIG    1       -3.006  -5.585  -8.617  0.00  0.00    -0.180 NA
ATOM     26  C   LIG    1       -3.716  -6.615  -7.843  0.00  0.00    +0.091 C 
ATOM     27  C   LIG    1       -5.046  -6.029  -7.360  0.00  0.00    -0.062 C 
ATOM     28  N   LIG    1       -5.798  -5.510  -8.510  0.00  0.00    +0.380 N 
ATOM     29  H   LIG    1       -5.914  -6.244  -9.193  0.00  0.00    -0.082 HD
ATOM     30  C   LIG    1       -7.118  -5.048  -8.062  0.00  0.00    -0.096 C 
ATOM     31  C   LIG    1       -5.070  -4.389  -9.118  0.00  0.00    -0.062 C 
ATOM     32  C   LIG    1       -3.742  -4.890  -9.685  0.00  0.00    +0.091 C 
ENDBRANCH  22  25
ENDBRANCH   3  22
BRANCH   6  33
ATOM     33  O   LIG    1       -1.453  -0.898  -4.274  0.00  0.00    -0.492 OA
BRANCH  33  34
ATOM     34  C   LIG    1       -1.474   0.443  -4.767  0.00  0.00    +0.226 C 
ATOM     35  C   LIG    1       -1.482   1.419  -3.589  0.00  0.00    +0.048 C 
ENDBRANCH  33  34
ENDBRANCH   6  33
TORSDOF 7
