REMARK  Name = ZINC53227598
REMARK                            x       y       z     vdW  Elec       q    Type
REMARK                         _______ _______ _______ _____ _____    ______ ____
ROOT
ATOM      1  C   LIG    1        4.236  -6.054  -4.155  0.00  0.00    +0.042 A 
ATOM      2  C   LIG    1        3.681  -6.724  -3.083  0.00  0.00    +0.024 A 
ATOM      3  C   LIG    1        3.799  -8.095  -2.956  0.00  0.00    +0.011 A 
ATOM      4  C   LIG    1        4.490  -8.816  -3.929  0.00  0.00    +0.000 A 
ATOM      5  C   LIG    1        5.050  -8.145  -5.012  0.00  0.00    +0.030 A 
ATOM      6  S   LIG    1        5.982  -8.677  -6.425  0.00  0.00    -0.088 S 
ATOM      7  C   LIG    1        6.219  -7.107  -7.216  0.00  0.00    +0.021 A 
ATOM      8  C   LIG    1        6.859  -6.717  -8.375  0.00  0.00    +0.015 A 
ATOM      9  C   LIG    1        6.882  -5.381  -8.727  0.00  0.00    +0.001 A 
ATOM     10  C   LIG    1        6.260  -4.449  -7.909  0.00  0.00    +0.001 A 
ATOM     11  C   LIG    1        5.622  -4.830  -6.756  0.00  0.00    +0.010 A 
ATOM     12  C   LIG    1        5.582  -6.187  -6.370  0.00  0.00    -0.001 A 
ATOM     13  C   LIG    1        4.940  -6.757  -5.165  0.00  0.00    +0.019 A 
ENDROOT
BRANCH   4  14
ATOM     14  C   LIG    1        4.627 -10.287  -3.812  0.00  0.00    +0.026 A 
ATOM     15  C   LIG    1        3.503 -11.103  -3.888  0.00  0.00    +0.012 A 
ATOM     16  C   LIG    1        3.623 -12.477  -3.779  0.00  0.00    +0.002 A 
ATOM     17  C   LIG    1        4.861 -13.057  -3.592  0.00  0.00    +0.015 A 
ATOM     18  C   LIG    1        5.998 -12.255  -3.514  0.00  0.00    +0.065 A 
ATOM     19  C   LIG    1        7.339 -12.843  -3.315  0.00  0.00    +0.194 A 
ATOM     20  O   LIG    1        7.494 -14.050  -3.213  0.00  0.00    -0.287 OA
ATOM     21  C   LIG    1        8.434 -11.958  -3.265  0.00  0.00    +0.114 A 
ATOM     22  C   LIG    1        8.220 -10.617  -3.383  0.00  0.00    +0.193 A 
ATOM     23  O   LIG    1        6.998 -10.096  -3.557  0.00  0.00    -0.440 OA
ATOM     24  C   LIG    1        5.890 -10.863  -3.629  0.00  0.00    +0.149 A 
BRANCH  22  25
ATOM     25  N   LIG    1        9.296  -9.770  -3.320  0.00  0.00    -0.297 N 
ATOM     26  C   LIG    1       10.615 -10.182  -3.825  0.00  0.00    +0.136 C 
ATOM     27  C   LIG    1       11.136  -9.090  -4.766  0.00  0.00    +0.179 C 
ATOM     28  O   LIG    1       11.078  -7.827  -4.099  0.00  0.00    -0.377 OA
ATOM     29  C   LIG    1        9.757  -7.414  -3.741  0.00  0.00    +0.179 C 
ATOM     30  C   LIG    1        9.164  -8.419  -2.752  0.00  0.00    +0.136 C 
ENDBRANCH  22  25
ENDBRANCH   4  14
BRANCH   1  32
ATOM     31  C   LIG    1        2.914  -4.088  -3.960  0.00  0.00    +0.231 C 
ATOM     32  N   LIG    1        4.096  -4.668  -4.250  0.00  0.00    -0.284 N 
ATOM     33  H   LIG    1        4.849  -4.122  -4.524  0.00  0.00    +0.155 HD
ATOM     34  O   LIG    1        1.953  -4.775  -3.684  0.00  0.00    -0.274 OA
BRANCH  31  35
ATOM     35  C   LIG    1        2.786  -2.587  -3.978  0.00  0.00    +0.180 C 
BRANCH  35  40
ATOM     36  N   LIG    1       -1.060  -0.835  -4.044  0.00  0.00    +0.381 N 
ATOM     37  H   LIG    1       -0.828  -0.363  -4.905  0.00  0.00    -0.082 HD
ATOM     38  C   LIG    1       -0.129  -0.415  -2.989  0.00  0.00    -0.063 C 
ATOM     39  C   LIG    1        1.303  -0.760  -3.406  0.00  0.00    +0.066 C 
ATOM     40  N   LIG    1        1.410  -2.208  -3.630  0.00  0.00    -0.298 NA
ATOM     41  C   LIG    1        0.465  -2.647  -4.667  0.00  0.00    +0.066 C 
ATOM     42  C   LIG    1       -0.960  -2.287  -4.240  0.00  0.00    -0.063 C 
BRANCH  36  44
ATOM     43  C   LIG    1       -2.571   1.034  -3.569  0.00  0.00    -0.017 C 
ATOM     44  C   LIG    1       -2.433  -0.488  -3.651  0.00  0.00    -0.082 C 
ENDBRANCH  36  44
ENDBRANCH  35  40
ENDBRANCH  31  35
ENDBRANCH   1  32
TORSDOF 6
