REMARK  Name = ZINC40430143
REMARK                            x       y       z     vdW  Elec       q    Type
REMARK                         _______ _______ _______ _____ _____    ______ ____
ROOT
ATOM      1  C   LIG    1        0.392  -4.399   0.002  0.00  0.00    -0.041 A 
ATOM      2  C   LIG    1        0.562  -5.046  -1.211  0.00  0.00    +0.007 A 
ATOM      3  C   LIG    1        0.893  -6.387  -1.246  0.00  0.00    +0.039 A 
ATOM      4  C   LIG    1        1.058  -7.093  -0.068  0.00  0.00    +0.135 A 
ATOM      5  F   LIG    1        1.381  -8.404  -0.102  0.00  0.00    -0.205 F 
ATOM      6  C   LIG    1        0.887  -6.445   1.159  0.00  0.00    +0.072 A 
ATOM      7  C   LIG    1        0.557  -5.088   1.184  0.00  0.00    +0.020 A 
ENDROOT
BRANCH   6   8
ATOM      8  C   LIG    1        1.060  -7.190   2.423  0.00  0.00    +0.249 C 
ATOM      9  N   LIG    1        0.082  -7.182   3.349  0.00  0.00    -0.294 N 
ATOM     10  C   LIG    1       -1.214  -6.549   3.064  0.00  0.00    +0.127 C 
ATOM     11  C   LIG    1       -2.325  -7.579   3.298  0.00  0.00    +0.127 C 
ATOM     12  N   LIG    1       -2.116  -8.204   4.612  0.00  0.00    -0.298 N 
ATOM     13  C   LIG    1       -3.095  -8.196   5.539  0.00  0.00    +0.219 C 
ATOM     14  O   LIG    1       -4.160  -7.670   5.292  0.00  0.00    -0.275 OA
ATOM     15  C   LIG    1       -0.821  -8.837   4.898  0.00  0.00    +0.127 C 
ATOM     16  C   LIG    1        0.288  -7.811   4.661  0.00  0.00    +0.127 C 
ATOM     17  O   LIG    1        2.086  -7.810   2.627  0.00  0.00    -0.270 OA
BRANCH  13  18
ATOM     18  C   LIG    1       -2.867  -8.841   6.882  0.00  0.00    +0.075 C 
ATOM     19  C   LIG    1       -3.655 -10.114   7.197  0.00  0.00    +0.013 C 
ATOM     20  C   LIG    1       -4.017  -8.798   7.890  0.00  0.00    +0.013 C 
ENDBRANCH  13  18
ENDBRANCH   6   8
BRANCH   1  21
ATOM     21  C   LIG    1        0.030  -2.937   0.028  0.00  0.00    +0.093 C 
BRANCH  21  27
ATOM     22  C   LIG    1       -0.052   1.384   0.104  0.00  0.00    +0.001 A 
ATOM     23  C   LIG    1        1.125   2.122   0.117  0.00  0.00    +0.001 A 
ATOM     24  C   LIG    1        2.350   1.492   0.106  0.00  0.00    +0.014 A 
ATOM     25  C   LIG    1        2.403   0.099   0.081  0.00  0.00    +0.050 A 
ATOM     26  C   LIG    1        1.203  -0.648   0.069  0.00  0.00    +0.011 A 
ATOM     27  C   LIG    1        1.289  -2.108   0.042  0.00  0.00    +0.074 A 
ATOM     28  N   LIG    1        2.450  -2.691   0.031  0.00  0.00    -0.175 NA
ATOM     29  N   LIG    1        3.651  -1.980   0.043  0.00  0.00    -0.242 N 
ATOM     30  H   LIG    1        4.489  -2.468   0.034  0.00  0.00    +0.192 HD
ATOM     31  C   LIG    1        3.676  -0.631   0.067  0.00  0.00    +0.272 A 
ATOM     32  O   LIG    1        4.736  -0.031   0.077  0.00  0.00    -0.266 OA
ATOM     33  C   LIG    1       -0.024   0.018   0.080  0.00  0.00    +0.010 A 
ENDBRANCH  21  27
ENDBRANCH   1  21
TORSDOF 4
