REMARK  Name = ZINC19796181
REMARK                            x       y       z     vdW  Elec       q    Type
REMARK                         _______ _______ _______ _____ _____    ______ ____
ROOT
ATOM      1  C   LIG    1        1.909  -3.622   3.131  0.00  0.00    +0.018 C 
ENDROOT
BRANCH   1   2
ATOM      2  C   LIG    1        1.815  -2.099   3.014  0.00  0.00    +0.103 C 
BRANCH   2   3
ATOM      3  N   LIG    1        1.087  -1.748   1.791  0.00  0.00    -0.326 N 
ATOM      4  H   LIG    1        0.754  -2.447   1.207  0.00  0.00    +0.148 HD
BRANCH   3   5
ATOM      5  C   LIG    1        0.877  -0.427   1.472  0.00  0.00    +0.125 C 
ATOM      6  N   LIG    1        1.324   0.513   2.258  0.00  0.00    -0.382 N 
ATOM      7  H   LIG    1        1.176   1.445   2.032  0.00  0.00    +0.158 HD
ATOM      8  H   LIG    1        1.806   0.281   3.067  0.00  0.00    +0.158 HD
BRANCH   5  10
ATOM      9  C   LIG    1       -0.022   1.810   0.012  0.00  0.00    +0.092 C 
ATOM     10  S   LIG    1        0.002  -0.004   0.002  0.00  0.00    -0.096 S 
ENDBRANCH   5  10
ENDBRANCH   3   5
ENDBRANCH   2   3
ENDBRANCH   1   2
BRANCH   1  11
ATOM     11  C   LIG    1        2.669  -3.989   4.407  0.00  0.00    -0.004 C 
BRANCH  11  12
ATOM     12  CA  LIG    1        2.764  -5.511   4.525  0.00  0.00    +0.036 C 
BRANCH  12  13
ATOM     13  N   LIG    1        1.418  -6.074   4.698  0.00  0.00    +0.387 N 
ATOM     14  H1  LIG    1        1.001  -5.697   5.536  0.00  0.00    -0.089 HD
ATOM     15  H2  LIG    1        1.480  -7.078   4.775  0.00  0.00    -0.089 HD
ATOM     16  H3  LIG    1        0.847  -5.833   3.901  0.00  0.00    -0.089 HD
ENDBRANCH  12  13
BRANCH  12  17
ATOM     17  C   LIG    1        3.615  -5.872   5.715  0.00  0.00    +0.290 C 
ATOM     18  O   LIG    1        3.104  -6.374   6.701  0.00  0.00    -0.253 OA
BRANCH  17  19
ATOM     19  OXT LIG    1        4.816  -5.661   5.691  0.00  0.00    -0.482 OA
ATOM     20  HXT LIG    1        5.209  -5.275   4.933  0.00  0.00    +0.295 HD
ENDBRANCH  17  19
ENDBRANCH  12  17
ENDBRANCH  11  12
ENDBRANCH   1  11
TORSDOF 9
