REMARK  Name = ZINC17654911
REMARK                            x       y       z     vdW  Elec       q    Type
REMARK                         _______ _______ _______ _____ _____    ______ ____
ROOT
ATOM      1  C   LIG    1       -3.025  -4.111  -0.126  0.00  0.00    +0.091 C 
ENDROOT
BRANCH   1   2
ATOM      2  N   LIG    1       -2.250  -4.532   1.044  0.00  0.00    -0.343 N 
ATOM      3  H   LIG    1       -2.707  -4.825   1.848  0.00  0.00    +0.146 HD
BRANCH   2   4
ATOM      4  C   LIG    1       -0.886  -4.512   1.002  0.00  0.00    +0.005 C 
ATOM      5  C   LIG    1       -0.155  -5.231  -0.102  0.00  0.00    +0.060 C 
ATOM      6  C   LIG    1       -0.190  -3.848   1.952  0.00  0.00    +0.069 C 
BRANCH   6   7
ATOM      7  C   LIG    1       -0.868  -3.260   3.043  0.00  0.00    +0.187 C 
ATOM      8  O   LIG    1       -2.072  -3.401   3.159  0.00  0.00    -0.287 OA
BRANCH   7   9
ATOM      9  C   LIG    1       -0.115  -2.471   4.044  0.00  0.00    +0.022 A 
ATOM     10  C   LIG    1        1.263  -2.302   3.910  0.00  0.00    +0.012 A 
ATOM     11  C   LIG    1        1.959  -1.566   4.847  0.00  0.00    +0.013 A 
ATOM     12  C   LIG    1        1.293  -0.996   5.918  0.00  0.00    +0.055 A 
ATOM     13  C   LIG    1       -0.074  -1.160   6.056  0.00  0.00    +0.013 A 
ATOM     14  C   LIG    1       -0.782  -1.889   5.122  0.00  0.00    +0.012 A 
BRANCH  12  15
ATOM     15  C   LIG    1        2.059  -0.194   6.938  0.00  0.00    +0.417 C 
ATOM     16  F   LIG    1        3.365  -0.686   7.032  0.00  0.00    -0.166 F 
ATOM     17  F   LIG    1        1.429  -0.300   8.182  0.00  0.00    -0.166 F 
ATOM     18  F   LIG    1        2.094   1.148   6.545  0.00  0.00    -0.166 F 
ENDBRANCH  12  15
ENDBRANCH   7   9
ENDBRANCH   6   7
ENDBRANCH   2   4
ENDBRANCH   1   2
BRANCH   1  19
ATOM     19  C   LIG    1       -3.288  -2.606  -0.048  0.00  0.00    +0.126 C 
BRANCH  19  21
ATOM     20  C   LIG    1       -1.998  -0.542   0.071  0.00  0.00    +0.213 C 
ATOM     21  N   LIG    1       -2.013  -1.889   0.028  0.00  0.00    -0.314 N 
ATOM     22  H   LIG    1       -1.179  -2.385   0.048  0.00  0.00    +0.149 HD
ATOM     23  O   LIG    1       -3.040   0.077   0.046  0.00  0.00    -0.276 OA
BRANCH  20  25
ATOM     24  C   LIG    1       -0.948   1.701   0.184  0.00  0.00    +0.013 C 
ATOM     25  C   LIG    1       -0.685   0.194   0.149  0.00  0.00    +0.092 C 
ENDBRANCH  20  25
ENDBRANCH  19  21
ENDBRANCH   1  19
BRANCH   1  26
ATOM     26  C   LIG    1       -4.357  -4.861  -0.152  0.00  0.00    +0.058 C 
BRANCH  26  27
ATOM     27  C   LIG    1       -4.101  -6.333  -0.353  0.00  0.00    -0.045 A 
ATOM     28  C   LIG    1       -4.040  -6.855  -1.631  0.00  0.00    +0.007 A 
ATOM     29  C   LIG    1       -3.806  -8.203  -1.818  0.00  0.00    +0.046 A 
ATOM     30  C   LIG    1       -3.632  -9.034  -0.720  0.00  0.00    +0.121 A 
ATOM     31  C   LIG    1       -3.693  -8.508   0.562  0.00  0.00    +0.046 A 
ATOM     32  C   LIG    1       -3.923  -7.158   0.743  0.00  0.00    +0.007 A 
BRANCH  30  33
ATOM     33  O   LIG    1       -3.401 -10.361  -0.901  0.00  0.00    -0.492 OA
BRANCH  33  34
ATOM     34  C   LIG    1       -3.232 -11.156   0.274  0.00  0.00    +0.235 C 
BRANCH  34  35
ATOM     35  C   LIG    1       -2.985 -12.612  -0.126  0.00  0.00    +0.100 C 
BRANCH  35  36
ATOM     36  C   LIG    1       -2.806 -13.450   1.114  0.00  0.00    +0.086 A 
ATOM     37  C   LIG    1       -1.642 -13.697   1.742  0.00  0.00    +0.126 A 
ATOM     38  C   LIG    1       -0.282 -13.189   1.337  0.00  0.00    +0.088 C 
ATOM     39  O   LIG    1       -1.918 -14.485   2.800  0.00  0.00    -0.440 OA
ATOM     40  C   LIG    1       -3.243 -14.709   2.808  0.00  0.00    +0.228 A 
ATOM     41  N   LIG    1       -3.779 -14.078   1.790  0.00  0.00    -0.214 NA
BRANCH  40  42
ATOM     42  C   LIG    1       -3.974 -15.526   3.800  0.00  0.00    +0.037 A 
ATOM     43  C   LIG    1       -5.357 -15.687   3.692  0.00  0.00    +0.013 A 
ATOM     44  C   LIG    1       -6.033 -16.451   4.621  0.00  0.00    +0.001 A 
ATOM     45  C   LIG    1       -5.345 -17.056   5.657  0.00  0.00    +0.000 A 
ATOM     46  C   LIG    1       -3.974 -16.900   5.769  0.00  0.00    +0.001 A 
ATOM     47  C   LIG    1       -3.285 -16.143   4.844  0.00  0.00    +0.013 A 
ENDBRANCH  40  42
ENDBRANCH  35  36
ENDBRANCH  34  35
ENDBRANCH  33  34
ENDBRANCH  30  33
ENDBRANCH  26  27
ENDBRANCH   1  26
TORSDOF 15
