REMARK  Name = ZINC29047504
REMARK                            x       y       z     vdW  Elec       q    Type
REMARK                         _______ _______ _______ _____ _____    ______ ____
ROOT
ATOM      1  C   LIG    1       -5.764   1.282   4.661  0.00  0.00    +0.019 A 
ATOM      2  C   LIG    1       -4.509   0.773   4.750  0.00  0.00    +0.010 A 
ATOM      3  C   LIG    1       -3.807   0.422   3.582  0.00  0.00    -0.017 A 
ATOM      4  C   LIG    1       -2.507  -0.106   3.650  0.00  0.00    +0.024 A 
ATOM      5  C   LIG    1       -1.854  -0.442   2.502  0.00  0.00    +0.028 A 
ATOM      6 BR   LIG    1       -0.108  -1.160   2.600  0.00  0.00    -0.050 Br
ATOM      7  C   LIG    1       -2.453  -0.259   1.256  0.00  0.00    +0.047 A 
ATOM      8  C   LIG    1       -3.710   0.249   1.151  0.00  0.00    +0.019 A 
ATOM      9  C   LIG    1       -4.418   0.603   2.315  0.00  0.00    -0.016 A 
ATOM     10  C   LIG    1       -5.715   1.129   2.242  0.00  0.00    +0.027 A 
ATOM     11  C   LIG    1       -6.381   1.465   3.410  0.00  0.00    +0.052 A 
ENDROOT
BRANCH   7  12
ATOM     12  C   LIG    1       -1.698  -0.637   0.007  0.00  0.00    +0.372 C 
ATOM     13  F   LIG    1       -0.464   0.021  -0.009  0.00  0.00    -0.187 F 
ATOM     14  F   LIG    1       -1.490  -2.020  -0.012  0.00  0.00    -0.187 F 
BRANCH  12  15
ATOM     15  P   LIG    1       -2.666  -0.148  -1.459  0.00  0.00    +0.401 P 
ATOM     16  O   LIG    1       -1.934  -0.537  -2.685  0.00  0.00    -0.252 OA
BRANCH  15  17
ATOM     17  O   LIG    1       -2.887   1.446  -1.449  0.00  0.00    -0.320 OA
ATOM     18  H   LIG    1       -2.026   1.892  -1.466  0.00  0.00    +0.220 HD
ENDBRANCH  15  17
BRANCH  15  19
ATOM     19  O   LIG    1       -4.095  -0.889  -1.429  0.00  0.00    -0.320 OA
ATOM     20  H   LIG    1       -3.962  -1.849  -1.436  0.00  0.00    +0.220 HD
ENDBRANCH  15  19
ENDBRANCH  12  15
ENDBRANCH   7  12
BRANCH  11  21
ATOM     21  C   LIG    1       -7.706   2.003   3.344  0.00  0.00    +0.099 C 
ATOM     22  N   LIG    1       -8.758   2.430   3.291  0.00  0.00    -0.191 NA
ENDBRANCH  11  21
TORSDOF 5
