REMARK  Name = ZINC19834645
REMARK                            x       y       z     vdW  Elec       q    Type
REMARK                         _______ _______ _______ _____ _____    ______ ____
ROOT
ATOM      1  N   LIG    1       -2.533   2.617  -1.349  0.00  0.00    -0.289 NA
ATOM      2  C   LIG    1       -2.552   1.161  -1.547  0.00  0.00    +0.104 C 
ATOM      3  C   LIG    1       -1.562   0.505  -0.578  0.00  0.00    +0.123 C 
ATOM      4  N   LIG    1       -0.247   1.139  -0.753  0.00  0.00    -0.299 N 
ATOM      5  C   LIG    1        0.859   0.395  -0.952  0.00  0.00    +0.219 C 
ATOM      6  O   LIG    1        0.766  -0.808  -1.074  0.00  0.00    -0.275 OA
ATOM      7  C   LIG    1       -0.169   2.607  -0.699  0.00  0.00    +0.123 C 
ATOM      8  C   LIG    1       -1.215   3.181  -1.669  0.00  0.00    +0.104 C 
ENDROOT
BRANCH   5   9
ATOM      9  C   LIG    1        2.210   1.058  -1.028  0.00  0.00    +0.075 C 
ATOM     10  C   LIG    1        2.506   1.447  -2.478  0.00  0.00    +0.013 C 
ATOM     11  C   LIG    1        3.878   2.120  -2.555  0.00  0.00    +0.001 C 
ATOM     12  C   LIG    1        4.951   1.150  -2.058  0.00  0.00    +0.000 C 
ATOM     13  C   LIG    1        4.655   0.761  -0.608  0.00  0.00    +0.001 C 
ATOM     14  C   LIG    1        3.283   0.088  -0.531  0.00  0.00    +0.013 C 
ENDBRANCH   5   9
BRANCH   1  15
ATOM     15  C   LIG    1       -3.589   3.268  -2.136  0.00  0.00    +0.117 C 
BRANCH  15  19
ATOM     16  C   LIG    1       -7.395   1.718  -0.970  0.00  0.00    +0.000 A 
ATOM     17  C   LIG    1       -7.087   1.858  -2.310  0.00  0.00    +0.000 A 
ATOM     18  C   LIG    1       -5.855   2.360  -2.687  0.00  0.00    +0.005 A 
ATOM     19  C   LIG    1       -4.931   2.722  -1.724  0.00  0.00    -0.026 A 
ATOM     20  C   LIG    1       -5.237   2.576  -0.384  0.00  0.00    +0.005 A 
ATOM     21  C   LIG    1       -6.471   2.079  -0.007  0.00  0.00    +0.000 A 
ENDBRANCH  15  19
BRANCH  15  22
ATOM     22  C   LIG    1       -3.554   4.755  -1.889  0.00  0.00    -0.026 A 
ATOM     23  C   LIG    1       -3.353   5.238  -0.609  0.00  0.00    +0.005 A 
ATOM     24  C   LIG    1       -3.317   6.601  -0.384  0.00  0.00    +0.000 A 
ATOM     25  C   LIG    1       -3.492   7.481  -1.435  0.00  0.00    +0.000 A 
ATOM     26  C   LIG    1       -3.699   6.998  -2.714  0.00  0.00    +0.000 A 
ATOM     27  C   LIG    1       -3.730   5.634  -2.941  0.00  0.00    +0.005 A 
ENDBRANCH  15  22
ENDBRANCH   1  15
TORSDOF 4
