REMARK  Name = ZINC40914195
REMARK                            x       y       z     vdW  Elec       q    Type
REMARK                         _______ _______ _______ _____ _____    ______ ____
ROOT
ATOM      1  C   LIG    1        2.586  -2.547   4.312  0.00  0.00    +0.101 C 
ATOM      2  C   LIG    1        3.728  -3.374   3.793  0.00  0.00    +0.098 C 
ATOM      3  C   LIG    1        3.608  -4.720   3.679  0.00  0.00    +0.198 C 
ATOM      4  O   LIG    1        2.470  -5.346   4.023  0.00  0.00    -0.445 OA
ATOM      5  C   LIG    1        1.597  -4.756   4.862  0.00  0.00    +0.115 C 
ATOM      6  C   LIG    1        0.618  -5.636   5.603  0.00  0.00    +0.083 C 
ATOM      7  C   LIG    1       -0.677  -4.876   5.844  0.00  0.00    +0.034 C 
ATOM      8  C   LIG    1       -0.353  -3.615   6.653  0.00  0.00    +0.088 C 
ATOM      9  C   LIG    1        0.675  -2.809   5.907  0.00  0.00    +0.164 C 
ATOM     10  O   LIG    1        0.710  -1.603   6.056  0.00  0.00    -0.292 OA
ATOM     11  C   LIG    1        1.597  -3.425   5.040  0.00  0.00    +0.046 C 
ENDROOT
BRANCH   7  12
ATOM     12  C   LIG    1       -1.640  -5.740   6.617  0.00  0.00    -0.036 A 
ATOM     13  C   LIG    1       -1.257  -6.308   7.793  0.00  0.00    +0.004 A 
ATOM     14  C   LIG    1       -2.133  -7.110   8.521  0.00  0.00    +0.001 A 
ATOM     15  C   LIG    1       -3.398  -7.349   8.078  0.00  0.00    +0.008 A 
ATOM     16  C   LIG    1       -3.829  -6.779   6.868  0.00  0.00    -0.018 A 
ATOM     17  C   LIG    1       -5.127  -7.003   6.378  0.00  0.00    +0.008 A 
ATOM     18  C   LIG    1       -5.516  -6.420   5.211  0.00  0.00    +0.001 A 
ATOM     19  C   LIG    1       -4.640  -5.618   4.483  0.00  0.00    +0.001 A 
ATOM     20  C   LIG    1       -3.374  -5.384   4.923  0.00  0.00    +0.009 A 
ATOM     21  C   LIG    1       -2.940  -5.958   6.130  0.00  0.00    -0.014 A 
ENDBRANCH   7  12
BRANCH   1  25
ATOM     22  C   LIG    1        0.628  -0.627   1.034  0.00  0.00    +0.120 A 
ATOM     23  C   LIG    1        1.201   0.133   2.043  0.00  0.00    +0.046 A 
ATOM     24  C   LIG    1        1.833  -0.490   3.102  0.00  0.00    +0.008 A 
ATOM     25  C   LIG    1        1.895  -1.870   3.156  0.00  0.00    -0.034 A 
ATOM     26  C   LIG    1        1.325  -2.630   2.151  0.00  0.00    +0.008 A 
ATOM     27  C   LIG    1        0.687  -2.012   1.094  0.00  0.00    +0.046 A 
BRANCH  22  29
ATOM     28  C   LIG    1       -0.017   1.412  -0.004  0.00  0.00    +0.277 C 
ATOM     29  O   LIG    1        0.005  -0.017  -0.008  0.00  0.00    -0.495 OA
ENDBRANCH  22  29
ENDBRANCH   1  25
BRANCH   3  30
ATOM     30  N   LIG    1        4.666  -5.454   3.204  0.00  0.00    -0.328 N 
ATOM     31  H   LIG    1        4.588  -6.417   3.119  0.00  0.00    +0.145 HD
ATOM     32  H   LIG    1        5.491  -5.010   2.954  0.00  0.00    +0.145 HD
ENDBRANCH   3  30
BRANCH   2  33
ATOM     33  C   LIG    1        4.954  -2.736   3.417  0.00  0.00    +0.101 C 
ATOM     34  N   LIG    1        5.926  -2.229   3.118  0.00  0.00    -0.191 NA
ENDBRANCH   2  33
TORSDOF 5
