REMARK  Name = ZINC17838260
REMARK                            x       y       z     vdW  Elec       q    Type
REMARK                         _______ _______ _______ _____ _____    ______ ____
ROOT
ATOM      1  C   LIG    1       -1.264   5.912  -0.058  0.00  0.00    +0.202 A 
ATOM      2  N   LIG    1       -1.255   7.272  -0.148  0.00  0.00    -0.293 N 
ATOM      3  C   LIG    1       -2.415   7.958  -0.241  0.00  0.00    +0.280 A 
ATOM      4  C   LIG    1       -3.628   7.231  -0.232  0.00  0.00    +0.172 A 
ATOM      5  C   LIG    1       -3.572   5.836  -0.133  0.00  0.00    +0.167 A 
ATOM      6  N   LIG    1       -4.870   5.401  -0.147  0.00  0.00    -0.329 N 
ATOM      7  C   LIG    1       -5.669   6.502  -0.251  0.00  0.00    +0.199 A 
ATOM      8  H   LIG    1       -5.176   4.451  -0.091  0.00  0.00    +0.168 HD
ATOM      9  N   LIG    1       -4.937   7.576  -0.301  0.00  0.00    -0.229 NA
ATOM     10  O   LIG    1       -2.417   9.175  -0.325  0.00  0.00    -0.265 OA
ATOM     11  H   LIG    1       -0.385   7.765  -0.144  0.00  0.00    +0.172 HD
ATOM     12  N   LIG    1       -2.385   5.224  -0.049  0.00  0.00    -0.196 NA
ENDROOT
BRANCH   1  13
ATOM     13  N   LIG    1       -0.069   5.241   0.030  0.00  0.00    -0.285 N 
ATOM     14  H   LIG    1        0.328   5.567   0.888  0.00  0.00    +0.155 HD
BRANCH  13  18
ATOM     15  C   LIG    1       -0.010   1.076  -0.030  0.00  0.00    +0.000 A 
ATOM     16  C   LIG    1        0.913   1.768   0.733  0.00  0.00    +0.002 A 
ATOM     17  C   LIG    1        0.900   3.149   0.750  0.00  0.00    +0.023 A 
ATOM     18  C   LIG    1       -0.049   3.843   0.010  0.00  0.00    +0.034 A 
ATOM     19  C   LIG    1       -0.979   3.144  -0.750  0.00  0.00    +0.023 A 
ATOM     20  C   LIG    1       -0.956   1.764  -0.768  0.00  0.00    +0.002 A 
ENDBRANCH  13  18
ENDBRANCH   1  13
TORSDOF 2
