REMARK  Name = ZINC00005258
REMARK                            x       y       z     vdW  Elec       q    Type
REMARK                         _______ _______ _______ _____ _____    ______ ____
ROOT
ATOM      1  C   LIG    1        3.573   0.619  -0.029  0.00  0.00    +0.219 A 
ATOM      2  N   LIG    1        4.374   1.692  -0.025  0.00  0.00    -0.186 NA
ATOM      3  C   LIG    1        5.639   1.304  -0.041  0.00  0.00    +0.259 A 
ATOM      4  N   LIG    1        6.805   1.966  -0.045  0.00  0.00    -0.179 NA
ATOM      5  C   LIG    1        7.946   1.298  -0.063  0.00  0.00    +0.199 A 
ATOM      6  N   LIG    1        7.967  -0.038  -0.078  0.00  0.00    -0.300 N 
ATOM      7  H   LIG    1        8.817  -0.505  -0.091  0.00  0.00    +0.171 HD
ATOM      8  C   LIG    1        6.842  -0.729  -0.074  0.00  0.00    +0.197 A 
ATOM      9  N   LIG    1        5.649  -0.066  -0.056  0.00  0.00    -0.166 N 
ATOM     10  N   LIG    1        4.311  -0.475  -0.042  0.00  0.00    -0.138 NA
ENDROOT
BRANCH   1  13
ATOM     11  C   LIG    1       -0.016   1.343   0.009  0.00  0.00    +0.042 A 
ATOM     12  C   LIG    1        1.325   1.774  -0.001  0.00  0.00    +0.053 A 
ATOM     13  C   LIG    1        2.096   0.655  -0.014  0.00  0.00    +0.173 A 
ATOM     14  O   LIG    1        1.280  -0.417  -0.012  0.00  0.00    -0.460 OA
ATOM     15  C   LIG    1        0.002  -0.004   0.002  0.00  0.00    +0.196 A 
ENDBRANCH   1  13
BRANCH   8  16
ATOM     16  N   LIG    1        6.871  -2.099  -0.090  0.00  0.00    -0.329 N 
ATOM     17  H   LIG    1        6.042  -2.602  -0.088  0.00  0.00    +0.145 HD
ATOM     18  H   LIG    1        7.722  -2.565  -0.104  0.00  0.00    +0.145 HD
ENDBRANCH   8  16
BRANCH   5  19
ATOM     19  N   LIG    1        9.138   1.994  -0.067  0.00  0.00    -0.315 N 
ATOM     20  H   LIG    1        9.980   1.513  -0.080  0.00  0.00    +0.149 HD
BRANCH  19  21
ATOM     21  C   LIG    1        9.131   3.458  -0.051  0.00  0.00    +0.109 C 
BRANCH  21  22
ATOM     22  C   LIG    1       10.570   3.975  -0.059  0.00  0.00    +0.054 C 
BRANCH  22  23
ATOM     23  C   LIG    1       10.563   5.482  -0.043  0.00  0.00    -0.046 A 
ATOM     24  C   LIG    1       10.543   6.185  -1.233  0.00  0.00    +0.007 A 
ATOM     25  C   LIG    1       10.537   7.567  -1.221  0.00  0.00    +0.045 A 
ATOM     26  C   LIG    1       10.550   8.249  -0.013  0.00  0.00    +0.117 A 
ATOM     27  C   LIG    1       10.570   7.541   1.180  0.00  0.00    +0.045 A 
ATOM     28  C   LIG    1       10.571   6.160   1.163  0.00  0.00    +0.007 A 
BRANCH  26  29
ATOM     29  O   LIG    1       10.544   9.608   0.002  0.00  0.00    -0.507 OA
ATOM     30  H   LIG    1        9.660   9.997   0.018  0.00  0.00    +0.292 HD
ENDBRANCH  26  29
ENDBRANCH  22  23
ENDBRANCH  21  22
ENDBRANCH  19  21
ENDBRANCH   5  19
TORSDOF 7
