REMARK  Name = ZINC00057531
REMARK                            x       y       z     vdW  Elec       q    Type
REMARK                         _______ _______ _______ _____ _____    ______ ____
ROOT
ATOM      1  C   LIG    1        1.580  -2.804   5.436  0.00  0.00    +0.089 C 
ATOM      2  C   LIG    1        2.301  -3.357   6.638  0.00  0.00    -0.023 A 
ATOM      3  C   LIG    1        3.520  -2.795   6.991  0.00  0.00    +0.054 A 
ATOM      4  C   LIG    1        4.216  -3.266   8.089  0.00  0.00    +0.162 A 
ATOM      5  C   LIG    1        3.691  -4.311   8.843  0.00  0.00    +0.162 A 
ATOM      6  C   LIG    1        2.477  -4.871   8.486  0.00  0.00    +0.053 A 
ATOM      7  C   LIG    1        1.783  -4.395   7.382  0.00  0.00    -0.038 A 
ATOM      8  C   LIG    1        0.470  -5.045   7.027  0.00  0.00    +0.050 C 
ATOM      9  C   LIG    1       -0.318  -4.145   6.076  0.00  0.00    +0.086 C 
ATOM     10  N   LIG    1        0.565  -3.752   4.966  0.00  0.00    -0.309 NA
ATOM     11  H   LIG    1        0.034  -3.363   4.202  0.00  0.00    +0.123 HD
ENDROOT
BRANCH   4  12
ATOM     12  O   LIG    1        5.410  -2.711   8.430  0.00  0.00    -0.491 OA
ATOM     13  C   LIG    1        5.887  -1.642   7.609  0.00  0.00    +0.277 C 
ENDBRANCH   4  12
BRANCH   5  14
ATOM     14  O   LIG    1        4.367  -4.780   9.926  0.00  0.00    -0.491 OA
ATOM     15  C   LIG    1        3.765  -5.855  10.651  0.00  0.00    +0.277 C 
ENDBRANCH   5  14
BRANCH   1  16
ATOM     16  C   LIG    1        2.590  -2.548   4.315  0.00  0.00    +0.058 C 
BRANCH  16  20
ATOM     17  C   LIG    1        0.626  -0.619   1.042  0.00  0.00    +0.161 A 
ATOM     18  C   LIG    1        1.202   0.137   2.051  0.00  0.00    +0.049 A 
ATOM     19  C   LIG    1        1.836  -0.490   3.108  0.00  0.00    +0.007 A 
ATOM     20  C   LIG    1        1.897  -1.870   3.161  0.00  0.00    -0.042 A 
ATOM     21  C   LIG    1        1.325  -2.630   2.158  0.00  0.00    +0.053 A 
ATOM     22  C   LIG    1        0.683  -2.008   1.099  0.00  0.00    +0.162 A 
BRANCH  17  24
ATOM     23  C   LIG    1       -0.017   1.425   0.010  0.00  0.00    +0.277 C 
ATOM     24  O   LIG    1        0.002  -0.004   0.002  0.00  0.00    -0.491 OA
ENDBRANCH  17  24
BRANCH  22  25
ATOM     25  O   LIG    1        0.115  -2.754   0.114  0.00  0.00    -0.491 OA
ATOM     26  C   LIG    1        0.211  -4.174   0.238  0.00  0.00    +0.277 C 
ENDBRANCH  22  25
ENDBRANCH  16  20
ENDBRANCH   1  16
TORSDOF 6
