REMARK  Name = ZINC64541014
REMARK                            x       y       z     vdW  Elec       q    Type
REMARK                         _______ _______ _______ _____ _____    ______ ____
ROOT
ATOM      1  C   LIG    1        1.428  -2.637  -2.261  0.00  0.00    +0.063 C 
ATOM      2  C   LIG    1        1.850  -1.966  -3.431  0.00  0.00    +0.026 C 
ATOM      3  C   LIG    1        1.590  -0.603  -3.628  0.00  0.00    +0.038 C 
ATOM      4  C   LIG    1        2.019   0.006  -4.775  0.00  0.00    +0.118 C 
ATOM      5  C   LIG    1        2.712  -0.716  -5.750  0.00  0.00    +0.033 C 
ATOM      6  C   LIG    1        2.977  -2.040  -5.584  0.00  0.00    +0.021 C 
ATOM      7  C   LIG    1        2.551  -2.699  -4.418  0.00  0.00    +0.059 C 
ATOM      8  N   LIG    1        2.794  -3.997  -4.229  0.00  0.00    -0.310 NA
ATOM      9  H   LIG    1        3.273  -4.486  -4.916  0.00  0.00    +0.122 HD
ATOM     10  C   LIG    1        2.406  -4.644  -3.143  0.00  0.00    +0.058 C 
ATOM     11  C   LIG    1        2.741  -6.113  -3.065  0.00  0.00    +0.019 C 
ATOM     12  C   LIG    1        2.657  -6.605  -1.618  0.00  0.00    +0.002 C 
ATOM     13  C   LIG    1        1.292  -6.196  -1.052  0.00  0.00    +0.000 C 
ATOM     14  C   LIG    1        1.284  -4.680  -0.867  0.00  0.00    +0.006 C 
ATOM     15  C   LIG    1        1.726  -3.990  -2.130  0.00  0.00    +0.023 C 
ENDROOT
BRANCH   1  16
ATOM     16  N   LIG    1        0.738  -1.962  -1.265  0.00  0.00    -0.313 NA
ATOM     17  H   LIG    1        1.218  -1.593  -0.507  0.00  0.00    +0.122 HD
BRANCH  16  18
ATOM     18  C   LIG    1       -0.716  -1.807  -1.357  0.00  0.00    +0.081 C 
BRANCH  18  20
ATOM     19  C   LIG    1       -2.562  -0.343  -2.187  0.00  0.00    +0.005 C 
ATOM     20  C   LIG    1       -1.044  -0.505  -2.091  0.00  0.00    +0.012 C 
ENDBRANCH  18  20
ENDBRANCH  16  18
ENDBRANCH   1  16
BRANCH   4  21
ATOM     21  O   LIG    1        1.768   1.328  -4.968  0.00  0.00    -0.380 OA
ATOM     22  C   LIG    1        2.241   1.907  -6.186  0.00  0.00    +0.194 C 
ENDBRANCH   4  21
TORSDOF 4
