REMARK  Name = ZINC28570225
REMARK                            x       y       z     vdW  Elec       q    Type
REMARK                         _______ _______ _______ _____ _____    ______ ____
ROOT
ATOM      1  S   UNK    1       -3.038   0.063  -1.923  0.00  0.00    -0.156 S 
ENDROOT
BRANCH   1   2
ATOM      2  C   UNK    1       -2.498   0.017  -0.192  0.00  0.00    +0.106 C 
BRANCH   2   7
ATOM      3  C   UNK    1        1.207  -0.676   0.026  0.00  0.00    +0.000 A 
ATOM      4  C   UNK    1        1.226  -2.058   0.084  0.00  0.00    +0.002 A 
ATOM      5  C   UNK    1        0.040  -2.767   0.056  0.00  0.00    +0.033 A 
ATOM      6  C   UNK    1       -1.165  -2.095  -0.038  0.00  0.00    +0.126 A 
ATOM      7  C   UNK    1       -1.184  -0.715  -0.095  0.00  0.00    -0.008 A 
ATOM      8  C   UNK    1        0.002  -0.005  -0.063  0.00  0.00    +0.007 A 
BRANCH   6   9
ATOM      9  N   UNK    1       -2.435  -2.855  -0.073  0.00  0.00    +0.006 N 
ATOM     10  O   UNK    1       -2.428  -4.061   0.097  0.00  0.00    -0.130 OA
BRANCH   9  11
ATOM     11  O   UNK    1       -3.487  -2.274  -0.266  0.00  0.00    -0.396 OA
ATOM     12  H   UNK    1       -3.493  -1.346  -0.396  0.00  0.00    +0.329 HD
ENDBRANCH   9  11
ENDBRANCH   6   9
ENDBRANCH   2   7
ENDBRANCH   1   2
BRANCH   1  13
ATOM     13  C   UNK    1       -4.611   0.965  -1.867  0.00  0.00    +0.068 C 
BRANCH  13  14
ATOM     14  C   UNK    1       -5.184   1.078  -3.282  0.00  0.00    +0.005 C 
BRANCH  14  15
ATOM     15  C   UNK    1       -6.511   1.839  -3.235  0.00  0.00    +0.036 C 
BRANCH  15  16
ATOM     16  N   UNK    1       -7.497   1.058  -2.477  0.00  0.00    +0.387 N 
ATOM     17  H   UNK    1       -7.650   0.085  -2.967  0.00  0.00    -0.089 HD
ATOM     18  H   UNK    1       -7.130   0.898  -1.452  0.00  0.00    -0.089 HD
ATOM     19  H   UNK    1       -8.451   1.605  -2.443  0.00  0.00    -0.089 HD
ENDBRANCH  15  16
BRANCH  15  20
ATOM     20  C   UNK    1       -7.014   2.057  -4.639  0.00  0.00    +0.290 C 
ATOM     21  O   UNK    1       -7.873   1.337  -5.091  0.00  0.00    -0.253 OA
BRANCH  20  22
ATOM     22  O   UNK    1       -6.509   3.050  -5.386  0.00  0.00    -0.482 OA
ATOM     23  H   UNK    1       -5.843   3.608  -5.035  0.00  0.00    +0.295 HD
ENDBRANCH  20  22
ENDBRANCH  15  20
ENDBRANCH  14  15
ENDBRANCH  13  14
ENDBRANCH   1  13
TORSDOF 10
