REMARK  Name = ZINC20289082
REMARK                            x       y       z     vdW  Elec       q    Type
REMARK                         _______ _______ _______ _____ _____    ______ ____
ROOT
ATOM      1  C   LIG    1        1.522   3.748   0.142  0.00  0.00    +0.114 C 
ENDROOT
BRANCH   1   2
ATOM      2  N   LIG    1        2.589   4.232   1.028  0.00  0.00    -0.290 NA
ATOM      3  C   LIG    1        2.353   3.810   2.416  0.00  0.00    +0.104 C 
ATOM      4  C   LIG    1        3.523   4.264   3.291  0.00  0.00    +0.120 C 
ATOM      5  N   LIG    1        3.658   5.725   3.204  0.00  0.00    -0.327 N 
ATOM      6  C   LIG    1        3.894   6.147   1.816  0.00  0.00    +0.120 C 
ATOM      7  C   LIG    1        2.724   5.693   0.941  0.00  0.00    +0.104 C 
BRANCH   5   8
ATOM      8  C   LIG    1        4.674   6.186   4.047  0.00  0.00    +0.030 A 
ATOM      9  C   LIG    1        5.724   6.932   3.528  0.00  0.00    +0.026 A 
ATOM     10  C   LIG    1        6.723   7.390   4.364  0.00  0.00    +0.040 A 
ATOM     11  C   LIG    1        6.684   7.097   5.717  0.00  0.00    +0.124 A 
ATOM     12  F   LIG    1        7.665   7.542   6.532  0.00  0.00    -0.205 F 
ATOM     13  C   LIG    1        5.641   6.349   6.236  0.00  0.00    +0.040 A 
ATOM     14  C   LIG    1        4.637   5.893   5.404  0.00  0.00    +0.026 A 
ENDBRANCH   5   8
ENDBRANCH   1   2
BRANCH   1  15
ATOM     15  C   LIG    1        1.434   2.247   0.235  0.00  0.00    +0.009 A 
ATOM     16  C   LIG    1        0.334   1.454   0.230  0.00  0.00    +0.013 A 
ATOM     17  C   LIG    1        0.495   0.084   0.327  0.00  0.00    +0.008 A 
ATOM     18  C   LIG    1        1.747  -0.425   0.425  0.00  0.00    +0.045 A 
ATOM     19  S   LIG    1        2.751   1.050   0.381  0.00  0.00    -0.100 S 
ENDBRANCH   1  15
BRANCH   1  21
ATOM     20  C   LIG    1        3.203   3.595  -1.701  0.00  0.00    +0.030 C 
ATOM     21  C   LIG    1        1.835   4.152  -1.300  0.00  0.00    +0.092 C 
BRANCH  21  22
ATOM     22  N   LIG    1        0.807   3.610  -2.193  0.00  0.00    -0.303 N 
ATOM     23  H   LIG    1        0.237   2.717  -1.898  0.00  0.00    +0.149 HD
ATOM     24  C   LIG    1        0.560   4.207  -3.376  0.00  0.00    +0.299 C 
ATOM     25  O   LIG    1        1.188   5.192  -3.702  0.00  0.00    -0.265 OA
BRANCH  24  26
ATOM     26  C   LIG    1       -0.489   3.654  -4.286  0.00  0.00    +0.299 C 
ATOM     27  N   LIG    1       -0.736   4.251  -5.469  0.00  0.00    -0.303 N 
ATOM     28  H   LIG    1       -0.167   5.144  -5.765  0.00  0.00    +0.149 HD
ATOM     29  O   LIG    1       -1.117   2.669  -3.961  0.00  0.00    -0.265 OA
BRANCH  27  30
ATOM     30  C   LIG    1       -1.764   3.709  -6.362  0.00  0.00    +0.141 C 
BRANCH  30  31
ATOM     31  C   LIG    1       -1.842   4.553  -7.608  0.00  0.00    -0.012 A 
ATOM     32  C   LIG    1       -2.703   5.638  -7.668  0.00  0.00    +0.008 A 
ATOM     33  C   LIG    1       -2.738   6.388  -8.834  0.00  0.00    +0.020 A 
ATOM     34  C   LIG    1       -1.927   6.026  -9.893  0.00  0.00    +0.111 A 
ATOM     35  N   LIG    1       -1.124   4.985  -9.802  0.00  0.00    -0.263 NA
ATOM     36  C   LIG    1       -1.061   4.251  -8.707  0.00  0.00    +0.115 A 
ENDBRANCH  30  31
ENDBRANCH  27  30
ENDBRANCH  24  26
ENDBRANCH  21  22
ENDBRANCH   1  21
TORSDOF 8
