REMARK  Name = ZINC19685795
REMARK                            x       y       z     vdW  Elec       q    Type
REMARK                         _______ _______ _______ _____ _____    ______ ____
ROOT
ATOM      1  C   LIG    1       -2.019  -0.453  -0.190  0.00  0.00    +0.338 C 
ATOM      2  O   LIG    1       -2.224   0.746  -0.128  0.00  0.00    -0.245 OA
ENDROOT
BRANCH   1   5
ATOM      3  C   LIG    1        0.113   1.397  -0.197  0.00  0.00    +0.066 C 
ATOM      4  C   LIG    1        0.366  -0.087  -0.272  0.00  0.00    +0.049 C 
ATOM      5  C   LIG    1       -0.701  -0.938  -0.266  0.00  0.00    +0.069 C 
ATOM      6  C   LIG    1       -0.414  -2.426  -0.343  0.00  0.00    +0.096 C 
ATOM      7  C   LIG    1        1.052  -2.814  -0.421  0.00  0.00    +0.065 C 
ATOM      8  C   LIG    1        1.986  -1.776  -0.413  0.00  0.00    +0.049 C 
ATOM      9  C   LIG    1        3.454  -2.108  -0.488  0.00  0.00    +0.066 C 
ATOM     10  C   LIG    1        1.444  -4.133  -0.495  0.00  0.00    +0.285 C 
ATOM     11  N   LIG    1        1.617  -0.517  -0.347  0.00  0.00    -0.256 NA
BRANCH   6  12
ATOM     12  C   LIG    1       -1.107  -2.977  -1.563  0.00  0.00    -0.033 A 
ATOM     13  C   LIG    1       -0.786  -2.494  -2.818  0.00  0.00    +0.005 A 
ATOM     14  C   LIG    1       -1.422  -2.999  -3.936  0.00  0.00    +0.003 A 
ATOM     15  C   LIG    1       -2.380  -3.987  -3.800  0.00  0.00    +0.032 A 
ATOM     16  C   LIG    1       -2.700  -4.470  -2.545  0.00  0.00    +0.122 A 
ATOM     17  C   LIG    1       -2.061  -3.968  -1.427  0.00  0.00    +0.037 A 
BRANCH  16  18
ATOM     18  N   LIG    1       -3.726  -5.527  -2.399  0.00  0.00    +0.006 N 
ATOM     19  O   LIG    1       -4.283  -5.969  -3.377  0.00  0.00    -0.130 OA
BRANCH  18  20
ATOM     20  O   LIG    1       -4.007  -5.950  -1.301  0.00  0.00    -0.396 OA
ATOM     21  H   LIG    1       -3.575  -5.608  -0.543  0.00  0.00    +0.329 HD
ENDBRANCH  18  20
ENDBRANCH  16  18
ENDBRANCH   6  12
BRANCH  10  22
ATOM     22  O   LIG    1        0.530  -5.115  -0.376  0.00  0.00    -0.467 OA
ATOM     23  C   LIG    1        1.006  -6.459  -0.463  0.00  0.00    +0.280 C 
ENDBRANCH  10  22
BRANCH  10  24
ATOM     24  O   LIG    1        2.742  -4.440  -0.688  0.00  0.00    -0.480 OA
ATOM     25  H   LIG    1        3.378  -3.757  -0.771  0.00  0.00    +0.295 HD
ENDBRANCH  10  24
ENDBRANCH   1   5
BRANCH   1  26
ATOM     26  O   LIG    1       -3.057  -1.317  -0.186  0.00  0.00    -0.463 OA
BRANCH  26  27
ATOM     27  C   LIG    1       -4.369  -0.755  -0.106  0.00  0.00    +0.214 C 
BRANCH  27  28
ATOM     28  C   LIG    1       -5.407  -1.879  -0.114  0.00  0.00    -0.037 C 
BRANCH  28  29
ATOM     29  N   LIG    1       -5.237  -2.710   1.086  0.00  0.00    +0.384 N 
ATOM     30  H   LIG    1       -4.280  -3.026   1.143  0.00  0.00    -0.082 HD
ATOM     31  C   LIG    1       -6.132  -3.871   1.007  0.00  0.00    -0.063 C 
ATOM     32  C   LIG    1       -5.942  -4.747   2.248  0.00  0.00    +0.067 C 
ATOM     33  N   LIG    1       -6.240  -3.958   3.451  0.00  0.00    -0.295 NA
ATOM     34  C   LIG    1       -5.368  -2.777   3.531  0.00  0.00    +0.067 C 
ATOM     35  C   LIG    1       -5.563  -1.918   2.280  0.00  0.00    -0.063 C 
BRANCH  33  36
ATOM     36  C   LIG    1       -6.124  -4.780   4.663  0.00  0.00    +0.117 C 
BRANCH  36  37
ATOM     37  C   LIG    1       -7.097  -5.929   4.585  0.00  0.00    -0.026 A 
ATOM     38  C   LIG    1       -8.364  -5.728   4.070  0.00  0.00    +0.005 A 
ATOM     39  C   LIG    1       -9.256  -6.782   3.998  0.00  0.00    +0.000 A 
ATOM     40  C   LIG    1       -8.881  -8.036   4.442  0.00  0.00    +0.000 A 
ATOM     41  C   LIG    1       -7.614  -8.237   4.957  0.00  0.00    +0.000 A 
ATOM     42  C   LIG    1       -6.720  -7.185   5.024  0.00  0.00    +0.005 A 
ENDBRANCH  36  37
BRANCH  36  43
ATOM     43  C   LIG    1       -6.436  -3.939   5.873  0.00  0.00    -0.026 A 
ATOM     44  C   LIG    1       -7.470  -3.022   5.830  0.00  0.00    +0.005 A 
ATOM     45  C   LIG    1       -7.756  -2.251   6.941  0.00  0.00    +0.000 A 
ATOM     46  C   LIG    1       -7.009  -2.396   8.095  0.00  0.00    +0.000 A 
ATOM     47  C   LIG    1       -5.975  -3.313   8.138  0.00  0.00    +0.000 A 
ATOM     48  C   LIG    1       -5.692  -4.088   7.029  0.00  0.00    +0.005 A 
ENDBRANCH  36  43
ENDBRANCH  33  36
ENDBRANCH  28  29
ENDBRANCH  27  28
ENDBRANCH  26  27
ENDBRANCH   1  26
TORSDOF 13
