REMARK  Name = ZINC19365698
REMARK                            x       y       z     vdW  Elec       q    Type
REMARK                         _______ _______ _______ _____ _____    ______ ____
ROOT
ATOM      1  C   LIG    1        2.510  -1.792   5.584  0.00  0.00    +0.117 C 
ENDROOT
BRANCH   1   2
ATOM      2  N   LIG    1        1.967  -1.751   6.948  0.00  0.00    -0.292 NA
ATOM      3  C   LIG    1        2.850  -2.457   7.888  0.00  0.00    +0.070 C 
ATOM      4  C   LIG    1        2.221  -2.442   9.283  0.00  0.00    -0.057 C 
ATOM      5  C   LIG    1        3.147  -3.159  10.267  0.00  0.00    -0.012 C 
ATOM      6  N   LIG    1        2.025  -1.053   9.717  0.00  0.00    +0.385 N 
ATOM      7  H   LIG    1        2.915  -0.578   9.734  0.00  0.00    -0.081 HD
ATOM      8  C   LIG    1        1.122  -0.368   8.783  0.00  0.00    -0.059 C 
ATOM      9  C   LIG    1        1.742  -0.365   7.384  0.00  0.00    +0.038 C 
ATOM     10  C   LIG    1        0.793   0.330   6.406  0.00  0.00    +0.022 C 
BRANCH   6  11
ATOM     11  C   LIG    1        1.438  -1.039  11.064  0.00  0.00    -0.051 C 
BRANCH  11  12
ATOM     12  C   LIG    1        1.351   0.381  11.559  0.00  0.00    -0.053 C 
ATOM     13  C   LIG    1        0.202   0.866  11.961  0.00  0.00    +0.002 C 
ENDBRANCH  11  12
ENDBRANCH   6  11
ENDBRANCH   1   2
BRANCH   1  17
ATOM     14  C   LIG    1       -0.623  -1.019   2.778  0.00  0.00    +0.037 A 
ATOM     15  C   LIG    1        0.645  -0.470   2.582  0.00  0.00    +0.013 A 
ATOM     16  C   LIG    1        1.651  -0.723   3.491  0.00  0.00    +0.006 A 
ATOM     17  C   LIG    1        1.406  -1.520   4.595  0.00  0.00    -0.026 A 
ATOM     18  C   LIG    1        0.151  -2.067   4.795  0.00  0.00    +0.006 A 
ATOM     19  C   LIG    1       -0.866  -1.817   3.897  0.00  0.00    +0.013 A 
BRANCH  14  21
ATOM     20  N   LIG    1       -1.468  -0.856   0.486  0.00  0.00    -0.298 N 
ATOM     21  C   LIG    1       -1.707  -0.751   1.808  0.00  0.00    +0.247 C 
ATOM     22  O   LIG    1       -2.812  -0.437   2.204  0.00  0.00    -0.270 OA
BRANCH  20  24
ATOM     23  C   LIG    1       -3.272  -1.810  -0.863  0.00  0.00    +0.024 C 
ATOM     24  C   LIG    1       -2.524  -0.532  -0.476  0.00  0.00    +0.104 C 
ENDBRANCH  20  24
BRANCH  20  25
ATOM     25  C   LIG    1       -0.154  -1.294   0.011  0.00  0.00    +0.104 C 
ATOM     26  C   LIG    1        0.668  -0.074  -0.412  0.00  0.00    +0.024 C 
ENDBRANCH  20  25
ENDBRANCH  14  21
ENDBRANCH   1  17
BRANCH   1  27
ATOM     27  C   LIG    1        3.097  -3.154   5.318  0.00  0.00    -0.026 A 
ATOM     28  C   LIG    1        2.363  -4.291   5.601  0.00  0.00    +0.005 A 
ATOM     29  C   LIG    1        2.902  -5.540   5.357  0.00  0.00    +0.000 A 
ATOM     30  C   LIG    1        4.175  -5.653   4.829  0.00  0.00    +0.000 A 
ATOM     31  C   LIG    1        4.909  -4.517   4.545  0.00  0.00    +0.000 A 
ATOM     32  C   LIG    1        4.368  -3.267   4.785  0.00  0.00    +0.005 A 
ENDBRANCH   1  27
TORSDOF 8
