REMARK  Name = ZINC38655139
REMARK                            x       y       z     vdW  Elec       q    Type
REMARK                         _______ _______ _______ _____ _____    ______ ____
ROOT
ATOM      1  C   LIG    1       -1.914   0.091   3.878  0.00  0.00    +0.096 A 
ATOM      2  C   LIG    1       -1.368   0.916   4.894  0.00  0.00    +0.149 A 
ATOM      3  N   LIG    1       -2.289   1.115   5.798  0.00  0.00    -0.177 NA
ATOM      4  N   LIG    1       -3.452   0.444   5.423  0.00  0.00    -0.244 N 
ATOM      5  C   LIG    1       -4.733   0.386   6.135  0.00  0.00    +0.062 C 
ATOM      6  C   LIG    1       -4.479   0.231   7.636  0.00  0.00    +0.036 C 
ATOM      7  C   LIG    1       -5.521   1.672   5.876  0.00  0.00    +0.036 C 
ATOM      8  C   LIG    1       -5.537  -0.806   5.613  0.00  0.00    +0.056 C 
ATOM      9  C   LIG    1       -5.565  -0.790   4.081  0.00  0.00    +0.104 C 
ATOM     10  N   LIG    1       -4.181  -0.928   3.587  0.00  0.00    -0.322 N 
ATOM     11  H   LIG    1       -3.957  -1.511   2.845  0.00  0.00    +0.148 HD
ATOM     12  C   LIG    1       -3.220  -0.177   4.242  0.00  0.00    +0.130 A 
ENDROOT
BRANCH   9  13
ATOM     13  C   LIG    1       -6.400  -1.938   3.573  0.00  0.00    -0.027 A 
ATOM     14  C   LIG    1       -5.870  -3.214   3.534  0.00  0.00    +0.005 A 
ATOM     15  C   LIG    1       -6.636  -4.266   3.068  0.00  0.00    +0.000 A 
ATOM     16  C   LIG    1       -7.932  -4.042   2.642  0.00  0.00    +0.000 A 
ATOM     17  C   LIG    1       -8.461  -2.766   2.681  0.00  0.00    +0.000 A 
ATOM     18  C   LIG    1       -7.697  -1.714   3.151  0.00  0.00    +0.005 A 
ENDBRANCH   9  13
BRANCH   1  21
ATOM     19  N   LIG    1        0.056  -0.038   2.447  0.00  0.00    -0.302 N 
ATOM     20  H   LIG    1        0.526   0.522   3.084  0.00  0.00    +0.150 HD
ATOM     21  C   LIG    1       -1.227  -0.383   2.671  0.00  0.00    +0.250 C 
ATOM     22  O   LIG    1       -1.817  -1.086   1.871  0.00  0.00    -0.270 OA
BRANCH  19  23
ATOM     23  C   LIG    1        0.742  -0.511   1.242  0.00  0.00    +0.059 C 
BRANCH  23  24
ATOM     24  C   LIG    1        2.156   0.011   1.231  0.00  0.00    -0.024 A 
ATOM     25  C   LIG    1        2.791   0.262   0.029  0.00  0.00    +0.006 A 
ATOM     26  C   LIG    1        4.088   0.740   0.019  0.00  0.00    +0.004 A 
ATOM     27  C   LIG    1        4.749   0.968   1.211  0.00  0.00    -0.050 A 
ATOM     28  C   LIG    1        6.164   1.489   1.200  0.00  0.00    +0.044 C 
ATOM     29  C   LIG    1        4.114   0.718   2.413  0.00  0.00    +0.004 A 
ATOM     30  C   LIG    1        2.816   0.243   2.423  0.00  0.00    +0.006 A 
ENDBRANCH  23  24
BRANCH  23  32
ATOM     31  C   LIG    1       -0.019   1.526   0.010  0.00  0.00    +0.006 C 
ATOM     32  C   LIG    1        0.002  -0.004   0.002  0.00  0.00    +0.027 C 
ENDBRANCH  23  32
BRANCH  23  33
ATOM     33  C   LIG    1        0.763  -2.041   1.233  0.00  0.00    +0.027 C 
ATOM     34  C   LIG    1        1.392  -2.549   2.532  0.00  0.00    +0.006 C 
ENDBRANCH  23  33
ENDBRANCH  19  23
ENDBRANCH   1  21
TORSDOF 6
