REMARK  Name = ZINC45358032
REMARK                            x       y       z     vdW  Elec       q    Type
REMARK                         _______ _______ _______ _____ _____    ______ ____
ROOT
ATOM      1  C   LIG    1        1.925  -8.889  -3.567  0.00  0.00    +0.035 A 
ATOM      2  C   LIG    1        2.501  -8.124  -4.575  0.00  0.00    +0.024 A 
ATOM      3  C   LIG    1        3.120  -8.739  -5.640  0.00  0.00    +0.013 A 
ATOM      4  C   LIG    1        3.169 -10.132  -5.707  0.00  0.00    +0.019 A 
ATOM      5  C   LIG    1        2.590 -10.898  -4.695  0.00  0.00    +0.013 A 
ATOM      6  C   LIG    1        1.976 -10.277  -3.629  0.00  0.00    +0.024 A 
ENDROOT
BRANCH   1  10
ATOM      7  N   LIG    1        0.139  -6.434  -1.612  0.00  0.00    -0.269 N 
ATOM      8  H   LIG    1        0.296  -6.764  -0.713  0.00  0.00    +0.156 HD
ATOM      9  C   LIG    1        0.655  -7.091  -2.670  0.00  0.00    +0.308 C 
ATOM     10  N   LIG    1        1.298  -8.262  -2.488  0.00  0.00    -0.269 N 
ATOM     11  H   LIG    1        1.325  -8.669  -1.608  0.00  0.00    +0.156 HD
ATOM     12  O   LIG    1        0.539  -6.628  -3.788  0.00  0.00    -0.252 OA
BRANCH   7  16
ATOM     13  C   LIG    1       -2.123  -2.987  -2.201  0.00  0.00    +0.059 A 
ATOM     14  C   LIG    1       -2.167  -4.023  -3.139  0.00  0.00    +0.017 A 
ATOM     15  C   LIG    1       -1.417  -5.161  -2.942  0.00  0.00    +0.024 A 
ATOM     16  C   LIG    1       -0.618  -5.281  -1.809  0.00  0.00    +0.035 A 
ATOM     17  C   LIG    1       -0.573  -4.252  -0.873  0.00  0.00    +0.024 A 
ATOM     18  C   LIG    1       -1.314  -3.109  -1.067  0.00  0.00    +0.017 A 
BRANCH  13  19
ATOM     19  C   LIG    1       -2.924  -1.767  -2.410  0.00  0.00    +0.339 C 
ATOM     20  O   LIG    1       -2.881  -0.866  -1.596  0.00  0.00    -0.245 OA
BRANCH  19  22
ATOM     21  C   LIG    1       -4.451  -0.442  -3.642  0.00  0.00    +0.280 C 
ATOM     22  O   LIG    1       -3.703  -1.651  -3.503  0.00  0.00    -0.464 OA
ENDBRANCH  19  22
ENDBRANCH  13  19
ENDBRANCH   7  16
ENDBRANCH   1  10
BRANCH   4  23
ATOM     23  C   LIG    1        3.834 -10.797  -6.852  0.00  0.00    +0.167 A 
ATOM     24  N   LIG    1        4.390 -10.066  -7.815  0.00  0.00    -0.194 NA
ATOM     25  C   LIG    1        4.987 -10.664  -8.842  0.00  0.00    +0.223 A 
ATOM     26  N   LIG    1        5.027 -11.991  -8.907  0.00  0.00    -0.181 NA
ATOM     27  C   LIG    1        4.472 -12.721  -7.945  0.00  0.00    +0.223 A 
ATOM     28  N   LIG    1        3.880 -12.125  -6.915  0.00  0.00    -0.194 NA
BRANCH  25  29
ATOM     29  N   LIG    1        5.563  -9.906  -9.841  0.00  0.00    -0.295 N 
ATOM     30  C   LIG    1        6.224 -10.544 -10.990  0.00  0.00    +0.136 C 
ATOM     31  C   LIG    1        5.668  -9.919 -12.275  0.00  0.00    +0.179 C 
ATOM     32  O   LIG    1        5.776  -8.496 -12.191  0.00  0.00    -0.377 OA
ATOM     33  C   LIG    1        5.014  -7.913 -11.131  0.00  0.00    +0.179 C 
ATOM     34  C   LIG    1        5.531  -8.435  -9.791  0.00  0.00    +0.136 C 
ENDBRANCH  25  29
BRANCH  27  35
ATOM     35  N   LIG    1        4.514 -14.099  -8.014  0.00  0.00    -0.295 N 
ATOM     36  C   LIG    1        5.175 -14.781  -9.138  0.00  0.00    +0.136 C 
ATOM     37  C   LIG    1        6.145 -15.823  -8.569  0.00  0.00    +0.179 C 
ATOM     38  O   LIG    1        5.449 -16.657  -7.641  0.00  0.00    -0.377 OA
ATOM     39  C   LIG    1        4.934 -15.963  -6.502  0.00  0.00    +0.179 C 
ATOM     40  C   LIG    1        3.906 -14.929  -6.962  0.00  0.00    +0.136 C 
ENDBRANCH  27  35
ENDBRANCH   4  23
TORSDOF 7
