REMARK  Name = ZINC14979038
REMARK                            x       y       z     vdW  Elec       q    Type
REMARK                         _______ _______ _______ _____ _____    ______ ____
ROOT
ATOM      1  C   LIG    1        2.451   3.937  -0.001  0.00  0.00    +0.092 C 
ENDROOT
BRANCH   1   5
ATOM      2  C   LIG    1       -1.219   1.751   0.017  0.00  0.00    +0.000 A 
ATOM      3  C   LIG    1       -0.013   1.076   0.008  0.00  0.00    +0.000 A 
ATOM      4  C   LIG    1        1.175   1.783   0.000  0.00  0.00    +0.004 A 
ATOM      5  C   LIG    1        1.156   3.165   0.008  0.00  0.00    -0.042 A 
ATOM      6  C   LIG    1       -0.050   3.840   0.023  0.00  0.00    +0.004 A 
ATOM      7  C   LIG    1       -1.238   3.133   0.030  0.00  0.00    +0.000 A 
ENDBRANCH   1   5
BRANCH   1   8
ATOM      8  C   LIG    1        2.869   4.201  -1.424  0.00  0.00    +0.063 A 
ATOM      9  C   LIG    1        3.135   5.407  -1.960  0.00  0.00    +0.107 A 
ATOM     10  N   LIG    1        3.478   5.193  -3.268  0.00  0.00    -0.351 N 
ATOM     11  C   LIG    1        3.401   3.863  -3.488  0.00  0.00    +0.196 A 
ATOM     12  H   LIG    1        3.737   5.891  -3.935  0.00  0.00    +0.166 HD
ATOM     13  N   LIG    1        3.036   3.276  -2.381  0.00  0.00    -0.241 NA
ENDBRANCH   1   8
TORSDOF 2
