REMARK  Name = ZINC20390276
REMARK                            x       y       z     vdW  Elec       q    Type
REMARK                         _______ _______ _______ _____ _____    ______ ____
ROOT
ATOM      1  C   LIG    1       -0.677  -2.517  -1.162  0.00  0.00    +0.099 A 
ATOM      2  C   LIG    1       -0.721  -3.914  -1.260  0.00  0.00    +0.130 A 
ATOM      3  N   LIG    1       -1.321  -4.644  -0.350  0.00  0.00    -0.235 NA
ATOM      4  C   LIG    1       -1.915  -4.104   0.712  0.00  0.00    +0.160 A 
ATOM      5  C   LIG    1       -1.918  -2.709   0.895  0.00  0.00    +0.060 A 
ATOM      6  C   LIG    1       -2.617  -2.449   2.096  0.00  0.00    +0.146 A 
ATOM      7  N   LIG    1       -3.007  -3.584   2.601  0.00  0.00    -0.177 NA
ATOM      8  N   LIG    1       -2.592  -4.634   1.774  0.00  0.00    -0.249 N 
ATOM      9  C   LIG    1       -2.842  -6.059   2.007  0.00  0.00    +0.174 C 
ATOM     10  C   LIG    1       -1.284  -1.890  -0.058  0.00  0.00    +0.055 A 
ENDROOT
BRANCH   1  11
ATOM     11  C   LIG    1       -0.004  -1.717  -2.196  0.00  0.00    +0.342 C 
ATOM     12  O   LIG    1        0.061  -0.509  -2.084  0.00  0.00    -0.245 OA
BRANCH  11  13
ATOM     13  O   LIG    1        0.542  -2.325  -3.269  0.00  0.00    -0.461 OA
BRANCH  13  15
ATOM     14  C   LIG    1        1.745  -2.335  -5.386  0.00  0.00    +0.048 C 
ATOM     15  C   LIG    1        1.191  -1.473  -4.250  0.00  0.00    +0.229 C 
ENDBRANCH  13  15
ENDBRANCH  11  13
ENDBRANCH   1  11
BRANCH  10  16
ATOM     16  N   LIG    1       -1.262  -0.518   0.082  0.00  0.00    -0.342 N 
ATOM     17  H   LIG    1       -1.922   0.235  -0.374  0.00  0.00    +0.146 HD
BRANCH  16  18
ATOM     18  C   LIG    1       -0.178  -0.098   0.981  0.00  0.00    +0.106 C 
BRANCH  18  19
ATOM     19  C   LIG    1       -0.105   1.430   1.011  0.00  0.00    +0.054 C 
BRANCH  19  20
ATOM     20  C   LIG    1        1.007   1.861   1.933  0.00  0.00    -0.046 A 
ATOM     21  C   LIG    1        0.748   2.083   3.272  0.00  0.00    +0.004 A 
ATOM     22  C   LIG    1        1.768   2.473   4.119  0.00  0.00    +0.000 A 
ATOM     23  C   LIG    1        3.047   2.652   3.623  0.00  0.00    +0.000 A 
ATOM     24  C   LIG    1        3.305   2.436   2.283  0.00  0.00    +0.000 A 
ATOM     25  C   LIG    1        2.285   2.040   1.437  0.00  0.00    +0.004 A 
ENDBRANCH  19  20
ENDBRANCH  18  19
ENDBRANCH  16  18
ENDBRANCH  10  16
TORSDOF 7
