REMARK  Name = ZINC40865722
REMARK                            x       y       z     vdW  Elec       q    Type
REMARK                         _______ _______ _______ _____ _____    ______ ____
ROOT
ATOM      1  C   LIG    1        4.575  -4.547  -5.295  0.00  0.00    +0.192 A 
ATOM      2  N   LIG    1        5.854  -4.330  -5.568  0.00  0.00    -0.207 NA
ATOM      3  C   LIG    1        6.366  -4.682  -6.743  0.00  0.00    +0.129 A 
ATOM      4  C   LIG    1        5.536  -5.286  -7.690  0.00  0.00    +0.084 A 
ATOM      5  C   LIG    1        4.208  -5.494  -7.366  0.00  0.00    +0.135 A 
ATOM      6 CL   LIG    1        3.133  -6.240  -8.507  0.00  0.00    -0.062 Cl
ATOM      7  N   LIG    1        3.765  -5.122  -6.173  0.00  0.00    -0.210 NA
ENDROOT
BRANCH   3   8
ATOM      8  N   LIG    1        7.704  -4.454  -7.024  0.00  0.00    -0.299 N 
ATOM      9  H   LIG    1        8.092  -4.794  -7.845  0.00  0.00    +0.154 HD
BRANCH   8  10
ATOM     10  C   LIG    1        8.494  -3.732  -6.124  0.00  0.00    +0.036 A 
ATOM     11  C   LIG    1        7.904  -2.830  -5.248  0.00  0.00    +0.023 A 
ATOM     12  C   LIG    1        8.687  -2.119  -4.360  0.00  0.00    +0.002 A 
ATOM     13  C   LIG    1       10.058  -2.304  -4.344  0.00  0.00    +0.004 A 
ATOM     14  C   LIG    1       10.648  -3.200  -5.215  0.00  0.00    -0.046 A 
ATOM     15  C   LIG    1       12.142  -3.397  -5.194  0.00  0.00    +0.044 C 
ATOM     16  C   LIG    1        9.870  -3.920  -6.101  0.00  0.00    -0.026 A 
ATOM     17  C   LIG    1       10.514  -4.901  -7.046  0.00  0.00    +0.046 C 
ENDBRANCH   8  10
ENDBRANCH   3   8
BRANCH   1  18
ATOM     18  S   LIG    1        3.938  -4.065  -3.725  0.00  0.00    -0.071 S 
BRANCH  18  19
ATOM     19  C   LIG    1        2.191  -4.551  -3.792  0.00  0.00    +0.162 C 
BRANCH  19  20
ATOM     20  C   LIG    1        2.091  -6.051  -3.890  0.00  0.00    +0.318 C 
ATOM     21  O   LIG    1        1.799  -6.574  -4.952  0.00  0.00    -0.250 OA
BRANCH  20  22
ATOM     22  O   LIG    1        2.301  -6.741  -2.908  0.00  0.00    -0.480 OA
ATOM     23  H   LIG    1        2.526  -6.339  -2.092  0.00  0.00    +0.295 HD
ENDBRANCH  20  22
ENDBRANCH  19  20
BRANCH  19  24
ATOM     24  C   LIG    1        1.480  -4.073  -2.525  0.00  0.00    +0.026 C 
BRANCH  24  25
ATOM     25  C   LIG    1        1.473  -2.543  -2.489  0.00  0.00    +0.002 C 
BRANCH  25  26
ATOM     26  C   LIG    1        0.762  -2.066  -1.221  0.00  0.00    +0.000 C 
BRANCH  26  27
ATOM     27  C   LIG    1        0.755  -0.536  -1.185  0.00  0.00    -0.000 C 
BRANCH  27  29
ATOM     28  C   LIG    1        0.038   1.470   0.118  0.00  0.00    +0.004 C 
ATOM     29  C   LIG    1        0.044  -0.059   0.082  0.00  0.00    -0.003 C 
ENDBRANCH  27  29
ENDBRANCH  26  27
ENDBRANCH  25  26
ENDBRANCH  24  25
ENDBRANCH  19  24
ENDBRANCH  18  19
ENDBRANCH   1  18
TORSDOF 11
