REMARK  Name = ZINC20114431
REMARK                            x       y       z     vdW  Elec       q    Type
REMARK                         _______ _______ _______ _____ _____    ______ ____
ROOT
ATOM      1  C   LIG    1        7.436  -8.296   0.988  0.00  0.00    +0.044 C 
ATOM      2  C   LIG    1        6.156  -8.871   1.536  0.00  0.00    -0.038 A 
ATOM      3  C   LIG    1        6.116 -10.139   2.031  0.00  0.00    +0.047 A 
ATOM      4  C   LIG    1        4.913 -10.654   2.537  0.00  0.00    +0.122 A 
ATOM      5  N   LIG    1        3.808  -9.938   2.547  0.00  0.00    -0.232 NA
ATOM      6  C   LIG    1        3.786  -8.686   2.074  0.00  0.00    +0.073 A 
ATOM      7  C   LIG    1        2.601  -7.931   2.089  0.00  0.00    +0.030 A 
ATOM      8  C   LIG    1        2.599  -6.659   1.608  0.00  0.00    +0.025 A 
ATOM      9  C   LIG    1        3.763  -6.086   1.084  0.00  0.00    +0.034 A 
ATOM     10  C   LIG    1        4.942  -6.798   1.054  0.00  0.00    +0.033 A 
ATOM     11  C   LIG    1        4.969  -8.110   1.550  0.00  0.00    +0.005 A 
ENDROOT
BRANCH   4  12
ATOM     12  N   LIG    1        4.888 -11.947   3.039  0.00  0.00    -0.313 N 
ATOM     13  C   LIG    1        5.354 -12.912   2.032  0.00  0.00    +0.122 C 
ATOM     14  C   LIG    1        5.386 -14.312   2.648  0.00  0.00    +0.103 C 
ATOM     15  N   LIG    1        4.042 -14.664   3.128  0.00  0.00    -0.302 NA
ATOM     16  C   LIG    1        4.015 -16.034   3.659  0.00  0.00    +0.105 C 
ATOM     17  C   LIG    1        3.576 -13.700   4.135  0.00  0.00    +0.103 C 
ATOM     18  C   LIG    1        3.544 -12.299   3.518  0.00  0.00    +0.122 C 
ENDBRANCH   4  12
BRANCH   9  19
ATOM     19  N   LIG    1        3.730  -4.776   0.591  0.00  0.00    -0.282 N 
ATOM     20  H   LIG    1        4.602  -4.117   0.721  0.00  0.00    +0.155 HD
ATOM     21  C   LIG    1        2.631  -4.322  -0.043  0.00  0.00    +0.258 C 
ATOM     22  O   LIG    1        1.643  -5.021  -0.120  0.00  0.00    -0.271 OA
BRANCH  21  23
ATOM     23  C   LIG    1        2.630  -2.945  -0.656  0.00  0.00    +0.256 C 
ATOM     24  C   LIG    1        3.645  -2.895  -1.800  0.00  0.00    +0.062 C 
BRANCH  23  25
ATOM     25  O   LIG    1        1.327  -2.650  -1.163  0.00  0.00    -0.478 OA
BRANCH  25  26
ATOM     26  C   LIG    1        0.994  -1.338  -1.283  0.00  0.00    +0.140 A 
ATOM     27  C   LIG    1        1.866  -0.356  -0.836  0.00  0.00    +0.048 A 
ATOM     28  C   LIG    1        1.526   0.977  -0.960  0.00  0.00    +0.023 A 
ATOM     29  C   LIG    1        0.316   1.334  -1.530  0.00  0.00    +0.043 A 
ATOM     30 CL   LIG    1       -0.107   3.011  -1.684  0.00  0.00    -0.083 Cl
ATOM     31  C   LIG    1       -0.555   0.357  -1.977  0.00  0.00    +0.043 A 
ATOM     32  C   LIG    1       -0.219  -0.978  -1.855  0.00  0.00    +0.084 A 
ATOM     33 CL   LIG    1       -1.312  -2.204  -2.416  0.00  0.00    -0.080 Cl
ENDBRANCH  25  26
ENDBRANCH  23  25
ENDBRANCH  21  23
ENDBRANCH   9  19
TORSDOF 5
