REMARK  Name = ZINC39124200
REMARK                            x       y       z     vdW  Elec       q    Type
REMARK                         _______ _______ _______ _____ _____    ______ ____
ROOT
ATOM      1  C   LIG    1        0.560  -1.947   1.003  0.00  0.00    +0.116 A 
ATOM      2  N   LIG    1       -0.396  -2.701   1.487  0.00  0.00    -0.236 NA
ATOM      3  C   LIG    1       -0.126  -3.985   1.246  0.00  0.00    +0.066 A 
ATOM      4  C   LIG    1       -0.977  -5.164   1.643  0.00  0.00    +0.068 C 
ATOM      5  C   LIG    1        1.073  -4.037   0.570  0.00  0.00    +0.092 A 
ATOM      6  C   LIG    1        1.861  -5.086   0.054  0.00  0.00    +0.065 A 
ATOM      7  C   LIG    1        1.402  -6.513   0.213  0.00  0.00    +0.068 C 
ATOM      8  N   LIG    1        2.980  -4.832  -0.573  0.00  0.00    -0.247 NA
ATOM      9  C   LIG    1        3.424  -3.560  -0.736  0.00  0.00    +0.107 A 
ATOM     10  C   LIG    1        4.629  -3.307  -1.403  0.00  0.00    +0.033 A 
ATOM     11  C   LIG    1        5.036  -1.993  -1.543  0.00  0.00    +0.022 A 
ATOM     12  C   LIG    1        4.250  -0.977  -1.026  0.00  0.00    +0.113 A 
ATOM     13  N   LIG    1        3.118  -1.236  -0.402  0.00  0.00    -0.235 NA
ATOM     14  C   LIG    1        2.681  -2.474  -0.239  0.00  0.00    +0.165 A 
ATOM     15  N   LIG    1        1.489  -2.725   0.421  0.00  0.00    -0.277 N 
ENDROOT
BRANCH   1  16
ATOM     16  C   LIG    1        0.607  -0.442   1.080  0.00  0.00    +0.074 C 
BRANCH  16  18
ATOM     17  C   LIG    1       -0.041   1.680  -0.068  0.00  0.00    +0.004 C 
ATOM     18  C   LIG    1       -0.089   0.153  -0.146  0.00  0.00    +0.004 C 
ENDBRANCH  16  18
ENDBRANCH   1  16
TORSDOF 2
