REMARK  Name = ZINC39193938
REMARK                            x       y       z     vdW  Elec       q    Type
REMARK                         _______ _______ _______ _____ _____    ______ ____
ROOT
ATOM      1  N   LIG    1        2.237 -10.902  -0.555  0.00  0.00    -0.175 NA
ATOM      2  H   LIG    1        2.874 -11.529  -0.933  0.00  0.00    +0.149 HD
ENDROOT
BRANCH   1   3
ATOM      3  S   LIG    1        0.914 -10.436  -1.436  0.00  0.00    +0.065 S 
ATOM      4  O   LIG    1        1.009 -11.095  -2.691  0.00  0.00    -0.153 OA
ATOM      5  O   LIG    1       -0.213 -10.580  -0.583  0.00  0.00    -0.153 OA
BRANCH   3   9
ATOM      6  C   LIG    1        1.108  -6.016  -1.844  0.00  0.00    +0.021 A 
ATOM      7  C   LIG    1        1.701  -6.718  -2.858  0.00  0.00    +0.018 A 
ATOM      8  C   LIG    1        1.685  -8.095  -2.808  0.00  0.00    +0.037 A 
ATOM      9  C   LIG    1        1.085  -8.712  -1.758  0.00  0.00    +0.143 A 
ATOM     10  S   LIG    1        0.518  -7.327  -0.785  0.00  0.00    -0.069 S 
BRANCH   6  14
ATOM     11  C   LIG    1        0.777  -1.810  -1.336  0.00  0.00    +0.121 A 
ATOM     12  C   LIG    1        0.241  -2.667  -0.384  0.00  0.00    +0.046 A 
ATOM     13  C   LIG    1        0.346  -4.032  -0.545  0.00  0.00    +0.012 A 
ATOM     14  C   LIG    1        0.993  -4.553  -1.667  0.00  0.00    -0.011 A 
ATOM     15  C   LIG    1        1.530  -3.688  -2.623  0.00  0.00    +0.012 A 
ATOM     16  C   LIG    1        1.415  -2.324  -2.457  0.00  0.00    +0.046 A 
BRANCH  11  17
ATOM     17  O   LIG    1        0.671  -0.465  -1.174  0.00  0.00    -0.492 OA
BRANCH  17  19
ATOM     18  C   LIG    1       -0.019   1.526   0.010  0.00  0.00    +0.048 C 
ATOM     19  C   LIG    1        0.002  -0.004   0.002  0.00  0.00    +0.225 C 
ENDBRANCH  17  19
ENDBRANCH  11  17
ENDBRANCH   6  14
ENDBRANCH   3   9
ENDBRANCH   1   3
BRANCH   1  20
ATOM     20  C   LIG    1        2.445 -10.369   0.793  0.00  0.00    +0.188 C 
BRANCH  20  21
ATOM     21  C   LIG    1        3.943 -10.186   1.044  0.00  0.00    +0.021 C 
ATOM     22  C   LIG    1        4.650 -11.536   0.913  0.00  0.00    +0.025 C 
ATOM     23  C   LIG    1        6.155 -11.344   1.131  0.00  0.00    +0.111 C 
ATOM     24  N   LIG    1        6.364 -10.675   2.422  0.00  0.00    -0.267 N 
ATOM     25  C   LIG    1        7.187 -11.209   3.346  0.00  0.00    +0.403 C 
ATOM     26  O   LIG    1        7.764 -12.252   3.115  0.00  0.00    -0.226 OA
ATOM     27  C   LIG    1        5.658  -9.414   2.687  0.00  0.00    +0.111 C 
ATOM     28  C   LIG    1        4.160  -9.628   2.452  0.00  0.00    +0.025 C 
BRANCH  25  29
ATOM     29  O   LIG    1        7.370 -10.585   4.525  0.00  0.00    -0.448 OA
BRANCH  29  30
ATOM     30  C   LIG    1        8.256 -11.207   5.458  0.00  0.00    +0.172 C 
ATOM     31  C   LIG    1        7.465 -12.165   6.351  0.00  0.00    +0.052 C 
ATOM     32  C   LIG    1        8.921 -10.134   6.323  0.00  0.00    +0.052 C 
ENDBRANCH  29  30
ENDBRANCH  25  29
ENDBRANCH  20  21
BRANCH  20  33
ATOM     33  C   LIG    1        1.880 -11.330   1.806  0.00  0.00    +0.324 C 
ATOM     34  O   LIG    1        1.518 -12.441   1.458  0.00  0.00    -0.249 OA
BRANCH  33  35
ATOM     35  O   LIG    1        1.784 -10.997   2.975  0.00  0.00    -0.479 OA
ATOM     36  H   LIG    1        2.061 -10.143   3.243  0.00  0.00    +0.295 HD
ENDBRANCH  33  35
ENDBRANCH  20  33
ENDBRANCH   1  20
TORSDOF 11
