REMARK  Name = ZINC19735102
REMARK                            x       y       z     vdW  Elec       q    Type
REMARK                         _______ _______ _______ _____ _____    ______ ____
ROOT
ATOM      1  C   LIG    1        1.252  -0.649   0.026  0.00  0.00    +0.020 A 
ATOM      2  C   LIG    1        0.589  -0.021  -1.020  0.00  0.00    +0.017 A 
ATOM      3  C   LIG    1        0.540   1.361  -1.036  0.00  0.00    +0.095 A 
ATOM      4  C   LIG    1        1.153   2.071  -0.008  0.00  0.00    +0.133 A 
ATOM      5  N   LIG    1        1.775   1.436   0.972  0.00  0.00    -0.240 NA
ATOM      6  C   LIG    1        1.838   0.118   1.012  0.00  0.00    +0.113 A 
ENDROOT
BRANCH   4   7
ATOM      7  N   LIG    1        1.111   3.461  -0.011  0.00  0.00    -0.318 N 
ATOM      8  C   LIG    1        0.433   3.970   1.189  0.00  0.00    +0.087 C 
ATOM      9  C   LIG    1        0.338   5.495   1.109  0.00  0.00    -0.063 C 
ATOM     10  N   LIG    1        1.688   6.062   0.990  0.00  0.00    +0.381 N 
ATOM     11  H   LIG    1        2.281   5.787   1.875  0.00  0.00    -0.086 HD
ATOM     12  H   LIG    1        1.621   7.158   0.921  0.00  0.00    -0.086 HD
ATOM     13  C   LIG    1        2.366   5.553  -0.210  0.00  0.00    -0.063 C 
ATOM     14  C   LIG    1        2.462   4.028  -0.130  0.00  0.00    +0.087 C 
ENDBRANCH   4   7
BRANCH   3  15
ATOM     15  C   LIG    1       -0.163   2.088  -2.153  0.00  0.00    +0.421 C 
ATOM     16  F   LIG    1        0.726   2.981  -2.760  0.00  0.00    -0.166 F 
ATOM     17  F   LIG    1       -1.254   2.795  -1.636  0.00  0.00    -0.166 F 
ATOM     18  F   LIG    1       -0.614   1.162  -3.100  0.00  0.00    -0.166 F 
ENDBRANCH   3  15
TORSDOF 2
