REMARK  Name = ZINC13766073
REMARK                            x       y       z     vdW  Elec       q    Type
REMARK                         _______ _______ _______ _____ _____    ______ ____
ROOT
ATOM      1  C   LIG    1       -2.103   0.365   0.759  0.00  0.00    +0.053 C 
ENDROOT
BRANCH   1   2
ATOM      2  C   LIG    1       -1.104   0.555   1.872  0.00  0.00    -0.027 C 
ATOM      3  C   LIG    1       -0.831  -0.436   2.683  0.00  0.00    -0.031 C 
BRANCH   3   4
ATOM      4  C   LIG    1       -1.385  -1.810   2.407  0.00  0.00    +0.027 C 
BRANCH   4   5
ATOM      5  C   LIG    1       -0.246  -2.832   2.417  0.00  0.00    +0.016 C 
BRANCH   5   6
ATOM      6  C   LIG    1       -0.809  -4.226   2.137  0.00  0.00    +0.072 C 
ATOM      7  C   LIG    1       -1.380  -4.271   0.718  0.00  0.00    +0.017 C 
BRANCH   6   8
ATOM      8  C   LIG    1        0.291  -5.248   2.268  0.00  0.00    +0.216 C 
ATOM      9  N   LIG    1        0.026  -6.553   2.064  0.00  0.00    -0.313 N 
ATOM     10  H   LIG    1       -0.873  -6.836   1.833  0.00  0.00    +0.149 HD
ATOM     11  O   LIG    1        1.415  -4.895   2.557  0.00  0.00    -0.276 OA
BRANCH   9  12
ATOM     12  C   LIG    1        1.096  -7.546   2.192  0.00  0.00    +0.137 C 
BRANCH  12  13
ATOM     13  C   LIG    1        0.533  -8.941   1.912  0.00  0.00    +0.232 C 
ATOM     14  F   LIG    1        1.554  -9.889   2.033  0.00  0.00    -0.247 F 
ENDBRANCH  12  13
ENDBRANCH   9  12
ENDBRANCH   6   8
ENDBRANCH   5   6
ENDBRANCH   4   5
ENDBRANCH   3   4
ENDBRANCH   1   2
BRANCH   1  16
ATOM     15  C   LIG    1       -3.424   2.177  -0.206  0.00  0.00    -0.027 C 
ATOM     16  C   LIG    1       -3.158   1.438   0.843  0.00  0.00    -0.027 C 
BRANCH  15  17
ATOM     17  C   LIG    1       -2.809   1.843  -1.540  0.00  0.00    +0.053 C 
BRANCH  17  19
ATOM     18  C   LIG    1       -3.809   2.408  -3.694  0.00  0.00    -0.027 C 
ATOM     19  C   LIG    1       -3.894   1.726  -2.579  0.00  0.00    -0.027 C 
BRANCH  18  20
ATOM     20  C   LIG    1       -2.543   3.155  -4.026  0.00  0.00    +0.053 C 
BRANCH  20  22
ATOM     21  C   LIG    1       -1.837   3.691  -6.301  0.00  0.00    -0.031 C 
ATOM     22  C   LIG    1       -2.077   2.766  -5.405  0.00  0.00    -0.027 C 
BRANCH  21  23
ATOM     23  C   LIG    1       -1.855   5.145  -5.906  0.00  0.00    +0.027 C 
BRANCH  23  24
ATOM     24  C   LIG    1       -0.544   5.806  -6.337  0.00  0.00    +0.004 C 
BRANCH  24  25
ATOM     25  C   LIG    1       -0.562   7.283  -5.935  0.00  0.00    +0.000 C 
BRANCH  25  27
ATOM     26  C   LIG    1        0.731   9.421  -5.965  0.00  0.00    +0.004 C 
ATOM     27  C   LIG    1        0.749   7.944  -6.366  0.00  0.00    -0.003 C 
ENDBRANCH  25  27
ENDBRANCH  24  25
ENDBRANCH  23  24
ENDBRANCH  21  23
ENDBRANCH  20  22
ENDBRANCH  18  20
ENDBRANCH  17  19
ENDBRANCH  15  17
ENDBRANCH   1  16
TORSDOF 16
