REMARK  Name = ZINC40525693
REMARK                            x       y       z     vdW  Elec       q    Type
REMARK                         _______ _______ _______ _____ _____    ______ ____
ROOT
ATOM      1  N   LIG    1       -1.704  -2.373  -4.590  0.00  0.00    -0.296 N 
ATOM      2  H   LIG    1       -2.563  -1.925  -4.616  0.00  0.00    +0.151 HD
ATOM      3  C   LIG    1       -1.523  -3.523  -5.269  0.00  0.00    +0.304 C 
ATOM      4  N   LIG    1       -2.537  -4.052  -5.982  0.00  0.00    -0.269 N 
ATOM      5  H   LIG    1       -3.373  -3.567  -6.069  0.00  0.00    +0.156 HD
ATOM      6  O   LIG    1       -0.444  -4.085  -5.237  0.00  0.00    -0.253 OA
ENDROOT
BRANCH   1  12
ATOM      7  C   LIG    1        0.770  -0.454   0.843  0.00  0.00    +0.109 C 
ATOM      8  C   LIG    1        0.511   0.277  -0.449  0.00  0.00    +0.212 C 
ATOM      9  N   LIG    1        0.495  -0.400  -1.615  0.00  0.00    -0.302 N 
ATOM     10  C   LIG    1        0.363   0.313  -2.893  0.00  0.00    +0.109 C 
ATOM     11  C   LIG    1       -0.809  -0.289  -3.674  0.00  0.00    +0.041 C 
ATOM     12  C   LIG    1       -0.601  -1.799  -3.815  0.00  0.00    +0.077 C 
ATOM     13  C   LIG    1       -0.565  -2.442  -2.427  0.00  0.00    +0.041 C 
ATOM     14  C   LIG    1        0.615  -1.864  -1.631  0.00  0.00    +0.109 C 
ATOM     15  O   LIG    1        0.317   1.474  -0.441  0.00  0.00    -0.276 OA
ENDBRANCH   1  12
BRANCH   4  16
ATOM     16  C   LIG    1       -2.384  -5.301  -6.599  0.00  0.00    +0.035 A 
ATOM     17  C   LIG    1       -3.002  -5.555  -7.816  0.00  0.00    +0.027 A 
ATOM     18  C   LIG    1       -2.850  -6.786  -8.423  0.00  0.00    +0.048 A 
ATOM     19  C   LIG    1       -2.080  -7.769  -7.817  0.00  0.00    +0.130 A 
ATOM     20  C   LIG    1       -1.463  -7.515  -6.601  0.00  0.00    +0.048 A 
ATOM     21  C   LIG    1       -1.609  -6.283  -5.996  0.00  0.00    +0.027 A 
BRANCH  19  22
ATOM     22  O   LIG    1       -1.931  -8.981  -8.416  0.00  0.00    -0.406 OA
BRANCH  22  23
ATOM     23  C   LIG    1       -1.125  -9.945  -7.736  0.00  0.00    +0.575 C 
ATOM     24  F   LIG    1        0.171  -9.442  -7.579  0.00  0.00    -0.133 F 
ATOM     25  F   LIG    1       -1.079 -11.126  -8.485  0.00  0.00    -0.133 F 
ATOM     26  F   LIG    1       -1.677 -10.212  -6.479  0.00  0.00    -0.133 F 
ENDBRANCH  22  23
ENDBRANCH  19  22
ENDBRANCH   4  16
TORSDOF 4
