REMARK  Name = ZINC20248660
REMARK                            x       y       z     vdW  Elec       q    Type
REMARK                         _______ _______ _______ _____ _____    ______ ____
ROOT
ATOM      1  N   LIG    1        0.963  -2.021  -3.584  0.00  0.00    -0.296 NA
ATOM      2  C   LIG    1        1.725  -2.363  -2.375  0.00  0.00    +0.100 C 
ATOM      3  C   LIG    1        0.939  -1.924  -1.138  0.00  0.00    +0.100 C 
ATOM      4  N   LIG    1        0.690  -0.478  -1.207  0.00  0.00    -0.300 NA
ATOM      5  C   LIG    1       -0.073  -0.135  -2.415  0.00  0.00    +0.100 C 
ATOM      6  C   LIG    1        0.713  -0.574  -3.653  0.00  0.00    +0.100 C 
ENDROOT
BRANCH   1   7
ATOM      7  C   LIG    1        1.650  -2.494  -4.792  0.00  0.00    +0.119 C 
BRANCH   7  11
ATOM      8  C   LIG    1       -0.945  -2.080  -8.162  0.00  0.00    +0.120 A 
ATOM      9  C   LIG    1       -0.097  -1.041  -7.806  0.00  0.00    +0.046 A 
ATOM     10  C   LIG    1        0.741  -1.177  -6.716  0.00  0.00    +0.008 A 
ATOM     11  C   LIG    1        0.735  -2.348  -5.981  0.00  0.00    -0.033 A 
ATOM     12  C   LIG    1       -0.104  -3.387  -6.337  0.00  0.00    +0.008 A 
ATOM     13  C   LIG    1       -0.948  -3.253  -7.423  0.00  0.00    +0.046 A 
BRANCH   8  15
ATOM     14  C   LIG    1       -2.615  -3.058  -9.542  0.00  0.00    +0.277 C 
ATOM     15  O   LIG    1       -1.770  -1.948  -9.234  0.00  0.00    -0.495 OA
ENDBRANCH   8  15
ENDBRANCH   7  11
ENDBRANCH   1   7
BRANCH   4  16
ATOM     16  C   LIG    1        0.002  -0.004   0.002  0.00  0.00    +0.085 C 
BRANCH  16  17
ATOM     17  C   LIG    1       -0.019   1.526   0.010  0.00  0.00    +0.020 C 
BRANCH  17  18
ATOM     18  C   LIG    1       -0.735   2.019   1.269  0.00  0.00    +0.036 C 
BRANCH  18  19
ATOM     19  C   LIG    1       -0.755   3.526   1.278  0.00  0.00    -0.047 A 
ATOM     20  C   LIG    1        0.275   4.228   1.875  0.00  0.00    +0.003 A 
ATOM     21  C   LIG    1        0.259   5.610   1.878  0.00  0.00    +0.000 A 
ATOM     22  C   LIG    1       -0.793   6.290   1.293  0.00  0.00    +0.000 A 
ATOM     23  C   LIG    1       -1.826   5.588   0.701  0.00  0.00    +0.000 A 
ATOM     24  C   LIG    1       -1.807   4.206   0.693  0.00  0.00    +0.003 A 
ENDBRANCH  18  19
ENDBRANCH  17  18
ENDBRANCH  16  17
ENDBRANCH   4  16
TORSDOF 7
