REMARK  Name = ZINC14618978
REMARK                            x       y       z     vdW  Elec       q    Type
REMARK                         _______ _______ _______ _____ _____    ______ ____
ROOT
ATOM      1  C   LIG    1       -2.200   1.965   1.275  0.00  0.00    +0.267 C 
ATOM      2  C   LIG    1       -1.331   2.074   0.020  0.00  0.00    +0.267 C 
ATOM      3  O   LIG    1       -1.482   3.155   0.942  0.00  0.00    -0.345 OA
ENDROOT
BRANCH   1   4
ATOM      4  C   LIG    1       -1.681   1.129   2.417  0.00  0.00    +0.339 C 
ATOM      5  O   LIG    1       -1.407   1.650   3.471  0.00  0.00    -0.248 OA
BRANCH   4   6
ATOM      6  O   LIG    1       -1.524  -0.195   2.262  0.00  0.00    -0.463 OA
BRANCH   6   8
ATOM      7  C   LIG    1       -0.908  -2.419   3.040  0.00  0.00    +0.048 C 
ATOM      8  C   LIG    1       -1.020  -0.937   3.404  0.00  0.00    +0.229 C 
ENDBRANCH   6   8
ENDBRANCH   4   6
ENDBRANCH   1   4
BRANCH   2   9
ATOM      9  C   LIG    1       -0.016   1.338   0.009  0.00  0.00    +0.337 C 
ATOM     10  O   LIG    1        1.022   1.956   0.003  0.00  0.00    -0.248 OA
BRANCH   9  11
ATOM     11  O   LIG    1        0.002  -0.004   0.002  0.00  0.00    -0.479 OA
ATOM     12  H   LIG    1       -0.803  -0.484   0.007  0.00  0.00    +0.295 HD
ENDBRANCH   9  11
ENDBRANCH   2   9
TORSDOF 5
