REMARK  Name = ZINC14025557
REMARK                            x       y       z     vdW  Elec       q    Type
REMARK                         _______ _______ _______ _____ _____    ______ ____
ROOT
ATOM      1  C   LIG    1       13.734   6.302   0.640  0.00  0.00    +0.046 C 
ATOM      2  C   LIG    1       13.011   5.994   1.926  0.00  0.00    -0.022 A 
ATOM      3  C   LIG    1       13.662   6.101   3.115  0.00  0.00    +0.014 A 
ATOM      4  C   LIG    1       13.005   5.817   4.323  0.00  0.00    -0.014 A 
ATOM      5  C   LIG    1       11.680   5.423   4.329  0.00  0.00    +0.040 A 
ATOM      6  C   LIG    1       10.990   5.307   3.114  0.00  0.00    +0.112 A 
ATOM      7  N   LIG    1        9.707   4.929   3.069  0.00  0.00    -0.144 NA
ATOM      8  N   LIG    1        9.107   4.833   1.932  0.00  0.00    -0.112 NA
ATOM      9  C   LIG    1        9.726   5.101   0.780  0.00  0.00    +0.240 A 
ATOM     10  N   LIG    1       10.992   5.474   0.747  0.00  0.00    -0.211 NA
ATOM     11  C   LIG    1       11.665   5.596   1.898  0.00  0.00    +0.097 A 
ENDROOT
BRANCH   4  12
ATOM     12  C   LIG    1       13.740   5.942   5.606  0.00  0.00    +0.004 A 
ATOM     13  C   LIG    1       13.191   6.672   6.657  0.00  0.00    +0.055 A 
ATOM     14  C   LIG    1       13.879   6.781   7.854  0.00  0.00    +0.118 A 
ATOM     15  C   LIG    1       15.119   6.173   8.000  0.00  0.00    +0.047 A 
ATOM     16  C   LIG    1       15.668   5.453   6.956  0.00  0.00    +0.024 A 
ATOM     17  C   LIG    1       14.986   5.335   5.760  0.00  0.00    +0.049 A 
ATOM     18 CL   LIG    1       15.679   4.430   4.451  0.00  0.00    -0.083 Cl
BRANCH  14  19
ATOM     19  O   LIG    1       13.344   7.488   8.884  0.00  0.00    -0.507 OA
ATOM     20  H   LIG    1       13.584   8.425   8.884  0.00  0.00    +0.292 HD
ENDBRANCH  14  19
ENDBRANCH   4  12
BRANCH   9  21
ATOM     21  N   LIG    1        9.026   4.979  -0.408  0.00  0.00    -0.282 N 
ATOM     22  H   LIG    1        9.483   5.096  -1.255  0.00  0.00    +0.155 HD
BRANCH  21  23
ATOM     23  C   LIG    1        7.657   4.686  -0.386  0.00  0.00    +0.034 A 
ATOM     24  C   LIG    1        6.862   5.157   0.651  0.00  0.00    +0.027 A 
ATOM     25  C   LIG    1        5.511   4.868   0.671  0.00  0.00    +0.047 A 
ATOM     26  C   LIG    1        4.949   4.109  -0.345  0.00  0.00    +0.121 A 
ATOM     27  C   LIG    1        5.743   3.634  -1.378  0.00  0.00    +0.047 A 
ATOM     28  C   LIG    1        7.093   3.926  -1.403  0.00  0.00    +0.027 A 
BRANCH  26  29
ATOM     29  O   LIG    1        3.619   3.825  -0.324  0.00  0.00    -0.494 OA
BRANCH  29  30
ATOM     30  C   LIG    1        3.107   3.038  -1.401  0.00  0.00    +0.210 C 
BRANCH  30  31
ATOM     31  C   LIG    1        1.605   2.823  -1.207  0.00  0.00    -0.037 C 
BRANCH  31  32
ATOM     32  N   LIG    1        0.895   4.134  -1.318  0.00  0.00    +0.382 N 
ATOM     33  H   LIG    1        1.139   4.717  -0.509  0.00  0.00    -0.082 HD
ATOM     34  C   LIG    1        1.274   4.822  -2.557  0.00  0.00    -0.079 C 
ATOM     35  C   LIG    1        0.113   5.831  -2.745  0.00  0.00    -0.020 C 
ATOM     36  C   LIG    1       -1.121   5.030  -2.270  0.00  0.00    -0.020 C 
ATOM     37  C   LIG    1       -0.556   3.923  -1.360  0.00  0.00    -0.079 C 
ENDBRANCH  31  32
ENDBRANCH  30  31
ENDBRANCH  29  30
ENDBRANCH  26  29
ENDBRANCH  21  23
ENDBRANCH   9  21
TORSDOF 8
