REMARK  Name = ZINC13981024
REMARK                            x       y       z     vdW  Elec       q    Type
REMARK                         _______ _______ _______ _____ _____    ______ ____
ROOT
ATOM      1  N   LIG    1        0.002  -0.004   0.002  0.00  0.00    -0.324 N 
ATOM      2  C   LIG    1       -0.017   1.370   0.010  0.00  0.00    +0.070 A 
ATOM      3  C   LIG    1       -1.011   2.342   0.029  0.00  0.00    +0.047 A 
ATOM      4  C   LIG    1       -0.643   3.670   0.029  0.00  0.00    +0.113 A 
ATOM      5  N   LIG    1        0.630   4.030   0.018  0.00  0.00    -0.261 NA
ATOM      6  C   LIG    1        1.611   3.153   0.004  0.00  0.00    +0.138 A 
ATOM      7  C   LIG    1        1.331   1.784  -0.001  0.00  0.00    +0.083 A 
ATOM      8  N   LIG    1        2.092   0.665  -0.014  0.00  0.00    -0.337 N 
ATOM      9  H   LIG    1        3.118   0.646  -0.024  0.00  0.00    +0.167 HD
ATOM     10  C   LIG    1        1.316  -0.392  -0.013  0.00  0.00    +0.145 A 
ENDROOT
BRANCH  10  11
ATOM     11  C   LIG    1        1.789  -1.794  -0.024  0.00  0.00    +0.189 A 
ATOM     12  C   LIG    1        3.180  -2.303  -0.046  0.00  0.00    +0.191 A 
ATOM     13  N   LIG    1        3.008  -3.604  -0.045  0.00  0.00    -0.033 NA
ATOM     14  O   LIG    1        1.826  -3.854  -0.035  0.00  0.00    -0.240 OA
ATOM     15  N   LIG    1        1.080  -2.903  -0.023  0.00  0.00    -0.044 NA
BRANCH  12  16
ATOM     16  N   LIG    1        4.369  -1.584  -0.061  0.00  0.00    -0.339 N 
ATOM     17  H   LIG    1        5.218  -2.052  -0.075  0.00  0.00    +0.144 HD
ATOM     18  H   LIG    1        4.349  -0.615  -0.057  0.00  0.00    +0.144 HD
ENDBRANCH  12  16
ENDBRANCH  10  11
BRANCH   1  20
ATOM     19  C   LIG    1       -1.586  -1.189  -1.431  0.00  0.00    +0.027 C 
ATOM     20  C   LIG    1       -1.165  -0.889   0.009  0.00  0.00    +0.120 C 
ENDBRANCH   1  20
TORSDOF 3
