REMARK  Name = ZINC26665352
REMARK                            x       y       z     vdW  Elec       q    Type
REMARK                         _______ _______ _______ _____ _____    ______ ____
ROOT
ATOM      1  C   PRO A  2        7.406  -3.700   0.055  0.00  0.00    +0.234 C 
ATOM      2  N   ARG A  3        8.520  -4.427  -0.163  0.00  0.00    -0.301 N 
ATOM      3  H   ARG A  3        8.718  -5.191   0.401  0.00  0.00    +0.150 HD
ATOM      4  O   PRO A  2        7.158  -2.744  -0.650  0.00  0.00    -0.274 OA
ENDROOT
BRANCH   1  10
ATOM      5  C   PHE A  1        5.422  -1.804   1.383  0.00  0.00    +0.233 C 
ATOM      6  N   PRO A  2        5.334  -3.138   1.209  0.00  0.00    -0.289 N 
ATOM      7  CD  PRO A  2        4.087  -3.900   1.017  0.00  0.00    +0.108 C 
ATOM      8  CG  PRO A  2        4.519  -5.186   0.269  0.00  0.00    +0.021 C 
ATOM      9  CB  PRO A  2        5.891  -5.484   0.929  0.00  0.00    +0.033 C 
ATOM     10  CA  PRO A  2        6.468  -4.074   1.173  0.00  0.00    +0.162 C 
ATOM     11  O   PHE A  1        6.506  -1.282   1.528  0.00  0.00    -0.274 OA
BRANCH   5  12
ATOM     12  CA  PHE A  1        4.171  -0.963   1.399  0.00  0.00    +0.142 C 
BRANCH  12  13
ATOM     13  N   PHE A  1        4.452   0.319   2.059  0.00  0.00    -0.320 NA
ATOM     14  H1  PHE A  1        3.614   0.875   2.140  0.00  0.00    +0.119 HD
ATOM     15  H2  PHE A  1        5.176   0.825   1.573  0.00  0.00    +0.119 HD
ENDBRANCH  12  13
BRANCH  12  16
ATOM     16  CB  PHE A  1        3.711  -0.707  -0.038  0.00  0.00    +0.063 C 
BRANCH  16  20
ATOM     17  CZ  PHE A  1       -0.017   1.378   0.010  0.00  0.00    +0.000 A 
ATOM     18  CE1 PHE A  1        1.171   2.086   0.002  0.00  0.00    +0.000 A 
ATOM     19  CD1 PHE A  1        2.377   1.411  -0.013  0.00  0.00    +0.004 A 
ATOM     20  CG  PHE A  1        2.396   0.029  -0.020  0.00  0.00    -0.045 A 
ATOM     21  CD2 PHE A  1        1.208  -0.679  -0.012  0.00  0.00    +0.004 A 
ATOM     22  CE2 PHE A  1        0.002  -0.004   0.002  0.00  0.00    +0.000 A 
ENDBRANCH  16  20
ENDBRANCH  12  16
ENDBRANCH   5  12
ENDBRANCH   1  10
BRANCH   2  23
ATOM     23  CA  ARG A  3        9.431  -4.064  -1.250  0.00  0.00    +0.182 C 
BRANCH  23  24
ATOM     24  C   ARG A  3        8.950  -4.683  -2.537  0.00  0.00    +0.325 C 
ATOM     25  O   ARG A  3        7.939  -5.365  -2.545  0.00  0.00    -0.249 OA
BRANCH  24  26
ATOM     26  OXT ARG A  3        9.572  -4.502  -3.570  0.00  0.00    -0.479 OA
ATOM     27  HXT ARG A  3       10.348  -3.978  -3.564  0.00  0.00    +0.295 HD
ENDBRANCH  24  26
ENDBRANCH  23  24
BRANCH  23  28
ATOM     28  CB  ARG A  3       10.836  -4.578  -0.931  0.00  0.00    +0.037 C 
BRANCH  28  29
ATOM     29  CG  ARG A  3       11.375  -3.856   0.306  0.00  0.00    +0.039 C 
BRANCH  29  30
ATOM     30  CD  ARG A  3       12.780  -4.370   0.625  0.00  0.00    +0.196 C 
BRANCH  30  31
ATOM     31  NE  ARG A  3       13.295  -3.679   1.810  0.00  0.00    -0.279 N 
ATOM     32  HE  ARG A  3       12.752  -3.011   2.257  0.00  0.00    +0.258 HD
BRANCH  31  33
ATOM     33  CZ  ARG A  3       14.543  -3.976   2.287  0.00  0.00    +0.341 C 
ATOM     34  NH1 ARG A  3       15.011  -3.348   3.364  0.00  0.00    -0.292 N 
ATOM     35 HH11 ARG A  3       15.895  -3.559   3.702  0.00  0.00    +0.255 HD
ATOM     36 HH12 ARG A  3       14.468  -2.680   3.810  0.00  0.00    +0.255 HD
BRANCH  33  37
ATOM     37  NH2 ARG A  3       15.289  -4.894   1.674  0.00  0.00    -0.292 N 
ATOM     38 HH21 ARG A  3       16.173  -5.104   2.012  0.00  0.00    +0.255 HD
ATOM     39 HH22 ARG A  3       14.947  -5.351   0.889  0.00  0.00    +0.255 HD
ENDBRANCH  33  37
ENDBRANCH  31  33
ENDBRANCH  30  31
ENDBRANCH  29  30
ENDBRANCH  28  29
ENDBRANCH  23  28
ENDBRANCH   2  23
TORSDOF 14
