REMARK  Name = ZINC71329484
REMARK                            x       y       z     vdW  Elec       q    Type
REMARK                         _______ _______ _______ _____ _____    ______ ____
ROOT
ATOM      1  C   LIG    1        0.663   0.330   2.256  0.00  0.00    +0.010 A 
ATOM      2  C   LIG    1        1.822   1.042   2.246  0.00  0.00    +0.029 A 
ATOM      3  C   LIG    1        2.697   0.953   1.151  0.00  0.00    +0.073 A 
ATOM      4  C   LIG    1        2.358   0.112   0.061  0.00  0.00    +0.025 A 
ATOM      5  C   LIG    1        3.247   0.029  -1.036  0.00  0.00    +0.068 A 
ATOM      6  C   LIG    1        4.426   0.789  -0.988  0.00  0.00    +0.018 A 
ATOM      7  C   LIG    1        4.681   1.598   0.136  0.00  0.00    +0.121 A 
ATOM      8  C   LIG    1        5.336   0.727  -2.073  0.00  0.00    +0.017 A 
ATOM      9  C   LIG    1        5.043  -0.069  -3.134  0.00  0.00    +0.071 A 
ATOM     10  C   LIG    1        3.850  -0.819  -3.150  0.00  0.00    +0.256 A 
ATOM     11  O   LIG    1        3.599  -1.529  -4.109  0.00  0.00    -0.267 OA
ATOM     12  N   LIG    1        2.984  -0.762  -2.120  0.00  0.00    -0.276 N 
ATOM     13  C   LIG    1        1.164  -0.615   0.088  0.00  0.00    +0.020 A 
ATOM     14  N   LIG    1        3.840   1.654   1.135  0.00  0.00    -0.254 NA
ATOM     15  C   LIG    1        0.322  -0.504   1.182  0.00  0.00    -0.016 A 
ENDROOT
BRANCH  12  16
ATOM     16  C   LIG    1        1.805  -1.518  -2.160  0.00  0.00    +0.051 A 
ATOM     17  C   LIG    1        0.633  -0.953  -2.647  0.00  0.00    +0.029 A 
ATOM     18  C   LIG    1       -0.528  -1.700  -2.686  0.00  0.00    +0.041 A 
ATOM     19  C   LIG    1       -0.524  -3.010  -2.238  0.00  0.00    +0.135 A 
ATOM     20  F   LIG    1       -1.662  -3.739  -2.276  0.00  0.00    -0.205 F 
ATOM     21  C   LIG    1        0.642  -3.575  -1.752  0.00  0.00    +0.092 A 
ATOM     22  C   LIG    1        1.807  -2.834  -1.718  0.00  0.00    +0.041 A 
BRANCH  21  23
ATOM     23  C   LIG    1        0.643  -5.001  -1.265  0.00  0.00    +0.420 C 
ATOM     24  F   LIG    1        0.267  -5.851  -2.311  0.00  0.00    -0.166 F 
ATOM     25  F   LIG    1       -0.264  -5.134  -0.208  0.00  0.00    -0.166 F 
ATOM     26  F   LIG    1        1.926  -5.343  -0.825  0.00  0.00    -0.166 F 
ENDBRANCH  21  23
ENDBRANCH  12  16
BRANCH  15  27
ATOM     27  C   LIG    1       -0.947  -1.271   1.218  0.00  0.00    +0.000 A 
ATOM     28  C   LIG    1       -2.101  -0.708   1.776  0.00  0.00    +0.013 A 
ATOM     29  C   LIG    1       -3.259  -1.460   1.786  0.00  0.00    +0.044 A 
ATOM     30  C   LIG    1       -3.242  -2.743   1.246  0.00  0.00    +0.116 A 
ATOM     31  N   LIG    1       -2.133  -3.246   0.725  0.00  0.00    -0.240 NA
ATOM     32  C   LIG    1       -1.009  -2.558   0.691  0.00  0.00    +0.121 A 
BRANCH  30  33
ATOM     33  N   LIG    1       -4.403  -3.506   1.252  0.00  0.00    -0.343 N 
ATOM     34  H   LIG    1       -4.398  -4.400   0.877  0.00  0.00    +0.144 HD
ATOM     35  H   LIG    1       -5.219  -3.143   1.632  0.00  0.00    +0.144 HD
ENDBRANCH  30  33
ENDBRANCH  15  27
TORSDOF 4
