REMARK  Name = ZINC33992379
REMARK                            x       y       z     vdW  Elec       q    Type
REMARK                         _______ _______ _______ _____ _____    ______ ____
ROOT
ATOM      1  C   LIG    1        0.827  -2.836   0.249  0.00  0.00    +0.013 C 
ENDROOT
BRANCH   1   6
ATOM      2  C   LIG    1       -0.019   1.539   0.011  0.00  0.00    +0.020 C 
ATOM      3  C   LIG    1        1.488   1.907  -0.002  0.00  0.00    +0.020 C 
ATOM      4  C   LIG    1        2.092   0.776   0.868  0.00  0.00    +0.108 C 
ATOM      5  N   LIG    1        1.313  -0.426   0.518  0.00  0.00    -0.303 N 
ATOM      6  C   LIG    1        1.733  -1.700   0.648  0.00  0.00    +0.201 C 
ATOM      7  O   LIG    1        2.840  -1.931   1.086  0.00  0.00    -0.277 OA
ATOM      8  C   LIG    1        0.002  -0.004   0.002  0.00  0.00    +0.108 C 
ENDBRANCH   1   6
BRANCH   1   9
ATOM      9  N   LIG    1        1.276  -4.073   0.903  0.00  0.00    +0.386 N 
ATOM     10  H   LIG    1        2.221  -4.280   0.618  0.00  0.00    -0.089 HD
ATOM     11  H   LIG    1        0.670  -4.834   0.636  0.00  0.00    -0.089 HD
ATOM     12  H   LIG    1        1.245  -3.954   1.904  0.00  0.00    -0.089 HD
ENDBRANCH   1   9
BRANCH   1  13
ATOM     13  C   LIG    1        0.874  -3.016  -1.270  0.00  0.00    +0.004 C 
BRANCH  13  14
ATOM     14  C   LIG    1       -0.138  -4.085  -1.688  0.00  0.00    +0.119 C 
BRANCH  14  15
ATOM     15  C   LIG    1       -0.092  -4.263  -3.183  0.00  0.00    +0.305 C 
ATOM     16  O   LIG    1        0.678  -3.596  -3.853  0.00  0.00    -0.251 OA
BRANCH  15  17
ATOM     17  O   LIG    1       -0.825  -5.073  -3.724  0.00  0.00    -0.481 OA
ATOM     18  H   LIG    1       -1.417  -5.586  -3.209  0.00  0.00    +0.295 HD
ENDBRANCH  15  17
ENDBRANCH  14  15
ENDBRANCH  13  14
ENDBRANCH   1  13
TORSDOF 6
