REMARK  Name = ZINC38367317
REMARK                            x       y       z     vdW  Elec       q    Type
REMARK                         _______ _______ _______ _____ _____    ______ ____
ROOT
ATOM      1  C   LIG    1        3.687  -0.702  -0.026  0.00  0.00    +0.024 A 
ATOM      2  C   LIG    1        4.031  -1.577  -1.084  0.00  0.00    +0.073 A 
ATOM      3  C   LIG    1        3.418  -2.021  -2.248  0.00  0.00    +0.138 A 
ATOM      4  N   LIG    1        4.268  -2.866  -2.857  0.00  0.00    -0.261 N 
ATOM      5  N   LIG    1        5.442  -2.987  -2.105  0.00  0.00    -0.150 NA
ATOM      6  H   LIG    1        4.093  -3.325  -3.693  0.00  0.00    +0.190 HD
ATOM      7  C   LIG    1        5.351  -2.231  -1.028  0.00  0.00    +0.205 A 
ATOM      8  N   LIG    1        6.154  -1.966   0.015  0.00  0.00    -0.127 NA
ATOM      9  N   LIG    1        5.802  -1.165   0.953  0.00  0.00    -0.147 NA
ATOM     10  C   LIG    1        4.635  -0.523   0.989  0.00  0.00    +0.102 A 
ENDROOT
BRANCH   1  14
ATOM     11  C   LIG    1       -0.053   1.312   0.054  0.00  0.00    +0.000 A 
ATOM     12  C   LIG    1        1.113   2.032  -0.134  0.00  0.00    +0.001 A 
ATOM     13  C   LIG    1        2.331   1.384  -0.161  0.00  0.00    +0.008 A 
ATOM     14  C   LIG    1        2.385  -0.001   0.002  0.00  0.00    -0.015 A 
ATOM     15  C   LIG    1        1.205  -0.722   0.192  0.00  0.00    +0.008 A 
ATOM     16  C   LIG    1       -0.006  -0.062   0.217  0.00  0.00    +0.001 A 
ENDBRANCH   1  14
BRANCH  10  17
ATOM     17  C   LIG    1        4.333   0.386   2.119  0.00  0.00    +0.003 A 
ATOM     18  C   LIG    1        3.082   0.347   2.734  0.00  0.00    +0.010 A 
ATOM     19  C   LIG    1        2.808   1.196   3.786  0.00  0.00    +0.001 A 
ATOM     20  C   LIG    1        3.770   2.085   4.231  0.00  0.00    +0.000 A 
ATOM     21  C   LIG    1        5.013   2.127   3.625  0.00  0.00    +0.001 A 
ATOM     22  C   LIG    1        5.302   1.279   2.576  0.00  0.00    +0.010 A 
ENDBRANCH  10  17
BRANCH   3  23
ATOM     23  N   LIG    1        2.160  -1.660  -2.699  0.00  0.00    -0.267 N 
ATOM     24  H   LIG    1        1.620  -1.040  -2.185  0.00  0.00    +0.167 HD
BRANCH  23  25
ATOM     25  N   LIG    1        1.679  -2.177  -3.869  0.00  0.00    -0.255 NA
ATOM     26  H   LIG    1        0.755  -1.825  -4.067  0.00  0.00    +0.140 HD
ATOM     27  H   LIG    1        1.684  -3.186  -3.847  0.00  0.00    +0.140 HD
ENDBRANCH  23  25
ENDBRANCH   3  23
TORSDOF 4
