REMARK  Name = ZINC19362651
REMARK                            x       y       z     vdW  Elec       q    Type
REMARK                         _______ _______ _______ _____ _____    ______ ____
ROOT
ATOM      1  C   LIG    1        1.257  -4.037  -0.071  0.00  0.00    +0.092 C 
ATOM      2  C   LIG    1        2.018  -4.496   1.130  0.00  0.00    +0.060 C 
ATOM      3  C   LIG    1        1.819  -5.948   1.420  0.00  0.00    -0.032 A 
ATOM      4  C   LIG    1        0.963  -6.326   2.447  0.00  0.00    +0.005 A 
ATOM      5  C   LIG    1        0.747  -7.668   2.698  0.00  0.00    +0.000 A 
ATOM      6  C   LIG    1        1.373  -8.636   1.932  0.00  0.00    +0.001 A 
ATOM      7  C   LIG    1        2.235  -8.259   0.918  0.00  0.00    +0.015 A 
ATOM      8  C   LIG    1        2.459  -6.905   0.689  0.00  0.00    +0.016 A 
ATOM      9  S   LIG    1        3.618  -6.387  -0.526  0.00  0.00    -0.089 S 
ATOM     10  C   LIG    1        2.713  -5.448  -1.702  0.00  0.00    +0.017 A 
ATOM     11  C   LIG    1        3.010  -5.732  -3.047  0.00  0.00    +0.016 A 
ATOM     12  C   LIG    1        2.408  -5.065  -4.081  0.00  0.00    +0.016 A 
ATOM     13  C   LIG    1        1.476  -4.075  -3.790  0.00  0.00    +0.008 A 
ATOM     14  C   LIG    1        1.173  -3.801  -2.473  0.00  0.00    +0.021 A 
ATOM     15  C   LIG    1        1.776  -4.488  -1.409  0.00  0.00    -0.015 A 
ENDROOT
BRANCH   1  20
ATOM     16  C   LIG    1        1.768   1.484   1.008  0.00  0.00    +0.105 C 
ATOM     17  N   LIG    1        1.788   0.015   1.000  0.00  0.00    -0.303 NA
ATOM     18  C   LIG    1        0.423  -0.531   1.022  0.00  0.00    +0.099 C 
ATOM     19  C   LIG    1        0.488  -2.058   1.093  0.00  0.00    +0.100 C 
ATOM     20  N   LIG    1        1.237  -2.568  -0.063  0.00  0.00    -0.293 NA
ATOM     21  C   LIG    1        2.602  -2.023  -0.086  0.00  0.00    +0.100 C 
ATOM     22  C   LIG    1        2.537  -0.495  -0.157  0.00  0.00    +0.099 C 
ENDBRANCH   1  20
BRANCH  13  23
ATOM     23  S   LIG    1        0.692  -3.180  -5.089  0.00  0.00    -0.129 S 
ATOM     24  C   LIG    1        1.404  -3.887  -6.601  0.00  0.00    +0.090 C 
ENDBRANCH  13  23
TORSDOF 2
