REMARK  Name = ZINC28340908
REMARK                            x       y       z     vdW  Elec       q    Type
REMARK                         _______ _______ _______ _____ _____    ______ ____
ROOT
ATOM      1  C   LIG    1        0.239  -0.299   0.102  0.00  0.00    +0.045 A 
ATOM      2  C   LIG    1        1.384  -1.099   0.073  0.00  0.00    +0.015 A 
ATOM      3  C   LIG    1        2.631  -0.519   0.093  0.00  0.00    +0.024 A 
ATOM      4  C   LIG    1        2.763   0.868   0.145  0.00  0.00    +0.028 A 
ATOM      5  C   LIG    1        1.635   1.677   0.175  0.00  0.00    +0.032 A 
ATOM      6  C   LIG    1        0.368   1.104   0.154  0.00  0.00    -0.003 A 
ENDROOT
BRANCH   6   7
ATOM      7  C   LIG    1       -0.837   1.961   0.180  0.00  0.00    -0.009 A 
ATOM      8  C   LIG    1       -1.109   2.817  -0.874  0.00  0.00    +0.009 A 
ATOM      9  C   LIG    1       -2.240   3.625  -0.857  0.00  0.00    +0.001 A 
ATOM     10  C   LIG    1       -3.110   3.598   0.192  0.00  0.00    +0.008 A 
ATOM     11  C   LIG    1       -2.872   2.745   1.283  0.00  0.00    -0.017 A 
ATOM     12  C   LIG    1       -3.754   2.699   2.377  0.00  0.00    +0.008 A 
ATOM     13  C   LIG    1       -3.493   1.861   3.417  0.00  0.00    +0.001 A 
ATOM     14  C   LIG    1       -2.364   1.045   3.415  0.00  0.00    +0.001 A 
ATOM     15  C   LIG    1       -1.488   1.064   2.372  0.00  0.00    +0.009 A 
ATOM     16  C   LIG    1       -1.728   1.910   1.280  0.00  0.00    -0.010 A 
ENDBRANCH   6   7
BRANCH   1  19
ATOM     17  N   LIG    1       -1.217  -2.260   0.029  0.00  0.00    -0.298 N 
ATOM     18  H   LIG    1       -0.317  -2.892   0.006  0.00  0.00    +0.150 HD
ATOM     19  C   LIG    1       -1.097  -0.918   0.079  0.00  0.00    +0.245 C 
ATOM     20  O   LIG    1       -2.092  -0.219   0.105  0.00  0.00    -0.270 OA
BRANCH  17  21
ATOM     21  C   LIG    1       -2.546  -2.876   0.006  0.00  0.00    +0.182 C 
BRANCH  21  22
ATOM     22  C   LIG    1       -3.054  -3.027   1.417  0.00  0.00    +0.327 C 
ATOM     23  O   LIG    1       -2.376  -2.658   2.346  0.00  0.00    -0.249 OA
BRANCH  22  24
ATOM     24  O   LIG    1       -4.260  -3.572   1.641  0.00  0.00    -0.467 OA
ATOM     25  C   LIG    1       -4.685  -3.686   3.025  0.00  0.00    +0.280 C 
ENDBRANCH  22  24
ENDBRANCH  21  22
BRANCH  21  26
ATOM     26  C   LIG    1       -2.458  -4.253  -0.655  0.00  0.00    +0.036 C 
BRANCH  26  28
ATOM     27  C   LIG    1       -1.794  -5.472  -2.732  0.00  0.00    +0.007 C 
ATOM     28  C   LIG    1       -2.022  -4.092  -2.112  0.00  0.00    -0.015 C 
ATOM     29  C   LIG    1       -3.114  -3.357  -2.893  0.00  0.00    +0.007 C 
ENDBRANCH  26  28
ENDBRANCH  21  26
ENDBRANCH  17  21
ENDBRANCH   1  19
BRANCH   4  30
ATOM     30  N   LIG    1        4.029   1.444   0.166  0.00  0.00    -0.345 N 
ATOM     31  H   LIG    1        4.135   2.538   0.207  0.00  0.00    +0.146 HD
BRANCH  30  32
ATOM     32  C   LIG    1        5.221   0.593   0.133  0.00  0.00    +0.086 C 
BRANCH  32  33
ATOM     33  C   LIG    1        6.474   1.470   0.165  0.00  0.00    -0.048 C 
BRANCH  33  34
ATOM     34  N   LIG    1        6.419   2.443  -0.934  0.00  0.00    +0.382 N 
ATOM     35  H   LIG    1        6.369   1.909  -1.894  0.00  0.00    -0.090 HD
ATOM     36  H   LIG    1        5.526   3.075  -0.819  0.00  0.00    -0.090 HD
ATOM     37  H   LIG    1        7.320   3.074  -0.911  0.00  0.00    -0.090 HD
ENDBRANCH  33  34
BRANCH  33  38
ATOM     38  C   LIG    1        7.716   0.590   0.006  0.00  0.00    +0.051 C 
BRANCH  38  39
ATOM     39  S   LIG    1        9.206   1.608   0.191  0.00  0.00    -0.180 S 
ATOM     40  H   LIG    1       10.201   1.147   0.108  0.00  0.00    +0.102 HD
ENDBRANCH  38  39
ENDBRANCH  33  38
ENDBRANCH  32  33
ENDBRANCH  30  32
ENDBRANCH   4  30
TORSDOF 13
