REMARK  Name = ZINC28759802
REMARK                            x       y       z     vdW  Elec       q    Type
REMARK                         _______ _______ _______ _____ _____    ______ ____
ROOT
ATOM      1  C   LIG    1       -1.971  -0.350   0.075  0.00  0.00    +0.242 C 
ATOM      2  N   LIG    1       -3.203  -0.881   0.200  0.00  0.00    -0.312 N 
ATOM      3  H   LIG    1       -3.319  -1.845   0.197  0.00  0.00    +0.149 HD
ATOM      4  O   LIG    1       -1.826   0.859   0.078  0.00  0.00    -0.270 OA
ENDROOT
BRANCH   1   7
ATOM      5  C   LIG    1        0.527   0.846  -0.169  0.00  0.00    +0.061 C 
ATOM      6  C   LIG    1        0.377  -0.653  -0.184  0.00  0.00    +0.014 C 
ATOM      7  C   LIG    1       -0.845  -1.198  -0.061  0.00  0.00    +0.043 C 
ATOM      8  C   LIG    1       -1.042  -2.687  -0.063  0.00  0.00    +0.094 C 
ATOM      9  C   LIG    1        0.176  -3.385  -0.599  0.00  0.00    +0.065 C 
ATOM     10  C   LIG    1        1.358  -2.752  -0.701  0.00  0.00    +0.016 C 
ATOM     11  C   LIG    1        2.556  -3.494  -1.235  0.00  0.00    +0.061 C 
ATOM     12  N   LIG    1        1.486  -1.443  -0.330  0.00  0.00    -0.321 N 
ATOM     13  H   LIG    1        2.367  -1.072  -0.167  0.00  0.00    +0.152 HD
BRANCH   8  14
ATOM     14  C   LIG    1       -1.302  -3.156   1.345  0.00  0.00    -0.035 A 
ATOM     15  C   LIG    1       -0.358  -2.937   2.332  0.00  0.00    +0.007 A 
ATOM     16  C   LIG    1       -0.597  -3.367   3.624  0.00  0.00    +0.033 A 
ATOM     17  C   LIG    1       -1.779  -4.015   3.929  0.00  0.00    +0.122 A 
ATOM     18  C   LIG    1       -2.723  -4.233   2.943  0.00  0.00    +0.033 A 
ATOM     19  C   LIG    1       -2.486  -3.799   1.652  0.00  0.00    +0.007 A 
BRANCH  17  20
ATOM     20  N   LIG    1       -2.034  -4.476   5.313  0.00  0.00    +0.006 N 
ATOM     21  O   LIG    1       -1.208  -4.286   6.175  0.00  0.00    -0.130 OA
BRANCH  20  22
ATOM     22  O   LIG    1       -3.068  -5.042   5.580  0.00  0.00    -0.396 OA
ATOM     23  H   LIG    1       -3.708  -5.190   4.912  0.00  0.00    +0.329 HD
ENDBRANCH  20  22
ENDBRANCH  17  20
ENDBRANCH   8  14
BRANCH   9  24
ATOM     24  C   LIG    1        0.078  -4.736  -1.004  0.00  0.00    +0.337 C 
ATOM     25  O   LIG    1       -0.379  -5.012  -2.097  0.00  0.00    -0.245 OA
BRANCH  24  26
ATOM     26  O   LIG    1        0.491  -5.720  -0.177  0.00  0.00    -0.465 OA
ATOM     27  C   LIG    1        0.362  -7.062  -0.651  0.00  0.00    +0.280 C 
ENDBRANCH  24  26
ENDBRANCH   9  24
ENDBRANCH   1   7
BRANCH   2  28
ATOM     28  C   LIG    1       -4.369  -0.004   0.340  0.00  0.00    +0.102 C 
BRANCH  28  29
ATOM     29  C   LIG    1       -5.635  -0.855   0.464  0.00  0.00    +0.000 C 
BRANCH  29  30
ATOM     30  C   LIG    1       -6.851   0.061   0.610  0.00  0.00    -0.077 C 
BRANCH  30  31
ATOM     31  N   LIG    1       -8.067  -0.755   0.729  0.00  0.00    +0.380 N 
ATOM     32  H   LIG    1       -7.961  -1.405   1.493  0.00  0.00    -0.082 HD
ATOM     33  C   LIG    1       -8.279  -1.499  -0.518  0.00  0.00    -0.078 C 
ATOM     34  C   LIG    1       -9.498  -2.412  -0.371  0.00  0.00    -0.003 C 
ATOM     35  C   LIG    1      -10.733  -1.560  -0.068  0.00  0.00    +0.017 C 
ATOM     36  C   LIG    1      -10.473  -0.732   1.194  0.00  0.00    -0.003 C 
ATOM     37  C   LIG    1       -9.218   0.119   0.989  0.00  0.00    -0.078 C 
BRANCH  35  38
ATOM     38  C   LIG    1      -11.007  -0.638  -1.228  0.00  0.00    -0.037 A 
ATOM     39  C   LIG    1      -11.094  -1.148  -2.510  0.00  0.00    +0.004 A 
ATOM     40  C   LIG    1      -11.345  -0.302  -3.575  0.00  0.00    +0.000 A 
ATOM     41  C   LIG    1      -11.509   1.053  -3.357  0.00  0.00    +0.000 A 
ATOM     42  C   LIG    1      -11.424   1.562  -2.075  0.00  0.00    +0.000 A 
ATOM     43  C   LIG    1      -11.177   0.716  -1.010  0.00  0.00    +0.004 A 
ENDBRANCH  35  38
BRANCH  35  44
ATOM     44  C   LIG    1      -11.923  -2.458   0.156  0.00  0.00    -0.037 A 
ATOM     45  C   LIG    1      -11.763  -3.831   0.149  0.00  0.00    +0.004 A 
ATOM     46  C   LIG    1      -12.854  -4.655   0.354  0.00  0.00    +0.000 A 
ATOM     47  C   LIG    1      -14.104  -4.106   0.566  0.00  0.00    +0.000 A 
ATOM     48  C   LIG    1      -14.264  -2.733   0.574  0.00  0.00    +0.000 A 
ATOM     49  C   LIG    1      -13.172  -1.909   0.373  0.00  0.00    +0.004 A 
ENDBRANCH  35  44
ENDBRANCH  30  31
ENDBRANCH  29  30
ENDBRANCH  28  29
ENDBRANCH   2  28
TORSDOF 12
