REMARK  Name = ZINC16524095
REMARK                            x       y       z     vdW  Elec       q    Type
REMARK                         _______ _______ _______ _____ _____    ______ ____
ROOT
ATOM      1  C   LIG    1       -0.017   1.375   0.010  0.00  0.00    +0.001 A 
ATOM      2  C   LIG    1        1.172   2.087   0.002  0.00  0.00    +0.002 A 
ATOM      3  C   LIG    1        2.386   1.429  -0.013  0.00  0.00    +0.024 A 
ATOM      4  C   LIG    1        2.427   0.039  -0.021  0.00  0.00    +0.042 A 
ATOM      5  C   LIG    1        1.222  -0.678  -0.013  0.00  0.00    +0.010 A 
ATOM      6  C   LIG    1        1.586  -2.109  -0.024  0.00  0.00    +0.065 C 
ATOM      7  C   LIG    1        3.064  -2.127  -0.038  0.00  0.00    +0.250 C 
ATOM      8  O   LIG    1        3.768  -3.120  -0.049  0.00  0.00    -0.270 OA
ATOM      9  C   LIG    1        0.730  -3.196  -0.021  0.00  0.00    +0.086 C 
ATOM     10  C   LIG    1        1.037  -4.647  -0.025  0.00  0.00    +0.218 C 
ATOM     11  N   LIG    1        0.033  -5.457  -0.020  0.00  0.00    -0.165 NA
ATOM     12  C   LIG    1       -1.241  -5.023  -0.013  0.00  0.00    +0.139 C 
ATOM     13  S   LIG    1       -2.682  -5.947  -0.005  0.00  0.00    -0.026 S 
ATOM     14  S   LIG    1       -1.059  -3.246  -0.004  0.00  0.00    -0.059 S 
ATOM     15  N   LIG    1        3.493  -0.854  -0.036  0.00  0.00    -0.281 N 
ATOM     16  H   LIG    1        4.426  -0.591  -0.044  0.00  0.00    +0.155 HD
ATOM     17  C   LIG    1        0.002  -0.004   0.002  0.00  0.00    +0.010 A 
ENDROOT
BRANCH  10  18
ATOM     18  O   LIG    1        2.310  -5.100  -0.032  0.00  0.00    -0.493 OA
ATOM     19  H   LIG    1        3.024  -4.492  -0.035  0.00  0.00    +0.294 HD
ENDBRANCH  10  18
TORSDOF 1
