REMARK  Name = ZINC00012687
REMARK                            x       y       z     vdW  Elec       q    Type
REMARK                         _______ _______ _______ _____ _____    ______ ____
ROOT
ATOM      1  C   LIG    1       -1.201  -0.638   0.010  0.00  0.00    +0.141 A 
ATOM      2  C   LIG    1       -2.374   0.099   0.019  0.00  0.00    +0.047 A 
ATOM      3  C   LIG    1       -3.597  -0.547   0.028  0.00  0.00    +0.004 A 
ATOM      4  C   LIG    1       -3.653  -1.928   0.027  0.00  0.00    +0.002 A 
ATOM      5  C   LIG    1       -2.487  -2.671   0.017  0.00  0.00    +0.027 A 
ATOM      6  C   LIG    1       -1.257  -2.030   0.003  0.00  0.00    +0.072 A 
ENDROOT
BRANCH   6   7
ATOM      7  N   LIG    1       -0.075  -2.780  -0.013  0.00  0.00    -0.331 N 
ATOM      8  C   LIG    1        0.573  -3.197   1.240  0.00  0.00    +0.086 C 
ATOM      9  C   LIG    1        0.853  -4.701   1.165  0.00  0.00    -0.063 C 
ATOM     10  N   LIG    1        1.631  -4.993  -0.046  0.00  0.00    +0.381 N 
ATOM     11  H   LIG    1        1.880  -5.971  -0.057  0.00  0.00    -0.086 HD
ATOM     12  H   LIG    1        2.471  -4.434  -0.047  0.00  0.00    -0.086 HD
ATOM     13  C   LIG    1        0.835  -4.679  -1.240  0.00  0.00    -0.063 C 
ATOM     14  C   LIG    1        0.551  -3.178  -1.283  0.00  0.00    +0.086 C 
ENDBRANCH   6   7
BRANCH   1  16
ATOM     15  C   LIG    1       -0.017   1.425   0.010  0.00  0.00    +0.277 C 
ATOM     16  O   LIG    1        0.002  -0.004   0.002  0.00  0.00    -0.493 OA
ENDBRANCH   1  16
TORSDOF 2
