REMARK  Name = ZINC49067241
REMARK                            x       y       z     vdW  Elec       q    Type
REMARK                         _______ _______ _______ _____ _____    ______ ____
ROOT
ATOM      1  C   LIG    1        3.580  -0.819  -0.113  0.00  0.00    +0.092 A 
ATOM      2  C   LIG    1        3.571  -2.116   0.418  0.00  0.00    +0.031 A 
ATOM      3  C   LIG    1        4.721  -2.853   0.424  0.00  0.00    +0.015 A 
ATOM      4  C   LIG    1        5.884  -2.274  -0.108  0.00  0.00    +0.040 A 
ATOM      5  C   LIG    1        7.111  -2.978  -0.135  0.00  0.00    +0.045 A 
ATOM      6  C   LIG    1        8.214  -2.338  -0.678  0.00  0.00    +0.043 A 
ATOM      7  C   LIG    1        8.084  -1.047  -1.171  0.00  0.00    +0.115 A 
ATOM      8  N   LIG    1        6.939  -0.404  -1.140  0.00  0.00    -0.236 NA
ATOM      9  C   LIG    1        5.833  -0.959  -0.631  0.00  0.00    +0.162 A 
ATOM     10  N   LIG    1        4.678  -0.287  -0.616  0.00  0.00    -0.226 NA
ENDROOT
BRANCH   1  14
ATOM     11  C   LIG    1        0.004   1.396  -0.119  0.00  0.00    +0.020 A 
ATOM     12  C   LIG    1        1.207   2.088  -0.138  0.00  0.00    +0.016 A 
ATOM     13  C   LIG    1        2.386   1.364  -0.137  0.00  0.00    +0.082 A 
ATOM     14  C   LIG    1        2.325  -0.028  -0.116  0.00  0.00    +0.101 A 
ATOM     15  N   LIG    1        1.155  -0.652  -0.098  0.00  0.00    -0.253 NA
ATOM     16  C   LIG    1        0.018   0.013  -0.099  0.00  0.00    +0.111 A 
BRANCH  13  17
ATOM     17  C   LIG    1        3.717   2.070  -0.158  0.00  0.00    +0.419 C 
ATOM     18  F   LIG    1        4.429   1.689  -1.300  0.00  0.00    -0.166 F 
ATOM     19  F   LIG    1        4.447   1.724   0.985  0.00  0.00    -0.166 F 
ATOM     20  F   LIG    1        3.511   3.454  -0.177  0.00  0.00    -0.166 F 
ENDBRANCH  13  17
ENDBRANCH   1  14
BRANCH   5  21
ATOM     21  N   LIG    1        7.207  -4.268   0.366  0.00  0.00    -0.299 N 
ATOM     22  H   LIG    1        6.418  -4.830   0.413  0.00  0.00    +0.154 HD
BRANCH  21  23
ATOM     23  C   LIG    1        8.434  -4.755   0.803  0.00  0.00    +0.123 A 
ATOM     24  C   LIG    1        8.552  -6.089   1.180  0.00  0.00    +0.044 A 
ATOM     25  C   LIG    1        9.779  -6.560   1.612  0.00  0.00    +0.017 A 
ATOM     26  C   LIG    1       10.851  -5.678   1.652  0.00  0.00    +0.073 A 
ATOM     27  C   LIG    1       10.662  -4.367   1.264  0.00  0.00    +0.125 A 
ATOM     28  N   LIG    1        9.482  -3.946   0.851  0.00  0.00    -0.240 NA
BRANCH  26  29
ATOM     29  C   LIG    1       12.206  -6.147   2.116  0.00  0.00    +0.419 C 
ATOM     30  F   LIG    1       12.048  -7.180   3.047  0.00  0.00    -0.166 F 
ATOM     31  F   LIG    1       12.889  -5.082   2.713  0.00  0.00    -0.166 F 
ATOM     32  F   LIG    1       12.938  -6.615   1.020  0.00  0.00    -0.166 F 
ENDBRANCH  26  29
ENDBRANCH  21  23
ENDBRANCH   5  21
TORSDOF 5
