REMARK  Name = ZINC13795217
REMARK                            x       y       z     vdW  Elec       q    Type
REMARK                         _______ _______ _______ _____ _____    ______ ____
ROOT
ATOM      1  C   LIG    1        1.397   3.504   0.007  0.00  0.00    +0.034 A 
ATOM      2  C   LIG    1        1.275   4.300  -1.072  0.00  0.00    +0.105 A 
ATOM      3  N   LIG    1        1.303   5.591  -0.618  0.00  0.00    -0.352 N 
ATOM      4  C   LIG    1        1.440   5.539   0.725  0.00  0.00    +0.171 A 
ATOM      5  H   LIG    1        1.236   6.393  -1.159  0.00  0.00    +0.166 HD
ATOM      6  N   LIG    1        1.491   4.288   1.092  0.00  0.00    -0.350 N 
ATOM      7  H   LIG    1        1.584   3.974   2.005  0.00  0.00    +0.166 HD
ENDROOT
BRANCH   1   8
ATOM      8  C   LIG    1        1.417   1.997  -0.001  0.00  0.00    +0.067 C 
BRANCH   8   9
ATOM      9  C   LIG    1       -0.018   1.468   0.010  0.00  0.00    +0.094 C 
BRANCH   9  11
ATOM     10  C   LIG    1        0.018  -1.178  -0.004  0.00  0.00    +0.004 C 
ATOM     11  C   LIG    1        0.002  -0.004   0.002  0.00  0.00    -0.105 C 
ENDBRANCH   9  11
ENDBRANCH   8   9
ENDBRANCH   1   8
TORSDOF 3
