REMARK  Name = ZINC13802715
REMARK                            x       y       z     vdW  Elec       q    Type
REMARK                         _______ _______ _______ _____ _____    ______ ____
ROOT
ATOM      1  C   LIG    1        0.731  -0.503   1.223  0.00  0.00    +0.129 A 
ATOM      2  C   LIG    1        0.185  -0.788   2.417  0.00  0.00    +0.088 A 
ATOM      3  N   LIG    1        1.174  -1.202   3.229  0.00  0.00    -0.218 NA
ATOM      4  C   LIG    1        2.296  -1.176   2.568  0.00  0.00    +0.196 A 
ATOM      5  O   LIG    1        2.051  -0.753   1.320  0.00  0.00    -0.444 OA
ENDROOT
BRANCH   1   7
ATOM      6  C   LIG    1       -0.019   1.526   0.010  0.00  0.00    +0.012 C 
ATOM      7  C   LIG    1        0.002  -0.004   0.002  0.00  0.00    +0.073 C 
ENDBRANCH   1   7
BRANCH   4   8
ATOM      8  C   LIG    1        3.646  -1.564   3.114  0.00  0.00    +0.093 C 
ATOM      9  C   LIG    1        3.883  -3.057   2.874  0.00  0.00    +0.013 C 
ENDBRANCH   4   8
BRANCH   2  10
ATOM     10  C   LIG    1       -1.272  -0.667   2.781  0.00  0.00    +0.113 C 
BRANCH  10  11
ATOM     11  C   LIG    1       -1.974  -1.966   2.483  0.00  0.00    +0.039 A 
ATOM     12  C   LIG    1       -2.482  -2.352   1.297  0.00  0.00    +0.105 A 
ATOM     13  N   LIG    1       -3.021  -3.570   1.452  0.00  0.00    -0.352 N 
ATOM     14  H   LIG    1       -3.457  -4.083   0.754  0.00  0.00    +0.166 HD
ATOM     15  C   LIG    1       -2.868  -3.954   2.689  0.00  0.00    +0.171 A 
ATOM     16  N   LIG    1       -2.213  -2.985   3.365  0.00  0.00    -0.349 N 
ATOM     17  H   LIG    1       -1.962  -3.006   4.302  0.00  0.00    +0.166 HD
ENDBRANCH  10  11
ENDBRANCH   2  10
TORSDOF 4
