REMARK  Name = ZINC15224175
REMARK                            x       y       z     vdW  Elec       q    Type
REMARK                         _______ _______ _______ _____ _____    ______ ____
ROOT
ATOM      1  C   LIG    1        0.126   7.917   1.980  0.00  0.00    +0.068 C 
ATOM      2  C   LIG    1       -1.138   7.100   2.066  0.00  0.00    +0.063 C 
ATOM      3  N   LIG    1       -2.288   7.658   1.839  0.00  0.00    -0.185 NA
ENDROOT
BRANCH   2   4
ATOM      4  C   LIG    1       -1.069   5.668   2.409  0.00  0.00    -0.002 A 
ATOM      5  C   LIG    1       -2.074   5.084   3.185  0.00  0.00    +0.013 A 
ATOM      6  C   LIG    1       -2.005   3.745   3.503  0.00  0.00    +0.046 A 
ATOM      7  C   LIG    1       -0.939   2.976   3.053  0.00  0.00    +0.120 A 
ATOM      8  C   LIG    1        0.065   3.554   2.287  0.00  0.00    +0.046 A 
ATOM      9  C   LIG    1        0.002   4.891   1.960  0.00  0.00    +0.013 A 
BRANCH   7  10
ATOM     10  O   LIG    1       -0.876   1.656   3.369  0.00  0.00    -0.495 OA
ATOM     11  C   LIG    1        0.247   0.924   2.874  0.00  0.00    +0.277 C 
ENDBRANCH   7  10
ENDBRANCH   2   4
BRANCH   3  12
ATOM     12  N   LIG    1       -3.445   6.872   1.761  0.00  0.00    -0.218 N 
ATOM     13  H   LIG    1       -3.377   5.905   1.792  0.00  0.00    +0.176 HD
BRANCH  12  14
ATOM     14  C   LIG    1       -4.652   7.460   1.645  0.00  0.00    +0.147 C 
ATOM     15  S   LIG    1       -6.066   6.499   1.550  0.00  0.00    -0.017 S 
BRANCH  14  16
ATOM     16  N   LIG    1       -4.746   8.803   1.602  0.00  0.00    -0.339 N 
ATOM     17  H   LIG    1       -5.615   9.226   1.518  0.00  0.00    +0.144 HD
ATOM     18  H   LIG    1       -3.945   9.348   1.656  0.00  0.00    +0.144 HD
ENDBRANCH  14  16
ENDBRANCH  12  14
ENDBRANCH   3  12
TORSDOF 5
