REMARK  Name = ZINC29571159
REMARK                            x       y       z     vdW  Elec       q    Type
REMARK                         _______ _______ _______ _____ _____    ______ ____
ROOT
ATOM      1  C   LIG    1        2.401   2.626  -0.020  0.00  0.00    +0.184 C 
ATOM      2  C   LIG    1        0.970   2.337  -0.470  0.00  0.00    +0.049 C 
ATOM      3  C   LIG    1        0.822   0.822  -0.668  0.00  0.00    +0.031 C 
ATOM      4  C   LIG    1        1.067   0.162   0.664  0.00  0.00    -0.023 C 
ATOM      5  C   LIG    1        1.923   0.676   1.528  0.00  0.00    -0.045 C 
ATOM      6  C   LIG    1        2.094   0.034   2.851  0.00  0.00    -0.000 C 
ATOM      7  C   LIG    1        2.709   0.690   3.821  0.00  0.00    -0.023 C 
ATOM      8  C   LIG    1        3.279   2.068   3.677  0.00  0.00    +0.012 C 
ATOM      9  C   LIG    1        2.990   2.863   4.952  0.00  0.00    +0.012 C 
ATOM     10  C   LIG    1        2.677   2.807   2.481  0.00  0.00    +0.007 C 
ATOM     11  C   LIG    1        2.751   1.896   1.254  0.00  0.00    +0.063 C 
ENDROOT
BRANCH   1  12
ATOM     12  O   LIG    1        3.317   2.213  -1.068  0.00  0.00    -0.461 OA
BRANCH  12  13
ATOM     13  C   LIG    1        3.636   3.129  -1.995  0.00  0.00    +0.310 C 
ATOM     14  O   LIG    1        3.164   4.240  -1.934  0.00  0.00    -0.251 OA
BRANCH  13  15
ATOM     15  C   LIG    1        4.581   2.773  -3.114  0.00  0.00    +0.094 C 
ATOM     16  C   LIG    1        3.999   1.614  -3.925  0.00  0.00    +0.019 C 
BRANCH  15  18
ATOM     17  C   LIG    1        5.828   3.666  -5.086  0.00  0.00    +0.004 C 
ATOM     18  C   LIG    1        4.774   3.987  -4.025  0.00  0.00    +0.011 C 
ENDBRANCH  15  18
ENDBRANCH  13  15
ENDBRANCH  12  13
ENDBRANCH   1  12
BRANCH  10  19
ATOM     19  C   LIG    1        1.216   3.155   2.774  0.00  0.00    +0.007 C 
BRANCH  19  20
ATOM     20  C   LIG    1        0.511   1.934   3.367  0.00  0.00    +0.032 C 
BRANCH  20  21
ATOM     21  C   LIG    1       -0.904   2.324   3.801  0.00  0.00    +0.117 C 
BRANCH  21  22
ATOM     22  O   LIG    1       -0.830   3.273   4.867  0.00  0.00    -0.392 OA
ATOM     23  H   LIG    1       -1.754   3.672   5.313  0.00  0.00    +0.210 HD
ENDBRANCH  21  22
BRANCH  21  24
ATOM     24  C   LIG    1       -1.652   1.078   4.279  0.00  0.00    +0.063 C 
BRANCH  24  25
ATOM     25  C   LIG    1       -3.104   1.444   4.595  0.00  0.00    +0.128 C 
BRANCH  25  26
ATOM     26  O   LIG    1       -3.766   1.846   3.394  0.00  0.00    -0.391 OA
ATOM     27  H   LIG    1       -4.823   2.148   3.424  0.00  0.00    +0.210 HD
ENDBRANCH  25  26
BRANCH  25  28
ATOM     28  C   LIG    1       -3.818   0.229   5.189  0.00  0.00    +0.151 C 
BRANCH  28  29
ATOM     29  C   LIG    1       -5.210   0.623   5.614  0.00  0.00    +0.307 C 
ATOM     30  O   LIG    1       -5.590   1.759   5.457  0.00  0.00    -0.251 OA
BRANCH  29  31
ATOM     31  O   LIG    1       -6.026  -0.288   6.167  0.00  0.00    -0.481 OA
ATOM     32  H   LIG    1       -5.731  -1.169   6.288  0.00  0.00    +0.295 HD
ENDBRANCH  29  31
ENDBRANCH  28  29
ENDBRANCH  25  28
ENDBRANCH  24  25
ENDBRANCH  21  24
ENDBRANCH  20  21
ENDBRANCH  19  20
ENDBRANCH  10  19
TORSDOF 14
