REMARK  Name = ZINC19562963
REMARK                            x       y       z     vdW  Elec       q    Type
REMARK                         _______ _______ _______ _____ _____    ______ ____
ROOT
ATOM      1  C   LIG    1       -0.150   1.183   2.378  0.00  0.00    +0.124 A 
ATOM      2  C   LIG    1        0.995   0.390   2.410  0.00  0.00    +0.046 A 
ATOM      3  C   LIG    1        1.542   0.020   3.606  0.00  0.00    +0.018 A 
ATOM      4  C   LIG    1        0.943   0.431   4.801  0.00  0.00    +0.059 A 
ATOM      5  C   LIG    1       -0.214   1.229   4.776  0.00  0.00    +0.135 A 
ATOM      6  O   LIG    1       -0.799   1.638   5.926  0.00  0.00    -0.484 OA
ATOM      7  C   LIG    1       -0.552   0.897   7.121  0.00  0.00    +0.120 C 
ATOM      8  C   LIG    1        0.963   0.747   7.323  0.00  0.00    +0.127 C 
ATOM      9  C   LIG    1       -1.185  -0.491   7.005  0.00  0.00    +0.067 C 
ATOM     10  C   LIG    1       -2.693  -0.344   6.780  0.00  0.00    +0.111 C 
ATOM     11  N   LIG    1       -3.252   0.487   7.856  0.00  0.00    -0.300 N 
ATOM     12  C   LIG    1       -4.290   0.047   8.594  0.00  0.00    +0.237 C 
ATOM     13  O   LIG    1       -4.743   0.743   9.478  0.00  0.00    -0.274 OA
ATOM     14  C   LIG    1       -2.658   1.807   8.109  0.00  0.00    +0.111 C 
ATOM     15  C   LIG    1       -1.150   1.637   8.319  0.00  0.00    +0.067 C 
ATOM     16  C   LIG    1        1.509   0.033   6.099  0.00  0.00    +0.170 C 
ATOM     17  O   LIG    1        2.367  -0.820   6.187  0.00  0.00    -0.292 OA
ATOM     18  C   LIG    1       -0.754   1.599   3.555  0.00  0.00    +0.092 A 
ENDROOT
BRANCH   1  20
ATOM     19  C   LIG    1       -0.013   1.086   0.008  0.00  0.00    +0.277 C 
ATOM     20  O   LIG    1       -0.682   1.547   1.184  0.00  0.00    -0.495 OA
ENDBRANCH   1  20
BRANCH  12  21
ATOM     21  C   LIG    1       -4.888  -1.309   8.321  0.00  0.00    +0.241 C 
BRANCH  21  22
ATOM     22  N   LIG    1       -5.994  -1.551   9.252  0.00  0.00    -0.243 N 
ATOM     23  C   LIG    1       -7.259  -1.874   8.932  0.00  0.00    +0.219 A 
ATOM     24  N   LIG    1       -7.937  -2.005  10.043  0.00  0.00    -0.223 NA
ATOM     25  C   LIG    1       -7.143  -1.775  11.088  0.00  0.00    +0.245 A 
ATOM     26  N   LIG    1       -5.941  -1.498  10.654  0.00  0.00    -0.158 NA
ENDBRANCH  21  22
ENDBRANCH  12  21
TORSDOF 3
