REMARK  Name = ZINC13760710
REMARK                            x       y       z     vdW  Elec       q    Type
REMARK                         _______ _______ _______ _____ _____    ______ ____
ROOT
ATOM      1  C   LIG    1       -4.710  -3.264  -2.845  0.00  0.00    -0.028 A 
ATOM      2  C   LIG    1       -4.540  -2.960  -4.184  0.00  0.00    +0.006 A 
ATOM      3  C   LIG    1       -5.254  -3.644  -5.146  0.00  0.00    +0.009 A 
ATOM      4  C   LIG    1       -6.150  -4.643  -4.767  0.00  0.00    -0.017 A 
ATOM      5  C   LIG    1       -6.318  -4.945  -3.416  0.00  0.00    +0.009 A 
ATOM      6  C   LIG    1       -5.593  -4.258  -2.463  0.00  0.00    +0.006 A 
ENDROOT
BRANCH   4   7
ATOM      7  C   LIG    1       -6.921  -5.380  -5.795  0.00  0.00    -0.007 A 
ATOM      8  C   LIG    1       -7.614  -4.686  -6.783  0.00  0.00    +0.009 A 
ATOM      9  C   LIG    1       -8.331  -5.376  -7.739  0.00  0.00    +0.001 A 
ATOM     10  C   LIG    1       -8.367  -6.761  -7.724  0.00  0.00    +0.001 A 
ATOM     11  C   LIG    1       -7.687  -7.466  -6.753  0.00  0.00    +0.012 A 
ATOM     12  C   LIG    1       -6.953  -6.785  -5.783  0.00  0.00    +0.028 A 
BRANCH  12  13
ATOM     13  C   LIG    1       -6.217  -7.536  -4.743  0.00  0.00    +0.180 A 
ATOM     14  N   LIG    1       -5.478  -7.021  -3.759  0.00  0.00    -0.239 N 
ATOM     15  H   LIG    1       -5.318  -6.065  -3.590  0.00  0.00    +0.192 HD
ATOM     16  N   LIG    1       -5.011  -8.006  -3.069  0.00  0.00    -0.046 NA
ATOM     17  N   LIG    1       -5.417  -9.114  -3.583  0.00  0.00    -0.023 NA
ATOM     18  N   LIG    1       -6.157  -8.863  -4.608  0.00  0.00    -0.108 NA
ENDBRANCH  12  13
ENDBRANCH   4   7
BRANCH   1  19
ATOM     19  C   LIG    1       -3.926  -2.514  -1.799  0.00  0.00    +0.162 C 
BRANCH  19  28
ATOM     20  C   LIG    1       -1.522  -2.026  -2.396  0.00  0.00    +0.299 A 
ATOM     21  N   LIG    1       -0.371  -2.646  -2.360  0.00  0.00    -0.195 NA
ATOM     22  C   LIG    1       -0.546  -3.901  -1.869  0.00  0.00    +0.094 A 
ATOM     23  C   LIG    1        0.324  -4.966  -1.623  0.00  0.00    +0.030 A 
ATOM     24  C   LIG    1       -0.159  -6.150  -1.107  0.00  0.00    +0.003 A 
ATOM     25  C   LIG    1       -1.504  -6.301  -0.826  0.00  0.00    +0.017 A 
ATOM     26  C   LIG    1       -2.394  -5.253  -1.063  0.00  0.00    +0.085 A 
ATOM     27  C   LIG    1       -1.914  -4.045  -1.587  0.00  0.00    +0.086 A 
ATOM     28  N   LIG    1       -2.505  -2.846  -1.923  0.00  0.00    -0.289 N 
BRANCH  26  29
ATOM     29  C   LIG    1       -3.829  -5.414  -0.764  0.00  0.00    +0.341 C 
ATOM     30  O   LIG    1       -4.437  -4.522  -0.207  0.00  0.00    -0.245 OA
BRANCH  29  31
ATOM     31  O   LIG    1       -4.465  -6.551  -1.109  0.00  0.00    -0.464 OA
ATOM     32  C   LIG    1       -5.854  -6.640  -0.788  0.00  0.00    +0.280 C 
ENDBRANCH  29  31
ENDBRANCH  26  29
BRANCH  20  33
ATOM     33  O   LIG    1       -1.709  -0.759  -2.831  0.00  0.00    -0.464 OA
BRANCH  33  35
ATOM     34  C   LIG    1       -0.960   1.351  -3.739  0.00  0.00    +0.048 C 
ATOM     35  C   LIG    1       -0.554  -0.054  -3.291  0.00  0.00    +0.229 C 
ENDBRANCH  33  35
ENDBRANCH  20  33
ENDBRANCH  19  28
ENDBRANCH   1  19
TORSDOF 8
