REMARK  Name = ZINC49021281
REMARK                            x       y       z     vdW  Elec       q    Type
REMARK                         _______ _______ _______ _____ _____    ______ ____
ROOT
ATOM      1  C   LIG    1       -0.751   1.561  -0.693  0.00  0.00    +0.028 C 
ATOM      2  C   LIG    1       -0.600   0.045  -0.559  0.00  0.00    +0.073 C 
ATOM      3  C   LIG    1       -1.954  -0.583  -0.201  0.00  0.00    +0.050 C 
ATOM      4  C   LIG    1       -1.793  -2.102  -0.140  0.00  0.00    +0.115 C 
ATOM      5  C   LIG    1       -0.633  -2.474   0.746  0.00  0.00    -0.006 A 
ATOM      6  C   LIG    1       -0.579  -3.753   1.275  0.00  0.00    +0.007 A 
ATOM      7  C   LIG    1        0.473  -4.126   2.089  0.00  0.00    +0.000 A 
ATOM      8  C   LIG    1        1.480  -3.223   2.380  0.00  0.00    +0.002 A 
ATOM      9  C   LIG    1        1.433  -1.947   1.857  0.00  0.00    +0.023 A 
ATOM     10  C   LIG    1        0.374  -1.569   1.039  0.00  0.00    +0.035 A 
ATOM     11  N   LIG    1        0.342  -0.267   0.525  0.00  0.00    -0.322 N 
ENDROOT
BRANCH   4  12
ATOM     12  N   LIG    1       -3.019  -2.697   0.397  0.00  0.00    -0.264 N 
ATOM     13  C   LIG    1       -3.377  -2.464   1.675  0.00  0.00    +0.217 C 
ATOM     14  C   LIG    1       -2.579  -1.502   2.518  0.00  0.00    +0.109 C 
ATOM     15  O   LIG    1       -4.342  -3.027   2.147  0.00  0.00    -0.276 OA
BRANCH  12  16
ATOM     16  C   LIG    1       -3.817  -3.509  -0.416  0.00  0.00    +0.037 A 
ATOM     17  C   LIG    1       -4.112  -4.809  -0.027  0.00  0.00    +0.023 A 
ATOM     18  C   LIG    1       -4.901  -5.607  -0.832  0.00  0.00    +0.002 A 
ATOM     19  C   LIG    1       -5.397  -5.114  -2.024  0.00  0.00    +0.000 A 
ATOM     20  C   LIG    1       -5.105  -3.820  -2.415  0.00  0.00    +0.002 A 
ATOM     21  C   LIG    1       -4.321  -3.014  -1.612  0.00  0.00    +0.023 A 
ENDBRANCH  12  16
ENDBRANCH   4  12
BRANCH  11  22
ATOM     22  C   LIG    1        1.231   0.767   1.059  0.00  0.00    +0.140 C 
BRANCH  22  23
ATOM     23  C   LIG    1        2.529   0.758   0.292  0.00  0.00    -0.030 A 
ATOM     24  C   LIG    1        3.623   0.079   0.794  0.00  0.00    +0.005 A 
ATOM     25  C   LIG    1        4.814   0.071   0.091  0.00  0.00    +0.000 A 
ATOM     26  C   LIG    1        4.909   0.741  -1.114  0.00  0.00    +0.000 A 
ATOM     27  C   LIG    1        3.814   1.419  -1.616  0.00  0.00    +0.000 A 
ATOM     28  C   LIG    1        2.623   1.424  -0.915  0.00  0.00    +0.005 A 
ENDBRANCH  22  23
ENDBRANCH  11  22
TORSDOF 4
