REMARK  Name = ZINC28466472
REMARK                            x       y       z     vdW  Elec       q    Type
REMARK                         _______ _______ _______ _____ _____    ______ ____
ROOT
ATOM      1  C   LIG    1       -4.017  -0.432   1.215  0.00  0.00    +0.121 A 
ATOM      2  C   LIG    1       -4.542  -0.882   0.012  0.00  0.00    +0.045 A 
ATOM      3  C   LIG    1       -4.025  -0.416  -1.182  0.00  0.00    +0.004 A 
ATOM      4  C   LIG    1       -2.990   0.500  -1.179  0.00  0.00    +0.004 A 
ATOM      5  C   LIG    1       -2.462   0.945   0.019  0.00  0.00    -0.033 A 
ATOM      6  C   LIG    1       -2.974   0.483   1.216  0.00  0.00    +0.049 A 
ENDROOT
BRANCH   1   7
ATOM      7  O   LIG    1       -4.523  -0.888   2.391  0.00  0.00    -0.492 OA
BRANCH   7   8
ATOM      8  C   LIG    1       -5.596  -1.829   2.314  0.00  0.00    +0.233 C 
BRANCH   8   9
ATOM      9  C   LIG    1       -6.030  -2.224   3.727  0.00  0.00    +0.076 C 
BRANCH   9  13
ATOM     10  C   LIG    1       -9.236  -5.037   3.497  0.00  0.00    +0.000 A 
ATOM     11  C   LIG    1       -7.928  -5.482   3.526  0.00  0.00    +0.000 A 
ATOM     12  C   LIG    1       -6.890  -4.571   3.600  0.00  0.00    +0.004 A 
ATOM     13  C   LIG    1       -7.161  -3.216   3.646  0.00  0.00    -0.044 A 
ATOM     14  C   LIG    1       -8.470  -2.772   3.623  0.00  0.00    +0.004 A 
ATOM     15  C   LIG    1       -9.508  -3.683   3.543  0.00  0.00    +0.000 A 
ENDBRANCH   9  13
ENDBRANCH   8   9
ENDBRANCH   7   8
ENDBRANCH   1   7
BRANCH   5  16
ATOM     16  C   LIG    1       -1.329   1.940   0.019  0.00  0.00    +0.155 C 
BRANCH  16  17
ATOM     17  C   LIG    1       -0.014   1.204   0.009  0.00  0.00    +0.309 C 
ATOM     18  O   LIG    1        0.002  -0.004   0.002  0.00  0.00    -0.251 OA
BRANCH  17  19
ATOM     19  O   LIG    1        1.139   1.891   0.001  0.00  0.00    -0.480 OA
ATOM     20  H   LIG    1        1.126   2.828   0.006  0.00  0.00    +0.295 HD
ENDBRANCH  17  19
ENDBRANCH  16  17
ENDBRANCH   5  16
TORSDOF 7
