REMARK  Name = ZINC29050413
REMARK                            x       y       z     vdW  Elec       q    Type
REMARK                         _______ _______ _______ _____ _____    ______ ____
ROOT
ATOM      1  N   LIG    1        5.534   0.129  -0.081  0.00  0.00    -0.232 N 
ATOM      2  H   LIG    1        4.695  -0.582  -0.068  0.00  0.00    +0.173 HD
ATOM      3  C   LIG    1        6.803  -0.327  -0.100  0.00  0.00    +0.250 C 
ATOM      4  O   LIG    1        7.728   0.457  -0.115  0.00  0.00    -0.272 OA
ENDROOT
BRANCH   1   6
ATOM      5  C   LIG    1        4.016   1.962  -0.057  0.00  0.00    +0.288 C 
ATOM      6  N   LIG    1        5.285   1.507  -0.077  0.00  0.00    -0.225 N 
ATOM      7  H   LIG    1        6.124   2.218  -0.090  0.00  0.00    +0.174 HD
ATOM      8  O   LIG    1        3.800   3.159  -0.054  0.00  0.00    -0.261 OA
BRANCH   5   9
ATOM      9  S   LIG    1        2.672   0.823  -0.036  0.00  0.00    -0.057 S 
BRANCH   9  10
ATOM     10  C   LIG    1        1.280   1.980  -0.015  0.00  0.00    +0.174 C 
BRANCH  10  13
ATOM     11  N   LIG    1       -1.191   1.867   0.018  0.00  0.00    -0.285 N 
ATOM     12  H   LIG    1       -1.207   2.963   0.110  0.00  0.00    +0.155 HD
ATOM     13  C   LIG    1       -0.014   1.209   0.005  0.00  0.00    +0.228 C 
ATOM     14  O   LIG    1        0.003  -0.004   0.005  0.00  0.00    -0.275 OA
BRANCH  11  20
ATOM     15  C   LIG    1       -3.566   1.696   0.418  0.00  0.00    -0.026 A 
ATOM     16  C   LIG    1       -4.750   0.992   0.314  0.00  0.00    +0.005 A 
ATOM     17  C   LIG    1       -4.765  -0.251  -0.292  0.00  0.00    +0.000 A 
ATOM     18  C   LIG    1       -3.596  -0.793  -0.796  0.00  0.00    +0.002 A 
ATOM     19  C   LIG    1       -2.411  -0.091  -0.699  0.00  0.00    +0.023 A 
ATOM     20  C   LIG    1       -2.391   1.155  -0.086  0.00  0.00    +0.037 A 
BRANCH  15  22
ATOM     21  C   LIG    1       -3.680   4.140   0.011  0.00  0.00    +0.009 C 
ATOM     22  C   LIG    1       -3.551   3.051   1.078  0.00  0.00    +0.033 C 
ENDBRANCH  15  22
ENDBRANCH  11  20
ENDBRANCH  10  13
ENDBRANCH   9  10
ENDBRANCH   5   9
ENDBRANCH   1   6
BRANCH   3  23
ATOM     23  C   LIG    1        7.071  -1.810  -0.104  0.00  0.00    +0.168 C 
BRANCH  23  24
ATOM     24  N   LIG    1        8.428  -2.059  -0.598  0.00  0.00    -0.269 N 
ATOM     25  H   LIG    1        8.582  -2.671  -1.499  0.00  0.00    +0.153 HD
ATOM     26  C   LIG    1        9.488  -1.538   0.052  0.00  0.00    +0.401 C 
ATOM     27  O   LIG    1        9.318  -0.861   1.047  0.00  0.00    -0.226 OA
BRANCH  26  28
ATOM     28  O   LIG    1       10.734  -1.767  -0.402  0.00  0.00    -0.445 OA
BRANCH  28  29
ATOM     29  C   LIG    1       11.828  -1.175   0.348  0.00  0.00    +0.107 C 
ATOM     30  C   LIG    1       11.669   0.347   0.364  0.00  0.00    +0.055 C 
ATOM     31  C   LIG    1       13.158  -1.542  -0.314  0.00  0.00    +0.055 C 
ATOM     32  C   LIG    1       11.808  -1.705   1.783  0.00  0.00    +0.055 C 
ENDBRANCH  28  29
ENDBRANCH  26  28
ENDBRANCH  23  24
BRANCH  23  33
ATOM     33  C   LIG    1        6.938  -2.356   1.319  0.00  0.00    +0.069 C 
BRANCH  33  34
ATOM     34  C   LIG    1        7.085  -3.856   1.297  0.00  0.00    -0.020 A 
ATOM     35  C   LIG    1        6.090  -4.755   1.239  0.00  0.00    +0.087 A 
ATOM     36  N   LIG    1        6.605  -6.022   1.236  0.00  0.00    -0.360 N 
ATOM     37  C   LIG    1        7.980  -5.968   1.293  0.00  0.00    +0.047 A 
ATOM     38  C   LIG    1        8.976  -6.938   1.315  0.00  0.00    +0.026 A 
ATOM     39  C   LIG    1       10.300  -6.559   1.362  0.00  0.00    +0.002 A 
ATOM     40  C   LIG    1       10.651  -5.216   1.399  0.00  0.00    +0.001 A 
ATOM     41  C   LIG    1        9.688  -4.247   1.383  0.00  0.00    +0.010 A 
ATOM     42  H   LIG    1        5.931  -6.890   1.192  0.00  0.00    +0.165 HD
ATOM     43  C   LIG    1        8.341  -4.609   1.328  0.00  0.00    +0.003 A 
ENDBRANCH  33  34
ENDBRANCH  23  33
ENDBRANCH   3  23
TORSDOF 12
