REMARK  Name = ZINC40893173
REMARK                            x       y       z     vdW  Elec       q    Type
REMARK                         _______ _______ _______ _____ _____    ______ ____
ROOT
ATOM      1  C   LIG    1       -0.019   1.526   0.010  0.00  0.00    +0.011 C 
ATOM      2  C   LIG    1        0.002  -0.004   0.002  0.00  0.00    -0.022 C 
ATOM      3  C   LIG    1       -1.436  -0.526   0.033  0.00  0.00    +0.011 C 
ATOM      4  C   LIG    1        0.684  -0.490  -1.280  0.00  0.00    +0.063 C 
ATOM      5  C   LIG    1        2.126  -0.005  -1.262  0.00  0.00    +0.060 A 
ATOM      6  C   LIG    1        2.754   0.215  -0.028  0.00  0.00    +0.078 A 
ATOM      7  C   LIG    1        2.169   0.019   1.223  0.00  0.00    +0.172 C 
ATOM      8  O   LIG    1        2.772   0.254   2.250  0.00  0.00    -0.291 OA
ATOM      9  S   LIG    1        4.362   0.759  -0.516  0.00  0.00    -0.064 S 
ATOM     10  C   LIG    1        4.130   0.667  -2.184  0.00  0.00    +0.109 A 
ATOM     11  N   LIG    1        2.881   0.242  -2.303  0.00  0.00    -0.243 NA
ATOM     12  C   LIG    1        0.743  -0.502   1.243  0.00  0.00    +0.087 C 
ENDROOT
BRANCH  10  13
ATOM     13  C   LIG    1        5.094   0.984  -3.260  0.00  0.00    +0.010 A 
ATOM     14  C   LIG    1        4.735   0.858  -4.607  0.00  0.00    +0.030 A 
ATOM     15  C   LIG    1        5.666   1.165  -5.578  0.00  0.00    +0.111 A 
ATOM     16  N   LIG    1        6.878   1.571  -5.251  0.00  0.00    -0.263 NA
ATOM     17  C   LIG    1        7.257   1.704  -3.995  0.00  0.00    +0.111 A 
ATOM     18  C   LIG    1        6.388   1.424  -2.959  0.00  0.00    +0.030 A 
ENDBRANCH  10  13
TORSDOF 1
