REMARK  Name = ZINC13801466
REMARK                            x       y       z     vdW  Elec       q    Type
REMARK                         _______ _______ _______ _____ _____    ______ ____
ROOT
ATOM      1  C   LIG    1        3.680   6.205  -0.002  0.00  0.00    +0.044 C 
ATOM      2  C   LIG    1        2.363   5.471   0.007  0.00  0.00    -0.048 A 
ATOM      3  C   LIG    1        1.176   6.187   0.022  0.00  0.00    +0.005 A 
ATOM      4  C   LIG    1       -0.036   5.528   0.031  0.00  0.00    +0.028 A 
ATOM      5  C   LIG    1       -0.072   4.141   0.025  0.00  0.00    +0.072 A 
ATOM      6  C   LIG    1        1.126   3.410   0.010  0.00  0.00    +0.090 A 
ATOM      7  N   LIG    1        1.113   2.051   0.002  0.00  0.00    -0.228 NA
ATOM      8  C   LIG    1       -0.017   1.378   0.010  0.00  0.00    +0.146 A 
ATOM      9  C   LIG    1       -1.293   2.092   0.020  0.00  0.00    +0.087 A 
ATOM     10  C   LIG    1       -2.606   1.675   0.035  0.00  0.00    +0.031 A 
ATOM     11  C   LIG    1       -3.402   2.825   0.049  0.00  0.00    +0.020 A 
ATOM     12  C   LIG    1       -2.579   3.902   0.047  0.00  0.00    +0.092 A 
ATOM     13  N   LIG    1       -1.293   3.472   0.033  0.00  0.00    -0.311 N 
ATOM     14  C   LIG    1        2.347   4.095   0.002  0.00  0.00    +0.033 A 
ENDROOT
BRANCH   8  15
ATOM     15  N   LIG    1        0.002  -0.004   0.002  0.00  0.00    -0.317 N 
ATOM     16  C   LIG    1       -0.765  -0.535  -1.134  0.00  0.00    +0.087 C 
ATOM     17  C   LIG    1       -0.786  -2.064  -1.061  0.00  0.00    -0.063 C 
ATOM     18  N   LIG    1        0.596  -2.578  -1.084  0.00  0.00    +0.381 N 
ATOM     19  H   LIG    1        0.578  -3.603  -1.028  0.00  0.00    -0.086 HD
ATOM     20  H   LIG    1        1.050  -2.291  -1.959  0.00  0.00    -0.086 HD
ATOM     21  C   LIG    1        1.360  -2.041   0.058  0.00  0.00    -0.063 C 
ATOM     22  C   LIG    1        1.381  -0.512  -0.014  0.00  0.00    +0.087 C 
ENDBRANCH   8  15
TORSDOF 1
