REMARK  Name = ZINC28880926
REMARK                            x       y       z     vdW  Elec       q    Type
REMARK                         _______ _______ _______ _____ _____    ______ ____
ROOT
ATOM      1  C   LIG    1       -1.255   3.412   0.128  0.00  0.00    +0.250 C 
ATOM      2  N   LIG    1       -1.236   2.069   0.019  0.00  0.00    -0.281 N 
ATOM      3  H   LIG    1       -2.181   1.510  -0.057  0.00  0.00    +0.155 HD
ATOM      4  O   LIG    1       -0.211   4.037   0.127  0.00  0.00    -0.270 OA
ENDROOT
BRANCH   1  13
ATOM      5  C   LIG    1       -4.948   4.075   0.364  0.00  0.00    +0.001 A 
ATOM      6  C   LIG    1       -4.988   5.449   0.476  0.00  0.00    +0.010 A 
ATOM      7  C   LIG    1       -3.802   6.184   0.477  0.00  0.00    +0.000 A 
ATOM      8  C   LIG    1       -3.490   7.613   0.577  0.00  0.00    +0.027 A 
ATOM      9  C   LIG    1       -2.154   7.725   0.521  0.00  0.00    +0.083 A 
ATOM     10  N   LIG    1       -1.587   6.485   0.393  0.00  0.00    -0.360 N 
ATOM     11  H   LIG    1       -0.493   6.384   0.331  0.00  0.00    +0.165 HD
ATOM     12  C   LIG    1       -2.565   5.524   0.363  0.00  0.00    +0.059 A 
ATOM     13  C   LIG    1       -2.541   4.125   0.249  0.00  0.00    +0.061 A 
ATOM     14  C   LIG    1       -3.739   3.414   0.245  0.00  0.00    +0.015 A 
ENDBRANCH   1  13
BRANCH   2  15
ATOM     15  C   LIG    1       -0.017   1.386   0.002  0.00  0.00    +0.035 A 
ATOM     16  C   LIG    1        0.089   0.135   0.597  0.00  0.00    +0.023 A 
ATOM     17  C   LIG    1        1.293  -0.541   0.574  0.00  0.00    +0.003 A 
ATOM     18  C   LIG    1        2.394   0.027  -0.041  0.00  0.00    +0.020 A 
ATOM     19  C   LIG    1        2.293   1.272  -0.635  0.00  0.00    +0.043 A 
ATOM     20 CL   LIG    1        3.678   1.981  -1.405  0.00  0.00    -0.083 Cl
ATOM     21  C   LIG    1        1.091   1.954  -0.614  0.00  0.00    +0.043 A 
ENDBRANCH   2  15
TORSDOF 2
