REMARK  Name = ZINC43077222
REMARK                            x       y       z     vdW  Elec       q    Type
REMARK                         _______ _______ _______ _____ _____    ______ ____
ROOT
ATOM      1  N   LIG    1        4.379  -0.781   1.156  0.00  0.00    -0.288 N 
ATOM      2  H   LIG    1        4.000  -0.396   1.961  0.00  0.00    +0.151 HD
ATOM      3  C   LIG    1        5.672  -1.161   1.135  0.00  0.00    +0.307 C 
ATOM      4  N   LIG    1        6.438  -1.006   2.233  0.00  0.00    -0.236 N 
ATOM      5  H   LIG    1        6.058  -0.622   3.039  0.00  0.00    +0.159 HD
ATOM      6  C   LIG    1        7.731  -1.387   2.212  0.00  0.00    +0.256 C 
ATOM      7  O   LIG    1        8.206  -1.868   1.203  0.00  0.00    -0.270 OA
ATOM      8  O   LIG    1        6.148  -1.643   0.125  0.00  0.00    -0.252 OA
ENDROOT
BRANCH   1  20
ATOM      9  C   LIG    1       -0.017   1.375   0.010  0.00  0.00    +0.001 A 
ATOM     10  C   LIG    1        1.169   2.088   0.002  0.00  0.00    +0.000 A 
ATOM     11  C   LIG    1        2.380   1.420  -0.013  0.00  0.00    +0.006 A 
ATOM     12  C   LIG    1        2.408   0.042  -0.021  0.00  0.00    -0.015 A 
ATOM     13  C   LIG    1        1.221  -0.685  -0.013  0.00  0.00    -0.012 A 
ATOM     14  C   LIG    1        1.530  -2.136  -0.025  0.00  0.00    -0.012 A 
ATOM     15  C   LIG    1        0.694  -3.254  -0.023  0.00  0.00    +0.009 A 
ATOM     16  C   LIG    1        1.238  -4.521  -0.035  0.00  0.00    +0.001 A 
ATOM     17  C   LIG    1        2.611  -4.690  -0.050  0.00  0.00    +0.000 A 
ATOM     18  C   LIG    1        3.445  -3.587  -0.052  0.00  0.00    +0.006 A 
ATOM     19  C   LIG    1        2.910  -2.316  -0.040  0.00  0.00    -0.015 A 
ATOM     20  C   LIG    1        3.547  -0.948  -0.038  0.00  0.00    +0.136 C 
ATOM     21  C   LIG    1        0.002  -0.004   0.002  0.00  0.00    +0.009 A 
ENDBRANCH   1  20
BRANCH   6  22
ATOM     22  C   LIG    1        8.569  -1.218   3.415  0.00  0.00    +0.090 A 
ATOM     23  C   LIG    1        8.654  -2.244   4.362  0.00  0.00    +0.137 A 
ATOM     24  F   LIG    1        7.969  -3.394   4.180  0.00  0.00    -0.205 F 
ATOM     25  C   LIG    1        9.442  -2.077   5.486  0.00  0.00    +0.039 A 
ATOM     26  C   LIG    1       10.143  -0.900   5.674  0.00  0.00    +0.004 A 
ATOM     27  C   LIG    1       10.063   0.119   4.742  0.00  0.00    +0.021 A 
ATOM     28  C   LIG    1        9.286  -0.034   3.611  0.00  0.00    +0.056 A 
ATOM     29 CL   LIG    1        9.194   1.244   2.439  0.00  0.00    -0.083 Cl
ENDBRANCH   6  22
TORSDOF 2
