REMARK  Name = ZINC27183322
REMARK                            x       y       z     vdW  Elec       q    Type
REMARK                         _______ _______ _______ _____ _____    ______ ____
ROOT
ATOM      1  C   LIG    1        2.498  -4.126  -1.330  0.00  0.00    +0.195 A 
ATOM      2  N   LIG    1        3.360  -5.181  -1.463  0.00  0.00    -0.333 N 
ATOM      3  C   LIG    1        3.484  -5.434  -2.811  0.00  0.00    +0.087 A 
ATOM      4  C   LIG    1        4.205  -6.365  -3.561  0.00  0.00    +0.050 A 
ATOM      5  C   LIG    1        4.107  -6.352  -4.941  0.00  0.00    +0.025 A 
ATOM      6  C   LIG    1        3.299  -5.421  -5.581  0.00  0.00    +0.004 A 
ATOM      7  C   LIG    1        2.588  -4.504  -4.864  0.00  0.00    +0.030 A 
ATOM      8  C   LIG    1        2.667  -4.493  -3.463  0.00  0.00    +0.091 A 
ATOM      9  H   LIG    1        3.800  -5.660  -0.744  0.00  0.00    +0.168 HD
ATOM     10  N   LIG    1        2.094  -3.734  -2.512  0.00  0.00    -0.223 NA
ENDROOT
BRANCH   1  17
ATOM     11  C   LIG    1        0.943   1.760   0.241  0.00  0.00    -0.096 C 
ATOM     12  N   LIG    1        0.694   0.319   0.103  0.00  0.00    +0.380 N 
ATOM     13  H   LIG    1       -0.296   0.160  -0.017  0.00  0.00    -0.082 HD
ATOM     14  C   LIG    1        1.413  -0.190  -1.071  0.00  0.00    -0.060 C 
ATOM     15  C   LIG    1        1.063  -1.667  -1.284  0.00  0.00    +0.089 C 
ATOM     16  N   LIG    1        1.343  -2.396  -0.037  0.00  0.00    -0.299 N 
ATOM     17  C   LIG    1        2.081  -3.523  -0.045  0.00  0.00    +0.282 C 
ATOM     18  O   LIG    1        2.405  -4.045   1.004  0.00  0.00    -0.267 OA
ATOM     19  C   LIG    1        0.793  -1.860   1.218  0.00  0.00    +0.089 C 
ATOM     20  C   LIG    1        1.156  -0.374   1.312  0.00  0.00    -0.060 C 
ENDBRANCH   1  17
BRANCH   4  21
ATOM     21  N   LIG    1        5.020  -7.304  -2.922  0.00  0.00    -0.356 N 
ATOM     22  H   LIG    1        5.519  -7.950  -3.446  0.00  0.00    +0.142 HD
ATOM     23  H   LIG    1        5.086  -7.310  -1.954  0.00  0.00    +0.142 HD
ENDBRANCH   4  21
TORSDOF 2
