REMARK  Name = ZINC38358483
REMARK                            x       y       z     vdW  Elec       q    Type
REMARK                         _______ _______ _______ _____ _____    ______ ____
ROOT
ATOM      1  C   LIG    1        0.606  -0.608  -1.056  0.00  0.00    +0.162 A 
ATOM      2  C   LIG    1        1.173   0.156  -2.062  0.00  0.00    +0.053 A 
ATOM      3  C   LIG    1        1.788  -0.455  -3.143  0.00  0.00    -0.044 A 
ATOM      4  C   LIG    1        1.837  -1.831  -3.222  0.00  0.00    -0.054 A 
ATOM      5  C   LIG    1        2.488  -2.531  -4.384  0.00  0.00    -0.039 C 
ATOM      6  C   LIG    1        3.273  -3.748  -3.888  0.00  0.00    -0.025 C 
ATOM      7  C   LIG    1        3.881  -4.474  -5.092  0.00  0.00    -0.057 C 
ATOM      8  C   LIG    1        4.754  -3.497  -5.883  0.00  0.00    +0.045 C 
ATOM      9  C   LIG    1        3.914  -2.285  -6.297  0.00  0.00    -0.057 C 
ATOM     10  N   LIG    1        3.400  -1.627  -5.089  0.00  0.00    +0.386 N 
ATOM     11  H   LIG    1        4.165  -1.382  -4.480  0.00  0.00    -0.081 HD
ATOM     12  C   LIG    1        2.675  -0.406  -5.464  0.00  0.00    -0.073 C 
ATOM     13  C   LIG    1        1.273  -2.601  -2.215  0.00  0.00    +0.051 A 
ATOM     14  C   LIG    1        2.396   0.417  -4.213  0.00  0.00    +0.017 C 
ATOM     15  C   LIG    1        0.663  -1.996  -1.131  0.00  0.00    +0.162 A 
ENDROOT
BRANCH   8  16
ATOM     16  N   LIG    1        5.273  -4.163  -7.080  0.00  0.00    -0.301 N 
ATOM     17  C   LIG    1        6.699  -4.352  -7.370  0.00  0.00    +0.114 C 
ATOM     18  C   LIG    1        6.758  -5.447  -8.458  0.00  0.00    +0.046 C 
ATOM     19  C   LIG    1        5.372  -5.300  -9.128  0.00  0.00    +0.103 C 
ATOM     20  C   LIG    1        4.504  -4.686  -8.051  0.00  0.00    +0.216 C 
ATOM     21  O   LIG    1        3.292  -4.667  -8.063  0.00  0.00    -0.276 OA
BRANCH  18  22
ATOM     22  C   LIG    1        6.919  -6.833  -7.832  0.00  0.00    +0.218 C 
ATOM     23  F   LIG    1        7.083  -7.786  -8.844  0.00  0.00    -0.249 F 
ENDBRANCH  18  22
ENDBRANCH   8  16
BRANCH   7  24
ATOM     24  N   LIG    1        4.702  -5.598  -4.623  0.00  0.00    +0.381 N 
ATOM     25  H   LIG    1        5.442  -5.250  -4.032  0.00  0.00    -0.090 HD
ATOM     26  H   LIG    1        5.103  -6.076  -5.417  0.00  0.00    -0.090 HD
ATOM     27  H   LIG    1        4.127  -6.240  -4.099  0.00  0.00    -0.090 HD
ENDBRANCH   7  24
BRANCH   1  29
ATOM     28  C   LIG    1       -0.017   1.425   0.010  0.00  0.00    +0.277 C 
ATOM     29  O   LIG    1        0.002  -0.004   0.002  0.00  0.00    -0.491 OA
ENDBRANCH   1  29
BRANCH  15  30
ATOM     30  O   LIG    1        0.116  -2.755  -0.144  0.00  0.00    -0.491 OA
ATOM     31  C   LIG    1        0.212  -4.174  -0.288  0.00  0.00    +0.277 C 
ENDBRANCH  15  30
TORSDOF 5
