REMARK  Name = ZINC66076277
REMARK                            x       y       z     vdW  Elec       q    Type
REMARK                         _______ _______ _______ _____ _____    ______ ____
ROOT
ATOM      1  C   LIG    1        0.049  -4.254  -0.090  0.00  0.00    +0.052 A 
ATOM      2  C   LIG    1        1.240  -4.969  -0.105  0.00  0.00    +0.026 A 
ATOM      3  C   LIG    1        1.216  -6.345  -0.209  0.00  0.00    +0.025 A 
ATOM      4  C   LIG    1        0.003  -7.015  -0.299  0.00  0.00    +0.035 A 
ATOM      5  C   LIG    1       -1.188  -6.301  -0.284  0.00  0.00    +0.045 A 
ATOM      6  C   LIG    1       -1.165  -4.924  -0.175  0.00  0.00    +0.064 A 
ATOM      7 CL   LIG    1       -2.654  -4.030  -0.150  0.00  0.00    -0.082 Cl
ENDROOT
BRANCH   1   9
ATOM      8  C   LIG    1        1.064  -2.154  -0.567  0.00  0.00    +0.250 C 
ATOM      9  N   LIG    1        0.073  -2.857   0.015  0.00  0.00    -0.280 N 
ATOM     10  H   LIG    1       -0.625  -2.396   0.508  0.00  0.00    +0.155 HD
ATOM     11  O   LIG    1        1.983  -2.735  -1.112  0.00  0.00    -0.270 OA
BRANCH   8  17
ATOM     12  C   LIG    1       -0.039   1.372   0.103  0.00  0.00    +0.001 A 
ATOM     13  C   LIG    1        0.981   2.092  -0.496  0.00  0.00    +0.001 A 
ATOM     14  C   LIG    1        2.027   1.436  -1.117  0.00  0.00    +0.021 A 
ATOM     15  C   LIG    1        2.062   0.055  -1.144  0.00  0.00    +0.053 A 
ATOM     16 CL   LIG    1        3.376  -0.768  -1.925  0.00  0.00    -0.083 Cl
ATOM     17  C   LIG    1        1.035  -0.677  -0.542  0.00  0.00    +0.055 A 
ATOM     18  C   LIG    1       -0.018  -0.006   0.083  0.00  0.00    +0.014 A 
ENDBRANCH   8  17
ENDBRANCH   1   9
BRANCH   4  19
ATOM     19  N   LIG    1       -0.020  -8.411  -0.405  0.00  0.00    -0.280 N 
ATOM     20  H   LIG    1        0.643  -8.944   0.061  0.00  0.00    +0.155 HD
ATOM     21  C   LIG    1       -0.963  -9.014  -1.155  0.00  0.00    +0.267 C 
ATOM     22  O   LIG    1       -1.843  -8.354  -1.672  0.00  0.00    -0.268 OA
BRANCH  21  23
ATOM     23  C   LIG    1       -0.927 -10.482  -1.350  0.00  0.00    +0.126 A 
ATOM     24  C   LIG    1       -1.902 -11.100  -2.131  0.00  0.00    +0.033 A 
ATOM     25  C   LIG    1       -1.855 -12.474  -2.304  0.00  0.00    +0.004 A 
ATOM     26  C   LIG    1       -0.835 -13.183  -1.690  0.00  0.00    +0.020 A 
ATOM     27  C   LIG    1        0.101 -12.504  -0.927  0.00  0.00    +0.111 A 
ATOM     28  N   LIG    1        0.036 -11.198  -0.783  0.00  0.00    -0.250 NA
ENDBRANCH  21  23
ENDBRANCH   4  19
TORSDOF 4
