REMARK  Name = ZINC21948317
REMARK                            x       y       z     vdW  Elec       q    Type
REMARK                         _______ _______ _______ _____ _____    ______ ____
ROOT
ATOM      1  C   LIG    1        1.226  -0.649   0.011  0.00  0.00    +0.022 A 
ATOM      2  C   LIG    1        0.171  -0.003  -0.619  0.00  0.00    +0.027 A 
ATOM      3  C   LIG    1        0.156   1.385  -0.628  0.00  0.00    +0.065 A 
ATOM      4  C   LIG    1        1.198   2.078  -0.004  0.00  0.00    +0.142 A 
ATOM      5  N   LIG    1        2.183   1.420   0.584  0.00  0.00    -0.238 NA
ATOM      6  C   LIG    1        2.221   0.100   0.606  0.00  0.00    +0.113 A 
ENDROOT
BRANCH   4   7
ATOM      7  N   LIG    1        1.199   3.470  -0.004  0.00  0.00    -0.317 N 
ATOM      8  C   LIG    1        0.553   3.997   1.207  0.00  0.00    +0.087 C 
ATOM      9  C   LIG    1        0.503   5.525   1.132  0.00  0.00    -0.063 C 
ATOM     10  N   LIG    1        1.869   6.050   0.997  0.00  0.00    +0.381 N 
ATOM     11  H   LIG    1        2.464   5.754   1.873  0.00  0.00    -0.086 HD
ATOM     12  H   LIG    1        1.834   7.148   0.931  0.00  0.00    -0.086 HD
ATOM     13  C   LIG    1        2.515   5.524  -0.214  0.00  0.00    -0.063 C 
ATOM     14  C   LIG    1        2.564   3.996  -0.139  0.00  0.00    +0.087 C 
ENDBRANCH   4   7
BRANCH   3  15
ATOM     15  N   LIG    1       -0.884   2.081  -1.256  0.00  0.00    -0.355 N 
ATOM     16  H   LIG    1       -1.698   1.528  -1.748  0.00  0.00    +0.142 HD
ATOM     17  H   LIG    1       -0.888   3.181  -1.257  0.00  0.00    +0.142 HD
ENDBRANCH   3  15
TORSDOF 2
