REMARK  Name = ZINC19362651
REMARK                            x       y       z     vdW  Elec       q    Type
REMARK                         _______ _______ _______ _____ _____    ______ ____
ROOT
ATOM      1  C   LIG    1        1.453  -3.974  -0.034  0.00  0.00    +0.092 C 
ATOM      2  C   LIG    1        2.192  -4.407   1.191  0.00  0.00    +0.060 C 
ATOM      3  C   LIG    1        2.039  -5.865   1.473  0.00  0.00    -0.032 A 
ATOM      4  C   LIG    1        1.165  -6.278   2.472  0.00  0.00    +0.005 A 
ATOM      5  C   LIG    1        0.992  -7.627   2.715  0.00  0.00    +0.000 A 
ATOM      6  C   LIG    1        1.677  -8.569   1.968  0.00  0.00    +0.001 A 
ATOM      7  C   LIG    1        2.557  -8.158   0.983  0.00  0.00    +0.015 A 
ATOM      8  C   LIG    1        2.737  -6.797   0.762  0.00  0.00    +0.016 A 
ATOM      9  S   LIG    1        3.914  -6.234  -0.415  0.00  0.00    -0.089 S 
ATOM     10  C   LIG    1        3.012  -5.326  -1.619  0.00  0.00    +0.017 A 
ATOM     11  C   LIG    1        3.362  -5.596  -2.954  0.00  0.00    +0.016 A 
ATOM     12  C   LIG    1        2.768  -4.950  -4.006  0.00  0.00    +0.016 A 
ATOM     13  C   LIG    1        1.792  -3.996  -3.744  0.00  0.00    +0.008 A 
ATOM     14  C   LIG    1        1.437  -3.736  -2.437  0.00  0.00    +0.021 A 
ATOM     15  C   LIG    1        2.030  -4.402  -1.354  0.00  0.00    -0.015 A 
ENDROOT
BRANCH   1  21
ATOM     16  C   LIG    1        1.717   1.547   1.058  0.00  0.00    -0.096 C 
ATOM     17  N   LIG    1        1.817   0.082   1.098  0.00  0.00    +0.379 N 
ATOM     18  H   LIG    1        2.273  -0.200   1.953  0.00  0.00    -0.082 HD
ATOM     19  C   LIG    1        0.470  -0.502   1.046  0.00  0.00    -0.064 C 
ATOM     20  C   LIG    1        0.573  -2.027   1.107  0.00  0.00    +0.066 C 
ATOM     21  N   LIG    1        1.378  -2.507  -0.025  0.00  0.00    -0.299 NA
ATOM     22  C   LIG    1        2.721  -1.911  -0.000  0.00  0.00    +0.066 C 
ATOM     23  C   LIG    1        2.601  -0.386  -0.052  0.00  0.00    -0.064 C 
ENDBRANCH   1  21
BRANCH  13  24
ATOM     24  S   LIG    1        1.016  -3.129  -5.067  0.00  0.00    -0.129 S 
ATOM     25  C   LIG    1        1.802  -3.805  -6.555  0.00  0.00    +0.090 C 
ENDBRANCH  13  24
TORSDOF 2
