REMARK  Name = ZINC27875280
REMARK                            x       y       z     vdW  Elec       q    Type
REMARK                         _______ _______ _______ _____ _____    ______ ____
ROOT
ATOM      1  N   LIG    1       -0.727   1.988  -1.177  0.00  0.00    -0.284 N 
ATOM      2  C   LIG    1       -0.091   2.776  -2.066  0.00  0.00    +0.229 C 
ATOM      3  O   LIG    1       -0.678   3.178  -3.048  0.00  0.00    -0.274 OA
ENDROOT
BRANCH   1   4
ATOM      4  C   LIG    1       -2.127   1.616  -1.397  0.00  0.00    +0.077 C 
ATOM      5  C   LIG    1       -2.275   0.895  -2.753  0.00  0.00    +0.022 C 
ATOM      6  C   LIG    1       -3.635   1.395  -3.302  0.00  0.00    +0.002 C 
ATOM      7  C   LIG    1       -3.652   2.883  -2.871  0.00  0.00    +0.002 C 
ATOM      8  C   LIG    1       -3.002   2.880  -1.472  0.00  0.00    +0.022 C 
ENDBRANCH   1   4
BRANCH   1  10
ATOM      9  C   LIG    1       -0.735   1.996   1.269  0.00  0.00    +0.040 C 
ATOM     10  C   LIG    1       -0.018   1.503   0.010  0.00  0.00    +0.182 C 
BRANCH  10  11
ATOM     11  C   LIG    1        0.002  -0.004   0.002  0.00  0.00    +0.325 C 
ATOM     12  O   LIG    1       -0.798  -0.615  -0.666  0.00  0.00    -0.249 OA
BRANCH  11  13
ATOM     13  O   LIG    1        0.909  -0.667   0.737  0.00  0.00    -0.479 OA
ATOM     14  H   LIG    1        1.529  -0.193   1.255  0.00  0.00    +0.295 HD
ENDBRANCH  11  13
ENDBRANCH  10  11
ENDBRANCH   1  10
BRANCH   2  15
ATOM     15  C   LIG    1        1.349   3.159  -1.839  0.00  0.00    +0.126 C 
ATOM     16  C   LIG    1        2.261   2.058  -2.384  0.00  0.00    +0.028 C 
BRANCH  15  17
ATOM     17  S   LIG    1        1.703   4.718  -2.697  0.00  0.00    -0.166 S 
ATOM     18  H   LIG    1        2.710   5.157  -2.645  0.00  0.00    +0.102 HD
ENDBRANCH  15  17
ENDBRANCH   2  15
TORSDOF 6
