REMARK  Name = ZINC28570232
REMARK                            x       y       z     vdW  Elec       q    Type
REMARK                         _______ _______ _______ _____ _____    ______ ____
ROOT
ATOM      1  C   UNK    1       -0.085   7.776  -1.492  0.00  0.00    +0.068 C 
ENDROOT
BRANCH   1   2
ATOM      2  S   UNK    1       -0.076   5.971  -1.675  0.00  0.00    -0.156 S 
BRANCH   2   3
ATOM      3  C   UNK    1       -0.057   5.357   0.032  0.00  0.00    +0.104 C 
BRANCH   3   6
ATOM      4  C   UNK    1        1.171   1.783   0.001  0.00  0.00    +0.002 A 
ATOM      5  C   UNK    1        1.155   3.167   0.008  0.00  0.00    +0.004 A 
ATOM      6  C   UNK    1       -0.048   3.850   0.023  0.00  0.00    -0.036 A 
ATOM      7  C   UNK    1       -1.240   3.155   0.031  0.00  0.00    +0.023 A 
ATOM      8  C   UNK    1       -1.230   1.759   0.017  0.00  0.00    +0.052 A 
ATOM      9  C   UNK    1       -0.013   1.076   0.008  0.00  0.00    +0.019 A 
BRANCH   8  10
ATOM     10  C   UNK    1       -2.464   1.031   0.019  0.00  0.00    +0.099 C 
ATOM     11  N   UNK    1       -3.442   0.454   0.021  0.00  0.00    -0.191 NA
ENDBRANCH   8  10
ENDBRANCH   3   6
ENDBRANCH   2   3
ENDBRANCH   1   2
BRANCH   1  12
ATOM     12  C   UNK    1       -0.102   8.428  -2.876  0.00  0.00    +0.005 C 
BRANCH  12  13
ATOM     13  C   UNK    1       -0.109   9.951  -2.722  0.00  0.00    +0.036 C 
BRANCH  13  14
ATOM     14  N   UNK    1       -1.361  10.372  -2.078  0.00  0.00    +0.387 N 
ATOM     15  H   UNK    1       -2.214  10.062  -2.699  0.00  0.00    -0.089 HD
ATOM     16  H   UNK    1       -1.439   9.902  -1.087  0.00  0.00    -0.089 HD
ATOM     17  H   UNK    1       -1.366  11.466  -1.968  0.00  0.00    -0.089 HD
ENDBRANCH  13  14
BRANCH  13  18
ATOM     18  C   UNK    1       -0.002  10.594  -4.081  0.00  0.00    +0.290 C 
ATOM     19  O   UNK    1       -0.992  11.019  -4.628  0.00  0.00    -0.253 OA
BRANCH  18  20
ATOM     20  O   UNK    1        1.193  10.694  -4.683  0.00  0.00    -0.482 OA
ATOM     21  H   UNK    1        1.961  10.364  -4.259  0.00  0.00    +0.295 HD
ENDBRANCH  18  20
ENDBRANCH  13  18
ENDBRANCH  12  13
ENDBRANCH   1  12
TORSDOF 9
