REMARK  Name = ZINC40955526
REMARK                            x       y       z     vdW  Elec       q    Type
REMARK                         _______ _______ _______ _____ _____    ______ ____
ROOT
ATOM      1  N   LIG    1        0.711  -0.489   1.189  0.00  0.00    -0.319 N 
ATOM      2  C   LIG    1        2.060  -0.739   1.291  0.00  0.00    +0.116 A 
ATOM      3  C   LIG    1        3.150  -0.644   0.425  0.00  0.00    +0.164 A 
ATOM      4  C   LIG    1        4.407  -0.992   0.889  0.00  0.00    +0.160 A 
ATOM      5  N   LIG    1        4.592  -1.409   2.128  0.00  0.00    -0.241 NA
ATOM      6  C   LIG    1        3.595  -1.519   2.995  0.00  0.00    +0.141 A 
ATOM      7  C   LIG    1        2.280  -1.185   2.607  0.00  0.00    +0.127 A 
ATOM      8  N   LIG    1        1.090  -1.188   3.232  0.00  0.00    -0.223 NA
ATOM      9  C   LIG    1        0.156  -0.775   2.408  0.00  0.00    +0.167 A 
ENDROOT
BRANCH   9  10
ATOM     10  C   LIG    1       -1.278  -0.640   2.745  0.00  0.00    +0.190 A 
ATOM     11  C   LIG    1       -1.888  -0.936   4.047  0.00  0.00    +0.191 A 
ATOM     12  N   LIG    1       -3.168  -0.699   3.963  0.00  0.00    -0.033 NA
ATOM     13  O   LIG    1       -3.445  -0.254   2.647  0.00  0.00    -0.240 OA
ATOM     14  N   LIG    1       -2.221  -0.233   1.934  0.00  0.00    -0.044 NA
BRANCH  11  15
ATOM     15  N   LIG    1       -1.217  -1.390   5.175  0.00  0.00    -0.339 N 
ATOM     16  H   LIG    1       -1.707  -1.559   5.995  0.00  0.00    +0.144 HD
ATOM     17  H   LIG    1       -0.259  -1.538   5.143  0.00  0.00    +0.144 HD
ENDBRANCH  11  15
ENDBRANCH   9  10
BRANCH   1  19
ATOM     18  C   LIG    1       -0.019   1.526   0.010  0.00  0.00    +0.027 C 
ATOM     19  C   LIG    1        0.002  -0.004   0.002  0.00  0.00    +0.120 C 
ENDBRANCH   1  19
BRANCH   6  20
ATOM     20  C   LIG    1        3.853  -1.977   4.327  0.00  0.00    -0.042 C 
ATOM     21  C   LIG    1        4.064  -2.353   5.419  0.00  0.00    -0.067 C 
BRANCH  21  22
ATOM     22  C   LIG    1        4.329  -2.824   6.788  0.00  0.00    +0.244 C 
BRANCH  22  23
ATOM     23  O   LIG    1        3.106  -2.857   7.526  0.00  0.00    -0.383 OA
ATOM     24  H   LIG    1        3.206  -3.159   8.439  0.00  0.00    +0.211 HD
ENDBRANCH  22  23
ENDBRANCH  21  22
ENDBRANCH   6  20
BRANCH   3  25
ATOM     25  O   LIG    1        2.979  -0.218  -0.854  0.00  0.00    -0.488 OA
BRANCH  25  26
ATOM     26  C   LIG    1        4.147  -0.149  -1.676  0.00  0.00    +0.227 C 
BRANCH  26  27
ATOM     27  C   LIG    1        3.760   0.347  -3.071  0.00  0.00    +0.021 C 
BRANCH  27  28
ATOM     28  C   LIG    1        5.010   0.421  -3.950  0.00  0.00    -0.083 C 
BRANCH  28  29
ATOM     29  N   LIG    1        4.638   0.898  -5.289  0.00  0.00    +0.378 N 
ATOM     30  H   LIG    1        5.463   0.947  -5.869  0.00  0.00    -0.090 HD
ATOM     31  H   LIG    1        4.224   1.815  -5.216  0.00  0.00    -0.090 HD
ATOM     32  H   LIG    1        3.974   0.260  -5.701  0.00  0.00    -0.090 HD
ENDBRANCH  28  29
ENDBRANCH  27  28
ENDBRANCH  26  27
ENDBRANCH  25  26
ENDBRANCH   3  25
TORSDOF 11
