REMARK  Name = ZINC39054028
REMARK                            x       y       z     vdW  Elec       q    Type
REMARK                         _______ _______ _______ _____ _____    ______ ____
ROOT
ATOM      1  C   LIG    1       -0.017   1.390   0.010  0.00  0.00    +0.046 A 
ATOM      2  C   LIG    1        1.179   2.077   0.002  0.00  0.00    +0.112 A 
ATOM      3  N   LIG    1        2.330   1.431  -0.013  0.00  0.00    -0.261 NA
ATOM      4  C   LIG    1        2.390   0.112  -0.020  0.00  0.00    +0.141 A 
ATOM      5  C   LIG    1        1.240  -0.648  -0.013  0.00  0.00    +0.145 A 
ATOM      6  C   LIG    1        0.002  -0.004   0.002  0.00  0.00    +0.070 A 
ENDROOT
BRANCH   5   7
ATOM      7  S   LIG    1        1.331  -2.408  -0.024  0.00  0.00    +0.059 S 
ATOM      8  O   LIG    1        2.712  -2.743  -0.013  0.00  0.00    -0.153 OA
ATOM      9  O   LIG    1        0.447  -2.854  -1.044  0.00  0.00    -0.153 OA
BRANCH   7  10
ATOM     10  N   LIG    1        0.703  -2.939   1.413  0.00  0.00    -0.203 NA
ATOM     11  H   LIG    1        0.663  -3.890   1.603  0.00  0.00    +0.144 HD
ATOM     12  H   LIG    1        0.374  -2.300   2.065  0.00  0.00    +0.144 HD
ENDBRANCH   7  10
ENDBRANCH   5   7
BRANCH   6  13
ATOM     13  N   LIG    1       -1.183  -0.734   0.010  0.00  0.00    -0.281 N 
ATOM     14  H   LIG    1       -1.155  -1.704   0.004  0.00  0.00    +0.166 HD
BRANCH  13  15
ATOM     15  N   LIG    1       -2.385  -0.086   0.025  0.00  0.00    -0.256 NA
ATOM     16  H   LIG    1       -3.150  -0.743   0.029  0.00  0.00    +0.140 HD
ATOM     17  H   LIG    1       -2.461   0.553  -0.752  0.00  0.00    +0.140 HD
ENDBRANCH  13  15
ENDBRANCH   6  13
TORSDOF 4
