REMARK  Name = ZINC13776458
REMARK                            x       y       z     vdW  Elec       q    Type
REMARK                         _______ _______ _______ _____ _____    ______ ____
ROOT
ATOM      1  C   LIG    1       -1.350   5.832   0.045  0.00  0.00    +0.227 C 
ENDROOT
BRANCH   1   2
ATOM      2  C   LIG    1       -1.171   7.351   0.050  0.00  0.00    +0.022 C 
BRANCH   2   3
ATOM      3  C   LIG    1       -2.543   8.027   0.067  0.00  0.00    -0.080 C 
BRANCH   3   5
ATOM      4  C   LIG    1       -3.670  10.170   0.088  0.00  0.00    -0.101 C 
ATOM      5  N   LIG    1       -2.361   9.491   0.072  0.00  0.00    +0.377 N 
ATOM      6  H   LIG    1       -1.845   9.771  -0.770  0.00  0.00    -0.086 HD
ATOM      7  H   LIG    1       -1.828   9.763   0.907  0.00  0.00    -0.086 HD
ENDBRANCH   3   5
ENDBRANCH   2   3
ENDBRANCH   1   2
BRANCH   1   8
ATOM      8  O   LIG    1       -0.069   5.201   0.029  0.00  0.00    -0.492 OA
BRANCH   8   9
ATOM      9  C   LIG    1       -0.050   3.842   0.023  0.00  0.00    +0.120 A 
ATOM     10  C   LIG    1        1.160   3.163   0.007  0.00  0.00    +0.045 A 
ATOM     11  C   LIG    1        1.176   1.782   0.000  0.00  0.00    +0.004 A 
ATOM     12  C   LIG    1       -0.013   1.076   0.008  0.00  0.00    +0.000 A 
ATOM     13  C   LIG    1       -1.220   1.750   0.017  0.00  0.00    +0.004 A 
ATOM     14  C   LIG    1       -1.241   3.131   0.031  0.00  0.00    +0.045 A 
ENDBRANCH   8   9
ENDBRANCH   1   8
TORSDOF 5
