REMARK  Name = ZINC13777244
REMARK                            x       y       z     vdW  Elec       q    Type
REMARK                         _______ _______ _______ _____ _____    ______ ____
ROOT
ATOM      1  C   LIG    1        2.851  -2.699   0.517  0.00  0.00    +0.001 C 
ATOM      2  C   LIG    1        1.507  -2.007   0.755  0.00  0.00    +0.029 C 
ENDROOT
BRANCH   2   3
ATOM      3  N   LIG    1        1.402  -1.641   2.179  0.00  0.00    +0.389 N 
ATOM      4  H   LIG    1        2.153  -0.982   2.414  0.00  0.00    -0.088 HD
ATOM      5  H   LIG    1        1.494  -2.471   2.761  0.00  0.00    -0.088 HD
ATOM      6  H   LIG    1        0.503  -1.198   2.360  0.00  0.00    -0.088 HD
ENDBRANCH   2   3
BRANCH   2   7
ATOM      7  C   LIG    1        1.431  -0.735  -0.092  0.00  0.00    +0.002 C 
ATOM      8  C   LIG    1        0.930   0.540   0.590  0.00  0.00    +0.018 C 
ATOM      9  C   LIG    1        2.412   0.393   0.237  0.00  0.00    +0.100 C 
BRANCH   9  10
ATOM     10  C   LIG    1        2.938   1.214  -0.912  0.00  0.00    +0.308 C 
ATOM     11  O   LIG    1        2.583   0.970  -2.041  0.00  0.00    -0.251 OA
BRANCH  10  12
ATOM     12  O   LIG    1        3.797   2.219  -0.680  0.00  0.00    -0.480 OA
ATOM     13  H   LIG    1        4.072   2.408   0.196  0.00  0.00    +0.295 HD
ENDBRANCH  10  12
ENDBRANCH   9  10
ENDBRANCH   2   7
BRANCH   2  14
ATOM     14  C   LIG    1        0.387  -2.937   0.367  0.00  0.00    +0.293 C 
ATOM     15  O   LIG    1       -0.092  -2.876  -0.741  0.00  0.00    -0.253 OA
BRANCH  14  16
ATOM     16  O   LIG    1       -0.079  -3.833   1.252  0.00  0.00    -0.482 OA
ATOM     17  H   LIG    1        0.293  -3.880   2.110  0.00  0.00    +0.295 HD
ENDBRANCH  14  16
ENDBRANCH   2  14
TORSDOF 6
