REMARK  Name = ZINC19632891
REMARK                            x       y       z     vdW  Elec       q    Type
REMARK                         _______ _______ _______ _____ _____    ______ ____
ROOT
ATOM      1  N   LIG    1        4.886  -3.435   1.532  0.00  0.00    -0.296 NA
ATOM      2  C   LIG    1        4.027  -4.563   1.145  0.00  0.00    +0.100 C 
ATOM      3  C   LIG    1        4.069  -5.632   2.240  0.00  0.00    +0.100 C 
ATOM      4  N   LIG    1        5.457  -6.074   2.435  0.00  0.00    -0.289 NA
ATOM      5  C   LIG    1        6.316  -4.947   2.822  0.00  0.00    +0.100 C 
ATOM      6  C   LIG    1        6.274  -3.878   1.728  0.00  0.00    +0.100 C 
ENDROOT
BRANCH   1   7
ATOM      7  C   LIG    1        4.813  -2.353   0.542  0.00  0.00    +0.111 C 
BRANCH   7   9
ATOM      8  C   LIG    1        3.263  -0.459   0.732  0.00  0.00    +0.005 C 
ATOM      9  C   LIG    1        3.427  -1.761   0.545  0.00  0.00    -0.011 C 
BRANCH   8  13
ATOM     10  C   LIG    1       -0.643   1.209   0.741  0.00  0.00    +0.000 A 
ATOM     11  C   LIG    1        0.456   2.027   0.933  0.00  0.00    +0.001 A 
ATOM     12  C   LIG    1        1.728   1.492   0.931  0.00  0.00    +0.008 A 
ATOM     13  C   LIG    1        1.904   0.121   0.736  0.00  0.00    -0.025 A 
ATOM     14  C   LIG    1        0.791  -0.698   0.543  0.00  0.00    +0.008 A 
ATOM     15  C   LIG    1       -0.475  -0.150   0.547  0.00  0.00    +0.001 A 
ENDBRANCH   8  13
ENDBRANCH   7   9
ENDBRANCH   1   7
BRANCH   4  16
ATOM     16  C   LIG    1        5.530  -7.157   3.426  0.00  0.00    +0.117 C 
BRANCH  16  17
ATOM     17  C   LIG    1        6.955  -7.630   3.549  0.00  0.00    -0.026 A 
ATOM     18  C   LIG    1        7.715  -7.837   2.413  0.00  0.00    +0.005 A 
ATOM     19  C   LIG    1        9.023  -8.271   2.525  0.00  0.00    +0.000 A 
ATOM     20  C   LIG    1        9.571  -8.497   3.774  0.00  0.00    +0.000 A 
ATOM     21  C   LIG    1        8.811  -8.289   4.910  0.00  0.00    +0.000 A 
ATOM     22  C   LIG    1        7.505  -7.851   4.798  0.00  0.00    +0.005 A 
ENDBRANCH  16  17
BRANCH  16  23
ATOM     23  C   LIG    1        4.657  -8.302   2.984  0.00  0.00    -0.026 A 
ATOM     24  C   LIG    1        4.677  -8.719   1.666  0.00  0.00    +0.005 A 
ATOM     25  C   LIG    1        3.876  -9.770   1.260  0.00  0.00    +0.000 A 
ATOM     26  C   LIG    1        3.055 -10.405   2.173  0.00  0.00    +0.000 A 
ATOM     27  C   LIG    1        3.035  -9.989   3.491  0.00  0.00    +0.000 A 
ATOM     28  C   LIG    1        3.839  -8.941   3.897  0.00  0.00    +0.005 A 
ENDBRANCH  16  23
ENDBRANCH   4  16
TORSDOF 6
