REMARK  Name = ZINC18145500
REMARK                            x       y       z     vdW  Elec       q    Type
REMARK                         _______ _______ _______ _____ _____    ______ ____
ROOT
ATOM      1  C   LIG    1       -0.018   1.503   0.010  0.00  0.00    +0.086 C 
ATOM      2  C   LIG    1        0.002  -0.004   0.002  0.00  0.00    +0.108 A 
ATOM      3  N   LIG    1       -1.173  -0.657   0.004  0.00  0.00    -0.340 N 
ATOM      4  H   LIG    1       -2.002  -0.155   0.011  0.00  0.00    +0.167 HD
ATOM      5  C   LIG    1       -1.207  -2.038  -0.003  0.00  0.00    +0.095 A 
ATOM      6  C   LIG    1        0.013  -2.737  -0.013  0.00  0.00    +0.068 A 
ATOM      7  C   LIG    1        1.258  -1.949  -0.015  0.00  0.00    +0.281 A 
ATOM      8  O   LIG    1        2.347  -2.497  -0.023  0.00  0.00    -0.265 OA
ATOM      9  C   LIG    1        0.019  -4.131  -0.020  0.00  0.00    +0.015 A 
ATOM     10  C   LIG    1       -1.177  -4.816  -0.017  0.00  0.00    +0.004 A 
ATOM     11  C   LIG    1       -2.382  -4.130  -0.008  0.00  0.00    +0.047 A 
ATOM     12  C   LIG    1       -2.406  -2.747  -0.000  0.00  0.00    +0.141 A 
ATOM     13  N   LIG    1        1.159  -0.607  -0.012  0.00  0.00    -0.196 NA
ENDROOT
BRANCH  12  14
ATOM     14  O   LIG    1       -3.592  -2.083   0.009  0.00  0.00    -0.505 OA
ATOM     15  H   LIG    1       -3.605  -1.146   0.014  0.00  0.00    +0.292 HD
ENDBRANCH  12  14
TORSDOF 1
