REMARK  Name = ZINC43196377
REMARK                            x       y       z     vdW  Elec       q    Type
REMARK                         _______ _______ _______ _____ _____    ______ ____
ROOT
ATOM      1  C   LIG    1       -1.267  -0.629  -0.638  0.00  0.00    +0.164 A 
ATOM      2  C   LIG    1       -2.403   0.110  -0.392  0.00  0.00    +0.078 A 
ATOM      3  C   LIG    1       -3.618  -0.548  -0.164  0.00  0.00    +0.080 A 
ATOM      4  C   LIG    1       -3.658  -1.964  -0.189  0.00  0.00    +0.044 A 
ATOM      5  C   LIG    1       -4.900  -2.601   0.045  0.00  0.00    +0.134 A 
ATOM      6  N   LIG    1       -5.962  -1.840   0.276  0.00  0.00    -0.220 NA
ATOM      7  C   LIG    1       -5.876  -0.519   0.290  0.00  0.00    +0.223 A 
ATOM      8  C   LIG    1       -2.489  -2.692  -0.441  0.00  0.00    +0.062 A 
ATOM      9  N   LIG    1       -4.753   0.125   0.080  0.00  0.00    -0.235 NA
ATOM     10  C   LIG    1       -1.316  -2.029  -0.667  0.00  0.00    +0.163 A 
ENDROOT
BRANCH   1  12
ATOM     11  C   LIG    1       -0.102   1.435  -0.818  0.00  0.00    +0.277 C 
ATOM     12  O   LIG    1       -0.087   0.007  -0.860  0.00  0.00    -0.491 OA
ENDBRANCH   1  12
BRANCH   5  13
ATOM     13  N   LIG    1       -5.004  -3.978   0.033  0.00  0.00    -0.299 N 
ATOM     14  H   LIG    1       -4.207  -4.524  -0.054  0.00  0.00    +0.154 HD
BRANCH  13  15
ATOM     15  C   LIG    1       -6.258  -4.585   0.147  0.00  0.00    +0.034 A 
ATOM     16  C   LIG    1       -6.392  -5.778   0.848  0.00  0.00    +0.023 A 
ATOM     17  C   LIG    1       -7.630  -6.382   0.963  0.00  0.00    +0.003 A 
ATOM     18  C   LIG    1       -8.741  -5.805   0.381  0.00  0.00    +0.017 A 
ATOM     19  C   LIG    1       -8.617  -4.608  -0.325  0.00  0.00    +0.026 A 
ATOM     20  C   LIG    1       -7.370  -3.995  -0.435  0.00  0.00    +0.040 A 
BRANCH  19  21
ATOM     21  C   LIG    1       -9.769  -4.007  -0.928  0.00  0.00    -0.070 C 
ATOM     22  C   LIG    1      -10.713  -3.515  -1.423  0.00  0.00    +0.009 C 
ENDBRANCH  19  21
ENDBRANCH  13  15
ENDBRANCH   5  13
BRANCH  10  23
ATOM     23  O   LIG    1       -0.182  -2.737  -0.918  0.00  0.00    -0.488 OA
BRANCH  23  24
ATOM     24  C   LIG    1       -0.296  -4.161  -0.935  0.00  0.00    +0.229 C 
BRANCH  24  25
ATOM     25  C   LIG    1        1.072  -4.779  -1.230  0.00  0.00    +0.041 C 
BRANCH  25  26
ATOM     26  C   LIG    1        0.950  -6.304  -1.248  0.00  0.00    +0.003 C 
BRANCH  26  27
ATOM     27  C   LIG    1        2.318  -6.922  -1.544  0.00  0.00    +0.001 C 
BRANCH  27  28
ATOM     28  C   LIG    1        2.196  -8.447  -1.561  0.00  0.00    +0.009 C 
BRANCH  28  29
ATOM     29  C   LIG    1        3.564  -9.065  -1.857  0.00  0.00    +0.098 C 
BRANCH  29  30
ATOM     30  C   LIG    1        3.444 -10.567  -1.875  0.00  0.00    +0.235 C 
ATOM     31  N   LIG    1        4.530 -11.327  -2.117  0.00  0.00    -0.197 N 
ATOM     32  H   LIG    1        5.389 -10.907  -2.280  0.00  0.00    +0.182 HD
ATOM     33  O   LIG    1        2.370 -11.091  -1.671  0.00  0.00    -0.274 OA
BRANCH  31  34
ATOM     34  O   LIG    1        4.417 -12.738  -2.133  0.00  0.00    -0.295 OA
ATOM     35  H   LIG    1        5.248 -13.197  -2.315  0.00  0.00    +0.241 HD
ENDBRANCH  31  34
ENDBRANCH  29  30
ENDBRANCH  28  29
ENDBRANCH  27  28
ENDBRANCH  26  27
ENDBRANCH  25  26
ENDBRANCH  24  25
ENDBRANCH  23  24
ENDBRANCH  10  23
TORSDOF 13
