REMARK  Name = ZINC14952116
REMARK                            x       y       z     vdW  Elec       q    Type
REMARK                         _______ _______ _______ _____ _____    ______ ____
ROOT
ATOM      1  N   PHE A  4        0.827  -5.358  -2.890  0.00  0.00    -0.302 N 
ATOM      2  H   PHE A  4        0.509  -5.986  -2.223  0.00  0.00    +0.150 HD
ATOM      3  C   GLY A  3        1.794  -5.725  -3.755  0.00  0.00    +0.231 C 
ATOM      4  O   GLY A  3        2.191  -4.939  -4.589  0.00  0.00    -0.274 OA
ENDROOT
BRANCH   3   5
ATOM      5  CA  GLY A  3        2.381  -7.111  -3.685  0.00  0.00    +0.200 C 
BRANCH   5   6
ATOM      6  N   GLY A  3        3.404  -7.261  -4.722  0.00  0.00    -0.305 N 
ATOM      7  H   GLY A  3        3.603  -6.521  -5.317  0.00  0.00    +0.149 HD
ATOM      8  C   GLY A  2        4.069  -8.426  -4.850  0.00  0.00    +0.231 C 
ATOM      9  O   GLY A  2        3.819  -9.351  -4.106  0.00  0.00    -0.274 OA
BRANCH   8  10
ATOM     10  CA  GLY A  2        5.122  -8.580  -5.917  0.00  0.00    +0.200 C 
BRANCH  10  11
ATOM     11  N   GLY A  2        5.692  -9.928  -5.849  0.00  0.00    -0.305 N 
ATOM     12  H   GLY A  2        5.374 -10.556  -5.182  0.00  0.00    +0.149 HD
ATOM     13  C   TYR A  1        6.659 -10.295  -6.714  0.00  0.00    +0.231 C 
ATOM     14  O   TYR A  1        7.056  -9.509  -7.548  0.00  0.00    -0.274 OA
BRANCH  13  15
ATOM     15  CA  TYR A  1        7.246 -11.681  -6.644  0.00  0.00    +0.142 C 
BRANCH  15  16
ATOM     16  N   TYR A  1        7.892 -12.004  -7.923  0.00  0.00    -0.320 NA
ATOM     17  H1  TYR A  1        8.237 -12.952  -7.924  0.00  0.00    +0.119 HD
ATOM     18  H2  TYR A  1        8.631 -11.350  -8.130  0.00  0.00    +0.119 HD
ENDBRANCH  15  16
BRANCH  15  19
ATOM     19  CB  TYR A  1        8.282 -11.740  -5.520  0.00  0.00    +0.063 C 
BRANCH  19  20
ATOM     20  CG  TYR A  1        8.779 -13.155  -5.369  0.00  0.00    -0.045 A 
ATOM     21  CD2 TYR A  1        8.132 -14.026  -4.512  0.00  0.00    +0.007 A 
ATOM     22  CE2 TYR A  1        8.586 -15.323  -4.372  0.00  0.00    +0.045 A 
ATOM     23  CZ  TYR A  1        9.692 -15.751  -5.092  0.00  0.00    +0.117 A 
ATOM     24  CE1 TYR A  1       10.340 -14.875  -5.951  0.00  0.00    +0.045 A 
ATOM     25  CD1 TYR A  1        9.878 -13.581  -6.091  0.00  0.00    +0.007 A 
BRANCH  23  26
ATOM     26  OH  TYR A  1       10.142 -17.027  -4.955  0.00  0.00    -0.507 OA
ATOM     27  HH  TYR A  1        9.743 -17.652  -5.575  0.00  0.00    +0.292 HD
ENDBRANCH  23  26
ENDBRANCH  19  20
ENDBRANCH  15  19
ENDBRANCH  13  15
ENDBRANCH  10  11
ENDBRANCH   8  10
ENDBRANCH   5   6
ENDBRANCH   3   5
BRANCH   1  28
ATOM     28  CA  PHE A  4        0.257  -4.010  -2.958  0.00  0.00    +0.163 C 
BRANCH  28  31
ATOM     29  N   LEU A  5       -0.876  -2.426  -1.433  0.00  0.00    -0.301 N 
ATOM     30  H   LEU A  5       -0.936  -1.804  -2.174  0.00  0.00    +0.150 HD
ATOM     31  C   PHE A  4       -0.298  -3.631  -1.609  0.00  0.00    +0.234 C 
ATOM     32  O   PHE A  4       -0.224  -4.410  -0.682  0.00  0.00    -0.274 OA
BRANCH  29  33
ATOM     33  CA  LEU A  5       -1.416  -2.058  -0.121  0.00  0.00    +0.182 C 
BRANCH  33  34
ATOM     34  C   LEU A  5       -2.819  -2.590   0.013  0.00  0.00    +0.325 C 
ATOM     35  O   LEU A  5       -3.389  -3.057  -0.959  0.00  0.00    -0.249 OA
BRANCH  34  36
ATOM     36  OXT LEU A  5       -3.385  -2.554   1.092  0.00  0.00    -0.479 OA
ATOM     37  HXT LEU A  5       -2.946  -2.195   1.839  0.00  0.00    +0.295 HD
ENDBRANCH  34  36
ENDBRANCH  33  34
BRANCH  33  38
ATOM     38  CB  LEU A  5       -1.433  -0.534   0.013  0.00  0.00    +0.036 C 
BRANCH  38  40
ATOM     39  CD1 LEU A  5       -0.019   1.526   0.010  0.00  0.00    +0.007 C 
ATOM     40  CG  LEU A  5        0.002  -0.004   0.002  0.00  0.00    -0.015 C 
ATOM     41  CD2 LEU A  5        0.742  -0.511   1.242  0.00  0.00    +0.007 C 
ENDBRANCH  38  40
ENDBRANCH  33  38
ENDBRANCH  29  33
ENDBRANCH  28  31
BRANCH  28  42
ATOM     42  CB  PHE A  4       -0.866  -3.983  -3.997  0.00  0.00    +0.067 C 
BRANCH  42  43
ATOM     43  CG  PHE A  4       -0.291  -4.242  -5.365  0.00  0.00    -0.045 A 
ATOM     44  CD2 PHE A  4        0.147  -3.185  -6.142  0.00  0.00    +0.004 A 
ATOM     45  CE2 PHE A  4        0.675  -3.423  -7.397  0.00  0.00    +0.000 A 
ATOM     46  CZ  PHE A  4        0.766  -4.716  -7.876  0.00  0.00    +0.000 A 
ATOM     47  CE1 PHE A  4        0.329  -5.773  -7.099  0.00  0.00    +0.000 A 
ATOM     48  CD1 PHE A  4       -0.195  -5.536  -5.842  0.00  0.00    +0.004 A 
ENDBRANCH  42  43
ENDBRANCH  28  42
ENDBRANCH   1  28
TORSDOF 18
