REMARK  Name = ZINC13761101
REMARK                            x       y       z     vdW  Elec       q    Type
REMARK                         _______ _______ _______ _____ _____    ______ ____
ROOT
ATOM      1  C   LIG    1       -0.047   5.921   5.261  0.00  0.00    -0.027 C 
ATOM      2  C   LIG    1       -0.943   5.172   4.668  0.00  0.00    -0.027 C 
ENDROOT
BRANCH   1   3
ATOM      3  C   LIG    1        1.216   6.305   4.534  0.00  0.00    +0.053 C 
BRANCH   3   5
ATOM      4  C   LIG    1        2.493   8.333   5.002  0.00  0.00    -0.027 C 
ATOM      5  C   LIG    1        1.377   7.803   4.565  0.00  0.00    -0.027 C 
BRANCH   4   6
ATOM      6  C   LIG    1        3.677   7.451   5.307  0.00  0.00    +0.053 C 
BRANCH   6   8
ATOM      7  C   LIG    1        5.994   8.215   5.215  0.00  0.00    -0.031 C 
ATOM      8  C   LIG    1        4.886   7.960   4.565  0.00  0.00    -0.027 C 
BRANCH   7   9
ATOM      9  C   LIG    1        6.115   7.846   6.671  0.00  0.00    +0.027 C 
BRANCH   9  10
ATOM     10  C   LIG    1        7.383   7.018   6.884  0.00  0.00    +0.004 C 
BRANCH  10  11
ATOM     11  C   LIG    1        7.506   6.643   8.363  0.00  0.00    +0.000 C 
BRANCH  11  13
ATOM     12  C   LIG    1        8.897   5.441  10.054  0.00  0.00    +0.004 C 
ATOM     13  C   LIG    1        8.774   5.815   8.576  0.00  0.00    -0.003 C 
ENDBRANCH  11  13
ENDBRANCH  10  11
ENDBRANCH   9  10
ENDBRANCH   7   9
ENDBRANCH   6   8
ENDBRANCH   4   6
ENDBRANCH   3   5
ENDBRANCH   1   3
BRANCH   2  14
ATOM     14  C   LIG    1       -0.642   4.560   3.324  0.00  0.00    +0.053 C 
BRANCH  14  15
ATOM     15  C   LIG    1       -0.904   3.077   3.378  0.00  0.00    -0.027 C 
ATOM     16  C   LIG    1       -1.698   2.519   2.498  0.00  0.00    -0.031 C 
BRANCH  16  17
ATOM     17  C   LIG    1       -2.219   3.325   1.336  0.00  0.00    +0.027 C 
BRANCH  17  18
ATOM     18  C   LIG    1       -1.930   2.583   0.029  0.00  0.00    +0.013 C 
BRANCH  18  19
ATOM     19  C   LIG    1       -2.459   3.402  -1.150  0.00  0.00    +0.096 C 
BRANCH  19  20
ATOM     20  C   LIG    1       -2.173   2.671  -2.437  0.00  0.00    +0.213 C 
ATOM     21  N   LIG    1       -2.552   3.207  -3.614  0.00  0.00    -0.318 N 
ATOM     22  H   LIG    1       -3.008   4.062  -3.633  0.00  0.00    +0.148 HD
ATOM     23  C   LIG    1       -2.275   2.496  -4.865  0.00  0.00    +0.128 C 
ATOM     24  O   LIG    1       -1.603   1.601  -2.413  0.00  0.00    -0.276 OA
ENDBRANCH  19  20
ENDBRANCH  18  19
ENDBRANCH  17  18
ENDBRANCH  16  17
ENDBRANCH  14  15
ENDBRANCH   2  14
TORSDOF 14
