REMARK  Name = ZINC16721243
REMARK                            x       y       z     vdW  Elec       q    Type
REMARK                         _______ _______ _______ _____ _____    ______ ____
ROOT
ATOM      1  N   LIG    1        5.122  -6.435  -0.096  0.00  0.00    -0.320 N 
ATOM      2  H   LIG    1        5.454  -6.761  -0.948  0.00  0.00    +0.152 HD
ENDROOT
BRANCH   1   3
ATOM      3  C   LIG    1        5.572  -6.983   1.063  0.00  0.00    +0.085 C 
ATOM      4  C   LIG    1        6.602  -7.899   1.038  0.00  0.00    +0.059 C 
ATOM      5  C   LIG    1        7.611  -7.880  -0.041  0.00  0.00    +0.000 A 
ATOM      6  C   LIG    1        7.566  -6.945  -1.069  0.00  0.00    +0.009 A 
ATOM      7  C   LIG    1        8.532  -6.968  -2.054  0.00  0.00    +0.001 A 
ATOM      8  C   LIG    1        9.545  -7.916  -2.025  0.00  0.00    +0.001 A 
ATOM      9  C   LIG    1        9.606  -8.851  -1.015  0.00  0.00    +0.013 A 
ATOM     10  C   LIG    1        8.639  -8.845  -0.009  0.00  0.00    +0.045 A 
ATOM     11  C   LIG    1        8.668  -9.822   1.087  0.00  0.00    +0.251 C 
ATOM     12  N   LIG    1        7.734  -9.811   2.052  0.00  0.00    -0.248 N 
ATOM     13  H   LIG    1        7.788 -10.474   2.757  0.00  0.00    +0.158 HD
ATOM     14  O   LIG    1        9.553 -10.656   1.120  0.00  0.00    -0.270 OA
ATOM     15  C   LIG    1        6.731  -8.918   2.085  0.00  0.00    +0.252 C 
ATOM     16  O   LIG    1        5.919  -8.959   2.991  0.00  0.00    -0.270 OA
ENDBRANCH   1   3
BRANCH   1  20
ATOM     17  C   LIG    1        2.314  -3.356   0.007  0.00  0.00    +0.030 A 
ATOM     18  C   LIG    1        2.790  -3.821  -1.212  0.00  0.00    +0.025 A 
ATOM     19  C   LIG    1        3.720  -4.841  -1.247  0.00  0.00    +0.025 A 
ATOM     20  C   LIG    1        4.180  -5.401  -0.062  0.00  0.00    +0.031 A 
ATOM     21  C   LIG    1        3.704  -4.935   1.158  0.00  0.00    +0.025 A 
ATOM     22  C   LIG    1        2.778  -3.912   1.192  0.00  0.00    +0.025 A 
BRANCH  17  28
ATOM     23  C   LIG    1       -2.560  -0.899  -0.114  0.00  0.00    -0.096 C 
ATOM     24  N   LIG    1       -1.099  -1.018  -0.013  0.00  0.00    +0.380 N 
ATOM     25  H   LIG    1       -0.696  -0.101   0.113  0.00  0.00    -0.082 HD
ATOM     26  C   LIG    1       -0.756  -1.863   1.137  0.00  0.00    -0.060 C 
ATOM     27  C   LIG    1        0.766  -1.894   1.311  0.00  0.00    +0.086 C 
ATOM     28  N   LIG    1        1.372  -2.323   0.041  0.00  0.00    -0.333 N 
ATOM     29  C   LIG    1        0.958  -1.635  -1.191  0.00  0.00    +0.086 C 
ATOM     30  C   LIG    1       -0.573  -1.615  -1.247  0.00  0.00    -0.060 C 
ENDBRANCH  17  28
ENDBRANCH   1  20
TORSDOF 3
