REMARK  Name = ZINC38151177
REMARK                            x       y       z     vdW  Elec       q    Type
REMARK                         _______ _______ _______ _____ _____    ______ ____
ROOT
ATOM      1  C   LIG    1       -8.486 -12.361   0.017  0.00  0.00    +0.000 C 
ENDROOT
BRANCH   1   2
ATOM      2  C   LIG    1       -9.921 -12.890   0.028  0.00  0.00    +0.000 C 
BRANCH   2   3
ATOM      3  C   LIG    1       -9.900 -14.420   0.019  0.00  0.00    +0.001 C 
BRANCH   3   4
ATOM      4  C   LIG    1      -11.336 -14.950   0.030  0.00  0.00    +0.017 C 
BRANCH   4   5
ATOM      5  C   LIG    1      -11.315 -16.479   0.022  0.00  0.00    +0.107 C 
BRANCH   5   6
ATOM      6  N   LIG    1      -12.689 -16.986   0.032  0.00  0.00    -0.180 NA
ATOM      7  H   LIG    1      -13.423 -16.394   0.260  0.00  0.00    +0.149 HD
BRANCH   6   8
ATOM      8  S   LIG    1      -12.990 -18.571  -0.345  0.00  0.00    +0.095 S 
ATOM      9  O   LIG    1      -12.289 -18.842  -1.551  0.00  0.00    -0.141 OA
ATOM     10  O   LIG    1      -14.393 -18.758  -0.221  0.00  0.00    -0.141 OA
BRANCH   8  11
ATOM     11  N   LIG    1      -12.284 -19.497   0.832  0.00  0.00    -0.180 NA
ATOM     12  H   LIG    1      -11.548 -20.088   0.608  0.00  0.00    +0.149 HD
BRANCH  11  13
ATOM     13  C   LIG    1      -12.770 -19.424   2.212  0.00  0.00    +0.106 C 
BRANCH  13  14
ATOM     14  C   LIG    1      -12.228 -20.613   3.007  0.00  0.00    +0.013 C 
ATOM     15  C   LIG    1      -12.735 -20.537   4.449  0.00  0.00    +0.005 C 
ENDBRANCH  13  14
ENDBRANCH  11  13
ENDBRANCH   8  11
ENDBRANCH   6   8
ENDBRANCH   5   6
ENDBRANCH   4   5
ENDBRANCH   3   4
ENDBRANCH   2   3
ENDBRANCH   1   2
BRANCH   1  16
ATOM     16  C   LIG    1       -8.507 -10.831   0.025  0.00  0.00    +0.000 C 
BRANCH  16  17
ATOM     17  C   LIG    1       -7.071 -10.301   0.014  0.00  0.00    -0.000 C 
BRANCH  17  18
ATOM     18  C   LIG    1       -7.092  -8.771   0.023  0.00  0.00    -0.000 C 
BRANCH  18  19
ATOM     19  C   LIG    1       -5.657  -8.242   0.012  0.00  0.00    -0.000 C 
BRANCH  19  20
ATOM     20  C   LIG    1       -5.677  -6.712   0.020  0.00  0.00    -0.000 C 
BRANCH  20  21
ATOM     21  C   LIG    1       -4.242  -6.182   0.009  0.00  0.00    -0.000 C 
BRANCH  21  22
ATOM     22  C   LIG    1       -4.263  -4.652   0.018  0.00  0.00    -0.000 C 
BRANCH  22  23
ATOM     23  C   LIG    1       -2.827  -4.123   0.007  0.00  0.00    -0.000 C 
BRANCH  23  24
ATOM     24  C   LIG    1       -2.848  -2.593   0.015  0.00  0.00    -0.000 C 
BRANCH  24  25
ATOM     25  C   LIG    1       -1.413  -2.063   0.004  0.00  0.00    -0.000 C 
BRANCH  25  26
ATOM     26  C   LIG    1       -1.433  -0.534   0.013  0.00  0.00    -0.000 C 
BRANCH  26  28
ATOM     27  C   LIG    1       -0.019   1.526   0.010  0.00  0.00    +0.004 C 
ATOM     28  C   LIG    1        0.002  -0.004   0.002  0.00  0.00    -0.003 C 
ENDBRANCH  26  28
ENDBRANCH  25  26
ENDBRANCH  24  25
ENDBRANCH  23  24
ENDBRANCH  22  23
ENDBRANCH  21  22
ENDBRANCH  20  21
ENDBRANCH  19  20
ENDBRANCH  18  19
ENDBRANCH  17  18
ENDBRANCH  16  17
ENDBRANCH   1  16
TORSDOF 21
