REMARK  Name = ZINC29052268
REMARK                            x       y       z     vdW  Elec       q    Type
REMARK                         _______ _______ _______ _____ _____    ______ ____
ROOT
ATOM      1  C   LIG    1        0.032  -0.430   2.459  0.00  0.00    +0.057 C 
ATOM      2  C   LIG    1        0.054  -1.383   3.476  0.00  0.00    +0.108 C 
ATOM      3  C   LIG    1        0.059  -1.117   4.918  0.00  0.00    +0.147 C 
ATOM      4  C   LIG    1        0.083  -2.342   5.522  0.00  0.00    +0.077 C 
ATOM      5  C   LIG    1        0.093  -3.313   4.502  0.00  0.00    +0.091 C 
ATOM      6  N   LIG    1        0.070  -2.722   3.318  0.00  0.00    -0.242 NA
ENDROOT
BRANCH   5   7
ATOM      7  C   LIG    1        0.119  -4.771   4.720  0.00  0.00    +0.066 A 
ATOM      8  C   LIG    1        0.135  -5.712   3.739  0.00  0.00    +0.037 A 
ATOM      9  C   LIG    1        0.159  -7.015   4.398  0.00  0.00    +0.000 A 
ATOM     10  C   LIG    1        0.181  -8.334   3.934  0.00  0.00    +0.010 A 
ATOM     11  C   LIG    1        0.200  -9.367   4.828  0.00  0.00    +0.001 A 
ATOM     12  C   LIG    1        0.197  -9.118   6.194  0.00  0.00    +0.002 A 
ATOM     13  C   LIG    1        0.175  -7.826   6.673  0.00  0.00    +0.026 A 
ATOM     14  C   LIG    1        0.156  -6.758   5.783  0.00  0.00    +0.047 A 
ATOM     15  N   LIG    1        0.138  -5.391   5.950  0.00  0.00    -0.353 N 
ATOM     16  H   LIG    1        0.135  -4.933   6.805  0.00  0.00    +0.166 HD
ENDBRANCH   5   7
BRANCH   1  24
ATOM     17  C   LIG    1       -0.018   1.503   0.010  0.00  0.00    +0.046 C 
ATOM     18  C   LIG    1        0.002  -0.004   0.002  0.00  0.00    -0.025 A 
ATOM     19  C   LIG    1        0.009  -0.827  -1.123  0.00  0.00    +0.026 A 
ATOM     20  C   LIG    1        0.028  -2.117  -0.699  0.00  0.00    +0.014 A 
ATOM     21  C   LIG    1        0.041  -3.331  -1.593  0.00  0.00    +0.063 C 
ATOM     22  N   LIG    1        0.034  -2.139   0.656  0.00  0.00    -0.358 N 
ATOM     23  H   LIG    1        0.047  -2.935   1.210  0.00  0.00    +0.166 HD
ATOM     24  C   LIG    1        0.024  -0.837   1.116  0.00  0.00    +0.045 A 
ENDBRANCH   1  24
BRANCH   3  25
ATOM     25  O   LIG    1        0.042   0.097   5.527  0.00  0.00    -0.493 OA
ATOM     26  C   LIG    1        0.051   0.106   6.956  0.00  0.00    +0.277 C 
ENDBRANCH   3  25
TORSDOF 3
