REMARK  Name = ZINC13776362
REMARK                            x       y       z     vdW  Elec       q    Type
REMARK                         _______ _______ _______ _____ _____    ______ ____
ROOT
ATOM      1  C   LIG    1       -1.222   1.748   0.017  0.00  0.00    +0.003 A 
ATOM      2  C   LIG    1       -1.247   3.128   0.030  0.00  0.00    +0.012 A 
ATOM      3  C   LIG    1       -0.050   3.845   0.022  0.00  0.00    +0.022 A 
ATOM      4  C   LIG    1        1.166   3.160   0.007  0.00  0.00    +0.044 A 
ATOM      5  C   LIG    1        1.178   1.781   0.000  0.00  0.00    +0.122 A 
ATOM      6  C   LIG    1       -0.013   1.076   0.008  0.00  0.00    +0.032 A 
ENDROOT
BRANCH   3   7
ATOM      7  C   LIG    1       -0.070   5.323   0.030  0.00  0.00    +0.168 A 
ATOM      8  C   LIG    1       -1.176   6.127   0.039  0.00  0.00    +0.088 A 
ATOM      9  C   LIG    1       -0.639   7.441   0.047  0.00  0.00    +0.190 A 
ATOM     10  N   LIG    1        0.665   7.306   0.034  0.00  0.00    -0.071 NA
ATOM     11  O   LIG    1        0.995   6.143   0.025  0.00  0.00    -0.354 OA
BRANCH   9  12
ATOM     12  C   LIG    1       -1.401   8.713   0.061  0.00  0.00    +0.359 C 
ATOM     13  O   LIG    1       -2.615   8.693   0.072  0.00  0.00    -0.243 OA
BRANCH  12  14
ATOM     14  O   LIG    1       -0.747   9.890   0.060  0.00  0.00    -0.476 OA
ATOM     15  H   LIG    1        0.190   9.905   0.052  0.00  0.00    +0.295 HD
ENDBRANCH  12  14
ENDBRANCH   9  12
ENDBRANCH   3   7
BRANCH   5  16
ATOM     16  N   LIG    1        2.467   1.054  -0.015  0.00  0.00    +0.006 N 
ATOM     17  O   LIG    1        2.479  -0.165  -0.021  0.00  0.00    -0.130 OA
BRANCH  16  18
ATOM     18  O   LIG    1        3.516   1.673  -0.021  0.00  0.00    -0.396 OA
ATOM     19  H   LIG    1        3.507   2.610  -0.017  0.00  0.00    +0.329 HD
ENDBRANCH  16  18
ENDBRANCH   5  16
TORSDOF 5
