REMARK  Name = ZINC13781978
REMARK                            x       y       z     vdW  Elec       q    Type
REMARK                         _______ _______ _______ _____ _____    ______ ____
ROOT
ATOM      1  C   LIG    1        1.266   2.001  -0.029  0.00  0.00    +0.272 C 
ATOM      2  C   LIG    1        1.144   3.503   0.239  0.00  0.00    +0.144 C 
ATOM      3  N   LIG    1        0.378   4.129  -0.848  0.00  0.00    -0.282 NA
ATOM      4  C   LIG    1        1.031   3.900  -2.145  0.00  0.00    +0.113 C 
ATOM      5  C   LIG    1        1.154   2.394  -2.389  0.00  0.00    +0.178 C 
ATOM      6  O   LIG    1        1.874   1.797  -1.307  0.00  0.00    -0.348 OA
ENDROOT
BRANCH   2   7
ATOM      7  C   LIG    1        0.432   3.724   1.549  0.00  0.00    -0.025 A 
ATOM      8  C   LIG    1       -0.947   3.643   1.609  0.00  0.00    +0.005 A 
ATOM      9  C   LIG    1       -1.599   3.841   2.811  0.00  0.00    +0.000 A 
ATOM     10  C   LIG    1       -0.874   4.131   3.952  0.00  0.00    +0.000 A 
ATOM     11  C   LIG    1        0.504   4.218   3.891  0.00  0.00    +0.000 A 
ATOM     12  C   LIG    1        1.157   4.014   2.689  0.00  0.00    +0.005 A 
ENDBRANCH   2   7
BRANCH   1  13
ATOM     13  O   LIG    1       -0.035   1.408  -0.020  0.00  0.00    -0.342 OA
BRANCH  13  15
ATOM     14  C   LIG    1       -0.035  -0.516  -1.483  0.00  0.00    +0.043 C 
ATOM     15  C   LIG    1       -0.022  -0.021  -0.035  0.00  0.00    +0.148 C 
BRANCH  15  16
ATOM     16  C   LIG    1       -1.239  -0.542   0.684  0.00  0.00    -0.018 A 
ATOM     17  C   LIG    1       -2.460   0.086   0.522  0.00  0.00    +0.018 A 
ATOM     18  C   LIG    1       -3.577  -0.395   1.179  0.00  0.00    +0.056 A 
ATOM     19  C   LIG    1       -3.472  -1.498   2.004  0.00  0.00    +0.024 A 
ATOM     20  C   LIG    1       -2.251  -2.124   2.170  0.00  0.00    +0.056 A 
ATOM     21  C   LIG    1       -1.134  -1.646   1.510  0.00  0.00    +0.018 A 
BRANCH  18  22
ATOM     22  C   LIG    1       -4.909   0.287   0.997  0.00  0.00    +0.417 C 
ATOM     23  F   LIG    1       -5.272   0.249  -0.353  0.00  0.00    -0.166 F 
ATOM     24  F   LIG    1       -4.813   1.618   1.418  0.00  0.00    -0.166 F 
ATOM     25  F   LIG    1       -5.878  -0.374   1.759  0.00  0.00    -0.166 F 
ENDBRANCH  18  22
BRANCH  20  26
ATOM     26  C   LIG    1       -2.136  -3.327   3.070  0.00  0.00    +0.417 C 
ATOM     27  F   LIG    1       -1.119  -4.165   2.602  0.00  0.00    -0.166 F 
ATOM     28  F   LIG    1       -3.349  -4.024   3.074  0.00  0.00    -0.166 F 
ATOM     29  F   LIG    1       -1.835  -2.909   4.371  0.00  0.00    -0.166 F 
ENDBRANCH  20  26
ENDBRANCH  15  16
ENDBRANCH  13  15
ENDBRANCH   1  13
BRANCH   3  30
ATOM     30  C   LIG    1        0.189   5.565  -0.600  0.00  0.00    +0.159 C 
BRANCH  30  31
ATOM     31  C   LIG    1       -0.378   6.218  -1.834  0.00  0.00    +0.119 A 
ATOM     32  N   LIG    1        0.323   6.747  -2.801  0.00  0.00    -0.260 N 
ATOM     33  H   LIG    1        1.422   6.744  -2.750  0.00  0.00    +0.190 HD
ATOM     34  N   LIG    1       -0.591   7.232  -3.751  0.00  0.00    -0.118 NA
ATOM     35  C   LIG    1       -1.820   6.962  -3.267  0.00  0.00    +0.311 A 
ATOM     36  N   LIG    1       -1.675   6.354  -2.111  0.00  0.00    -0.296 N 
ATOM     37  H   LIG    1       -2.561   6.043  -1.538  0.00  0.00    +0.172 HD
BRANCH  35  38
ATOM     38  O   LIG    1       -2.997   7.265  -3.866  0.00  0.00    -0.479 OA
ATOM     39  H   LIG    1       -3.806   7.037  -3.452  0.00  0.00    +0.295 HD
ENDBRANCH  35  38
ENDBRANCH  30  31
ENDBRANCH   3  30
TORSDOF 9
