REMARK  Name = ZINC22010579
REMARK                            x       y       z     vdW  Elec       q    Type
REMARK                         _______ _______ _______ _____ _____    ______ ____
ROOT
ATOM      1  N   LIG    1       -4.329  -0.225  -5.918  0.00  0.00    +0.385 N 
ATOM      2  H   LIG    1       -3.762  -1.018  -6.180  0.00  0.00    -0.081 HD
ATOM      3  C   LIG    1       -5.537  -0.694  -5.228  0.00  0.00    -0.062 C 
ATOM      4  C   LIG    1       -6.327  -1.621  -6.155  0.00  0.00    +0.067 C 
ATOM      5  N   LIG    1       -6.692  -0.891  -7.377  0.00  0.00    -0.294 NA
ATOM      6  C   LIG    1       -5.493  -0.394  -8.066  0.00  0.00    +0.038 C 
ATOM      7  C   LIG    1       -5.908   0.389  -9.313  0.00  0.00    +0.022 C 
ATOM      8  C   LIG    1       -4.710   0.522  -7.124  0.00  0.00    -0.059 C 
ENDROOT
BRANCH   1  13
ATOM      9  C   LIG    1       -0.009   1.289  -3.061  0.00  0.00    +0.250 C 
ATOM     10  N   LIG    1       -1.262   1.384  -3.547  0.00  0.00    -0.298 N 
ATOM     11  C   LIG    1       -2.394   0.796  -2.818  0.00  0.00    +0.107 C 
ATOM     12  C   LIG    1       -3.164  -0.129  -3.766  0.00  0.00    +0.007 C 
ATOM     13  C   LIG    1       -3.561   0.650  -5.022  0.00  0.00    -0.065 C 
ATOM     14  C   LIG    1       -4.421   1.852  -4.626  0.00  0.00    -0.010 C 
ATOM     15  C   LIG    1       -2.302   1.138  -5.741  0.00  0.00    +0.007 C 
ATOM     16  C   LIG    1       -1.523   2.083  -4.813  0.00  0.00    +0.107 C 
ATOM     17  O   LIG    1        0.919   1.783  -3.671  0.00  0.00    -0.270 OA
BRANCH   9  20
ATOM     18  C   LIG    1       -0.085   2.745  -0.526  0.00  0.00    +0.066 C 
ATOM     19  C   LIG    1        0.204   1.267  -0.566  0.00  0.00    +0.054 A 
ATOM     20  C   LIG    1        0.238   0.582  -1.786  0.00  0.00    +0.079 A 
ATOM     21  C   LIG    1        0.512  -0.790  -1.766  0.00  0.00    +0.054 A 
ATOM     22  C   LIG    1        0.561  -1.581  -3.047  0.00  0.00    +0.066 C 
ATOM     23  N   LIG    1        0.726  -1.381  -0.603  0.00  0.00    -0.240 NA
ATOM     24  C   LIG    1        0.684  -0.698   0.524  0.00  0.00    +0.221 A 
ATOM     25  N   LIG    1        0.435   0.597   0.549  0.00  0.00    -0.240 NA
ENDBRANCH   9  20
ENDBRANCH   1  13
BRANCH   5  26
ATOM     26  C   LIG    1       -7.502  -1.732  -8.270  0.00  0.00    +0.113 C 
BRANCH  26  27
ATOM     27  C   LIG    1       -8.284  -0.854  -9.213  0.00  0.00    -0.028 A 
ATOM     28  C   LIG    1       -8.829   0.333  -8.761  0.00  0.00    +0.006 A 
ATOM     29  C   LIG    1       -9.546   1.138  -9.626  0.00  0.00    +0.013 A 
ATOM     30  C   LIG    1       -9.720   0.755 -10.943  0.00  0.00    +0.055 A 
ATOM     31  C   LIG    1       -9.175  -0.432 -11.395  0.00  0.00    +0.013 A 
ATOM     32  C   LIG    1       -8.453  -1.235 -10.531  0.00  0.00    +0.006 A 
BRANCH  30  33
ATOM     33  C   LIG    1      -10.503   1.632 -11.885  0.00  0.00    +0.417 C 
ATOM     34  F   LIG    1      -11.477   2.335 -11.168  0.00  0.00    -0.166 F 
ATOM     35  F   LIG    1      -11.122   0.837 -12.856  0.00  0.00    -0.166 F 
ATOM     36  F   LIG    1       -9.638   2.538 -12.507  0.00  0.00    -0.166 F 
ENDBRANCH  30  33
ENDBRANCH  26  27
BRANCH  26  37
ATOM     37  C   LIG    1       -8.469  -2.576  -7.437  0.00  0.00    +0.183 C 
BRANCH  37  38
ATOM     38  O   LIG    1       -9.356  -1.715  -6.719  0.00  0.00    -0.381 OA
ATOM     39  C   LIG    1      -10.305  -2.407  -5.906  0.00  0.00    +0.194 C 
ENDBRANCH  37  38
ENDBRANCH  26  37
ENDBRANCH   5  26
TORSDOF 7
