REMARK  Name = ZINC14974132
REMARK                            x       y       z     vdW  Elec       q    Type
REMARK                         _______ _______ _______ _____ _____    ______ ____
ROOT
ATOM      1  C   LIG    1       -5.393   7.251   0.172  0.00  0.00    +0.224 A 
ATOM      2  C   LIG    1       -6.737   6.904   0.286  0.00  0.00    +0.096 A 
ATOM      3  C   LIG    1       -7.674   7.929   0.402  0.00  0.00    +0.078 A 
ATOM      4  N   LIG    1       -7.252   9.194   0.399  0.00  0.00    -0.235 NA
ATOM      5  C   LIG    1       -5.972   9.478   0.289  0.00  0.00    +0.225 A 
ATOM      6  N   LIG    1       -5.055   8.536   0.183  0.00  0.00    -0.201 NA
ENDROOT
BRANCH   3   7
ATOM      7  C   LIG    1       -9.119   7.617   0.527  0.00  0.00    +0.001 A 
ATOM      8  C   LIG    1       -9.551   6.292   0.524  0.00  0.00    +0.010 A 
ATOM      9  C   LIG    1      -10.896   6.007   0.646  0.00  0.00    +0.013 A 
ATOM     10  C   LIG    1      -11.816   7.035   0.761  0.00  0.00    +0.055 A 
ATOM     11  C   LIG    1      -11.393   8.352   0.758  0.00  0.00    +0.013 A 
ATOM     12  C   LIG    1      -10.050   8.648   0.642  0.00  0.00    +0.010 A 
BRANCH  10  13
ATOM     13  C   LIG    1      -13.283   6.718   0.888  0.00  0.00    +0.417 C 
ATOM     14  F   LIG    1      -13.913   7.718   1.637  0.00  0.00    -0.166 F 
ATOM     15  F   LIG    1      -13.440   5.485   1.531  0.00  0.00    -0.166 F 
ATOM     16  F   LIG    1      -13.859   6.656  -0.385  0.00  0.00    -0.166 F 
ENDBRANCH  10  13
ENDBRANCH   3   7
BRANCH   1  17
ATOM     17  O   LIG    1       -4.443   6.292   0.058  0.00  0.00    -0.436 OA
BRANCH  17  21
ATOM     18  C   LIG    1       -2.297   7.139   3.613  0.00  0.00    +0.166 A 
ATOM     19  N   LIG    1       -3.003   6.866   2.542  0.00  0.00    -0.221 NA
ATOM     20  C   LIG    1       -2.491   6.945   1.294  0.00  0.00    +0.122 A 
ATOM     21  C   LIG    1       -3.140   6.680   0.062  0.00  0.00    +0.157 A 
ATOM     22  C   LIG    1       -2.465   6.811  -1.129  0.00  0.00    +0.048 A 
ATOM     23  C   LIG    1       -1.135   7.204  -1.167  0.00  0.00    +0.005 A 
ATOM     24  C   LIG    1       -0.473   7.471   0.017  0.00  0.00    +0.017 A 
ATOM     25  C   LIG    1       -1.138   7.343   1.212  0.00  0.00    +0.044 A 
ATOM     26  S   LIG    1       -0.709   7.579   2.920  0.00  0.00    -0.052 S 
BRANCH  18  29
ATOM     27  C   LIG    1       -2.225   7.381   7.358  0.00  0.00    +0.109 C 
ATOM     28  C   LIG    1       -1.804   7.421   5.912  0.00  0.00    +0.216 C 
ATOM     29  N   LIG    1       -2.685   7.102   4.944  0.00  0.00    -0.265 N 
ATOM     30  H   LIG    1       -3.591   6.846   5.178  0.00  0.00    +0.157 HD
ATOM     31  O   LIG    1       -0.670   7.737   5.620  0.00  0.00    -0.276 OA
ENDBRANCH  18  29
ENDBRANCH  17  21
ENDBRANCH   1  17
TORSDOF 5
