REMARK  Name = ZINC49021499
REMARK                            x       y       z     vdW  Elec       q    Type
REMARK                         _______ _______ _______ _____ _____    ______ ____
ROOT
ATOM      1  C   LIG    1        1.332  -4.082  -2.301  0.00  0.00    +0.121 C 
ATOM      2  N   LIG    1        0.839  -4.926  -1.435  0.00  0.00    -0.177 NA
ATOM      3  N   LIG    1        1.070  -6.245  -1.825  0.00  0.00    -0.201 N 
ATOM      4  H   LIG    1        0.788  -7.027  -1.326  0.00  0.00    +0.178 HD
ATOM      5  C   LIG    1        1.741  -6.277  -2.993  0.00  0.00    +0.285 C 
ATOM      6  O   LIG    1        2.098  -7.269  -3.606  0.00  0.00    -0.267 OA
ATOM      7  C   LIG    1        1.951  -4.873  -3.384  0.00  0.00    +0.172 C 
ATOM      8  N   LIG    1        2.560  -4.422  -4.463  0.00  0.00    -0.175 NA
ENDROOT
BRANCH   1  13
ATOM      9  C   LIG    1        0.606  -0.607  -1.056  0.00  0.00    +0.121 A 
ATOM     10  C   LIG    1        1.173   0.163  -2.063  0.00  0.00    +0.045 A 
ATOM     11  C   LIG    1        1.788  -0.446  -3.141  0.00  0.00    +0.004 A 
ATOM     12  C   LIG    1        1.842  -1.823  -3.223  0.00  0.00    +0.010 A 
ATOM     13  C   LIG    1        1.275  -2.604  -2.216  0.00  0.00    +0.008 A 
ATOM     14  C   LIG    1        0.660  -1.989  -1.126  0.00  0.00    +0.055 A 
BRANCH   9  16
ATOM     15  C   LIG    1       -0.017   1.425   0.010  0.00  0.00    +0.277 C 
ATOM     16  O   LIG    1        0.002  -0.004   0.002  0.00  0.00    -0.495 OA
ENDBRANCH   9  16
ENDBRANCH   1  13
BRANCH   8  17
ATOM     17  N   LIG    1        3.051  -5.250  -5.322  0.00  0.00    -0.237 N 
ATOM     18  H   LIG    1        2.973  -6.206  -5.173  0.00  0.00    +0.174 HD
BRANCH  17  19
ATOM     19  C   LIG    1        3.696  -4.772  -6.463  0.00  0.00    +0.048 A 
ATOM     20  C   LIG    1        3.815  -3.404  -6.674  0.00  0.00    +0.025 A 
ATOM     21  C   LIG    1        4.453  -2.934  -7.805  0.00  0.00    +0.002 A 
ATOM     22  C   LIG    1        4.974  -3.824  -8.727  0.00  0.00    +0.000 A 
ATOM     23  C   LIG    1        4.857  -5.187  -8.520  0.00  0.00    +0.002 A 
ATOM     24  C   LIG    1        4.226  -5.664  -7.388  0.00  0.00    +0.025 A 
ENDBRANCH  17  19
ENDBRANCH   8  17
TORSDOF 4
