REMARK  Name = ZINC49878620
REMARK                            x       y       z     vdW  Elec       q    Type
REMARK                         _______ _______ _______ _____ _____    ______ ____
ROOT
ATOM      1  N   LIG    1       -1.726  -1.017  -1.368  0.00  0.00    -0.262 N 
ATOM      2  C   LIG    1       -2.541  -0.157  -2.096  0.00  0.00    +0.045 A 
ATOM      3  C   LIG    1       -3.126   1.060  -1.767  0.00  0.00    +0.026 A 
ATOM      4  C   LIG    1       -3.908   1.726  -2.691  0.00  0.00    +0.030 A 
ATOM      5  C   LIG    1       -4.121   1.194  -3.952  0.00  0.00    +0.106 A 
ATOM      6  C   LIG    1       -3.550  -0.013  -4.299  0.00  0.00    +0.039 A 
ATOM      7  C   LIG    1       -2.758  -0.694  -3.375  0.00  0.00    +0.012 A 
ATOM      8  C   LIG    1       -2.021  -1.971  -3.424  0.00  0.00    +0.074 C 
ATOM      9  C   LIG    1       -1.940  -2.858  -4.485  0.00  0.00    +0.141 C 
ATOM     10  C   LIG    1       -1.382  -2.096  -2.091  0.00  0.00    +0.254 C 
ATOM     11  O   LIG    1       -0.675  -3.012  -1.720  0.00  0.00    -0.270 OA
ENDROOT
BRANCH   5  12
ATOM     12  S   LIG    1       -5.123   2.059  -5.114  0.00  0.00    +0.061 S 
ATOM     13  O   LIG    1       -5.987   2.899  -4.360  0.00  0.00    -0.153 OA
ATOM     14  O   LIG    1       -5.612   1.089  -6.030  0.00  0.00    -0.153 OA
BRANCH  12  15
ATOM     15  N   LIG    1       -4.122   3.060  -5.974  0.00  0.00    -0.175 NA
ATOM     16  C   LIG    1       -3.872   4.419  -5.492  0.00  0.00    +0.120 C 
ATOM     17  C   LIG    1       -2.398   4.557  -5.094  0.00  0.00    +0.086 C 
ATOM     18  S   LIG    1       -1.365   4.133  -6.529  0.00  0.00    -0.158 S 
ATOM     19  C   LIG    1       -1.980   2.491  -7.011  0.00  0.00    +0.086 C 
ATOM     20  C   LIG    1       -3.494   2.572  -7.203  0.00  0.00    +0.120 C 
ENDBRANCH  12  15
ENDBRANCH   5  12
BRANCH   9  21
ATOM     21  C   LIG    1       -2.623  -2.572  -5.711  0.00  0.00    +0.111 C 
ATOM     22  N   LIG    1       -3.164  -2.345  -6.683  0.00  0.00    -0.190 NA
ENDBRANCH   9  21
BRANCH   9  23
ATOM     23  C   LIG    1       -1.173  -4.060  -4.356  0.00  0.00    +0.111 C 
ATOM     24  N   LIG    1       -0.565  -5.014  -4.254  0.00  0.00    -0.190 NA
ENDBRANCH   9  23
BRANCH   1  25
ATOM     25  C   LIG    1       -1.293  -0.775   0.011  0.00  0.00    +0.149 C 
BRANCH  25  33
ATOM     26  C   LIG    1       -0.017   1.378   0.010  0.00  0.00    +0.007 A 
ATOM     27  C   LIG    1        1.171   2.086   0.002  0.00  0.00    +0.022 A 
ATOM     28  C   LIG    1        2.378   1.412  -0.013  0.00  0.00    +0.059 A 
ATOM     29 CL   LIG    1        3.869   2.301  -0.023  0.00  0.00    -0.082 Cl
ATOM     30  C   LIG    1        2.397   0.027  -0.021  0.00  0.00    +0.060 A 
ATOM     31 CL   LIG    1        3.912  -0.821  -0.040  0.00  0.00    -0.082 Cl
ATOM     32  C   LIG    1        1.208  -0.680  -0.013  0.00  0.00    +0.026 A 
ATOM     33  C   LIG    1        0.002  -0.004   0.002  0.00  0.00    -0.028 A 
ENDBRANCH  25  33
ENDBRANCH   1  25
TORSDOF 6
