REMARK  Name = ZINC19536238
REMARK                            x       y       z     vdW  Elec       q    Type
REMARK                         _______ _______ _______ _____ _____    ______ ____
ROOT
ATOM      1  N   LIG    1       -0.018   1.465   0.010  0.00  0.00    +0.384 N 
ATOM      2  H   LIG    1       -0.507   1.790   0.940  0.00  0.00    -0.081 HD
ATOM      3  C   LIG    1       -0.799   1.987  -1.120  0.00  0.00    -0.063 C 
ATOM      4  C   LIG    1       -0.862   3.514  -1.031  0.00  0.00    +0.066 C 
ATOM      5  N   LIG    1        0.503   4.059  -1.041  0.00  0.00    -0.302 NA
ATOM      6  C   LIG    1        1.284   3.537   0.089  0.00  0.00    +0.066 C 
ATOM      7  C   LIG    1        1.347   2.010   0.000  0.00  0.00    -0.063 C 
ENDROOT
BRANCH   1   8
ATOM      8  C   LIG    1        0.002  -0.004   0.002  0.00  0.00    -0.043 C 
BRANCH   8  12
ATOM      9  C   LIG    1       -3.939  -1.486   0.731  0.00  0.00    +0.120 A 
ATOM     10  C   LIG    1       -3.518  -1.242  -0.568  0.00  0.00    +0.046 A 
ATOM     11  C   LIG    1       -2.244  -0.763  -0.801  0.00  0.00    +0.005 A 
ATOM     12  C   LIG    1       -1.388  -0.527   0.259  0.00  0.00    -0.064 A 
ATOM     13  C   LIG    1       -1.803  -0.775   1.554  0.00  0.00    +0.005 A 
ATOM     14  C   LIG    1       -3.079  -1.249   1.793  0.00  0.00    +0.046 A 
BRANCH   9  16
ATOM     15  C   LIG    1       -5.558  -2.186   2.326  0.00  0.00    +0.277 C 
ATOM     16  O   LIG    1       -5.193  -1.957   0.963  0.00  0.00    -0.495 OA
ENDBRANCH   9  16
ENDBRANCH   8  12
ENDBRANCH   1   8
BRANCH   5  17
ATOM     17  C   LIG    1        0.483   5.528  -1.033  0.00  0.00    +0.119 C 
BRANCH  17  18
ATOM     18  C   LIG    1       -0.517   6.022  -2.046  0.00  0.00    -0.033 A 
ATOM     19  C   LIG    1       -0.118   6.271  -3.346  0.00  0.00    +0.005 A 
ATOM     20  C   LIG    1       -1.036   6.720  -4.277  0.00  0.00    +0.000 A 
ATOM     21  C   LIG    1       -2.351   6.930  -3.905  0.00  0.00    +0.000 A 
ATOM     22  C   LIG    1       -2.749   6.687  -2.603  0.00  0.00    +0.000 A 
ATOM     23  C   LIG    1       -1.832   6.233  -1.674  0.00  0.00    +0.005 A 
ENDBRANCH  17  18
ENDBRANCH   5  17
TORSDOF 5
