REMARK  Name = ZINC53165707
REMARK                            x       y       z     vdW  Elec       q    Type
REMARK                         _______ _______ _______ _____ _____    ______ ____
ROOT
ATOM      1  C   LIG    1       -0.017   1.379   0.010  0.00  0.00    +0.014 A 
ATOM      2  C   LIG    1        1.169   2.094   0.002  0.00  0.00    +0.024 A 
ATOM      3  C   LIG    1        2.378   1.429  -0.013  0.00  0.00    +0.083 A 
ATOM      4 CL   LIG    1        3.864   2.327  -0.023  0.00  0.00    -0.080 Cl
ATOM      5  C   LIG    1        2.404   0.032  -0.021  0.00  0.00    +0.160 A 
ATOM      6  C   LIG    1        1.204  -0.681  -0.013  0.00  0.00    +0.059 A 
ATOM      7  C   LIG    1        0.002  -0.004   0.002  0.00  0.00    +0.058 A 
ENDROOT
BRANCH   5   8
ATOM      8  N   LIG    1        3.601  -0.634  -0.036  0.00  0.00    -0.075 NA
ATOM      9  C   LIG    1        3.744  -1.710  -0.774  0.00  0.00    +0.370 C 
ATOM     10  N   LIG    1        2.751  -2.226  -1.558  0.00  0.00    -0.235 N 
ATOM     11  H   LIG    1        1.857  -1.859  -1.648  0.00  0.00    +0.245 HD
ATOM     12  C   LIG    1        3.254  -3.425  -2.242  0.00  0.00    +0.219 C 
ATOM     13  C   LIG    1        4.708  -3.565  -1.757  0.00  0.00    +0.219 C 
ATOM     14  N   LIG    1        4.902  -2.430  -0.844  0.00  0.00    -0.235 N 
ATOM     15  H   LIG    1        5.721  -2.225  -0.367  0.00  0.00    +0.245 HD
ENDBRANCH   5   8
BRANCH   7  16
ATOM     16  C   LIG    1       -1.294  -0.773   0.011  0.00  0.00    +0.418 C 
ATOM     17  F   LIG    1       -1.347  -1.585   1.149  0.00  0.00    -0.166 F 
ATOM     18  F   LIG    1       -1.369  -1.572  -1.135  0.00  0.00    -0.166 F 
ATOM     19  F   LIG    1       -2.368   0.123   0.026  0.00  0.00    -0.166 F 
ENDBRANCH   7  16
TORSDOF 2
