REMARK  Name = ZINC36816706
REMARK                            x       y       z     vdW  Elec       q    Type
REMARK                         _______ _______ _______ _____ _____    ______ ____
ROOT
ATOM      1  N   LIG    1        1.904  -2.329   3.183  0.00  0.00    -0.284 N 
ATOM      2  H   LIG    1        2.028  -1.371   3.273  0.00  0.00    +0.155 HD
ATOM      3  C   LIG    1        2.359  -3.161   4.141  0.00  0.00    +0.222 C 
ATOM      4  O   LIG    1        2.288  -4.362   3.985  0.00  0.00    -0.275 OA
ENDROOT
BRANCH   1   6
ATOM      5  C   LIG    1        0.625  -2.028   1.122  0.00  0.00    +0.117 A 
ATOM      6  C   LIG    1        1.255  -2.846   2.061  0.00  0.00    +0.055 A 
ATOM      7  C   LIG    1        1.193  -4.201   1.804  0.00  0.00    +0.032 A 
ATOM      8  C   LIG    1        0.546  -4.631   0.695  0.00  0.00    +0.048 A 
ATOM      9  S   LIG    1       -0.008  -3.225  -0.037  0.00  0.00    -0.088 S 
BRANCH   5  10
ATOM     10  C   LIG    1        0.513  -0.618   1.100  0.00  0.00    +0.347 C 
ATOM     11  O   LIG    1        1.014   0.046   1.987  0.00  0.00    -0.244 OA
BRANCH  10  13
ATOM     12  C   LIG    1       -0.225   1.416   0.135  0.00  0.00    +0.280 C 
ATOM     13  O   LIG    1       -0.151  -0.010   0.094  0.00  0.00    -0.464 OA
ENDBRANCH  10  13
ENDBRANCH   5  10
ENDBRANCH   1   6
BRANCH   3  14
ATOM     14  C   LIG    1        2.956  -2.599   5.405  0.00  0.00    +0.131 C 
BRANCH  14  15
ATOM     15  C   LIG    1        3.384  -3.730   6.305  0.00  0.00    -0.036 A 
ATOM     16  C   LIG    1        2.507  -4.269   7.234  0.00  0.00    +0.024 A 
ATOM     17  C   LIG    1        2.934  -5.306   8.041  0.00  0.00    +0.111 A 
ATOM     18  N   LIG    1        4.160  -5.781   7.936  0.00  0.00    -0.263 NA
ATOM     19  C   LIG    1        5.021  -5.293   7.064  0.00  0.00    +0.111 A 
ATOM     20  C   LIG    1        4.662  -4.261   6.219  0.00  0.00    +0.024 A 
ENDBRANCH  14  15
ENDBRANCH   3  14
TORSDOF 5
