REMARK  Name = ZINC19093815
REMARK                            x       y       z     vdW  Elec       q    Type
REMARK                         _______ _______ _______ _____ _____    ______ ____
ROOT
ATOM      1  C   LIG    1       -0.016   1.358   0.009  0.00  0.00    +0.001 A 
ATOM      2  C   LIG    1        1.168   2.090   0.002  0.00  0.00    +0.001 A 
ATOM      3  C   LIG    1        2.378   1.463  -0.013  0.00  0.00    +0.010 A 
ATOM      4  C   LIG    1        2.434   0.061  -0.021  0.00  0.00    +0.006 A 
ATOM      5  C   LIG    1        1.230  -0.684  -0.013  0.00  0.00    -0.016 A 
ATOM      6  C   LIG    1        1.276  -2.094  -0.022  0.00  0.00    +0.009 A 
ATOM      7  C   LIG    1        2.468  -2.738  -0.037  0.00  0.00    +0.014 A 
ATOM      8  C   LIG    1        3.675  -2.018  -0.045  0.00  0.00    +0.046 A 
ATOM      9  C   LIG    1        4.971  -2.720  -0.062  0.00  0.00    +0.203 A 
ATOM     10  O   LIG    1        5.033  -3.937  -0.069  0.00  0.00    -0.286 OA
ATOM     11  C   LIG    1        6.187  -1.890  -0.069  0.00  0.00    +0.122 A 
ATOM     12  C   LIG    1        6.052  -0.514  -0.059  0.00  0.00    +0.102 A 
ATOM     13  N   LIG    1        4.853   0.080  -0.044  0.00  0.00    -0.359 N 
ATOM     14  H   LIG    1        4.816   1.049  -0.038  0.00  0.00    +0.165 HD
ATOM     15  C   LIG    1        3.673  -0.620  -0.037  0.00  0.00    +0.058 A 
ATOM     16  C   LIG    1        0.002  -0.004   0.002  0.00  0.00    +0.008 A 
ENDROOT
BRANCH  11  17
ATOM     17  C   LIG    1        7.516  -2.511  -0.086  0.00  0.00    +0.342 C 
ATOM     18  O   LIG    1        8.520  -1.810  -0.091  0.00  0.00    -0.245 OA
BRANCH  17  19
ATOM     19  O   LIG    1        7.622  -3.730  -0.094  0.00  0.00    -0.477 OA
ATOM     20  H   LIG    1        6.854  -4.267  -0.091  0.00  0.00    +0.295 HD
ENDBRANCH  17  19
ENDBRANCH  11  17
TORSDOF 2
