REMARK  Name = ZINC40157567
REMARK                            x       y       z     vdW  Elec       q    Type
REMARK                         _______ _______ _______ _____ _____    ______ ____
ROOT
ATOM      1  C   LIG    1        3.698  -0.689  -0.044  0.00  0.00    +0.000 A 
ATOM      2  C   LIG    1        3.732  -2.088  -0.057  0.00  0.00    +0.013 A 
ATOM      3  C   LIG    1        4.962  -2.715  -0.072  0.00  0.00    +0.044 A 
ATOM      4  C   LIG    1        6.119  -1.942  -0.072  0.00  0.00    +0.125 A 
ATOM      5  N   LIG    1        6.052  -0.620  -0.060  0.00  0.00    -0.240 NA
ATOM      6  C   LIG    1        4.898   0.016  -0.051  0.00  0.00    +0.121 A 
ENDROOT
BRANCH   1  10
ATOM      7  C   LIG    1       -0.017   1.378  -0.003  0.00  0.00    +0.000 A 
ATOM      8  C   LIG    1        1.168   2.091  -0.009  0.00  0.00    +0.001 A 
ATOM      9  C   LIG    1        2.377   1.425  -0.022  0.00  0.00    +0.008 A 
ATOM     10  C   LIG    1        2.402   0.032  -0.029  0.00  0.00    -0.016 A 
ATOM     11  C   LIG    1        1.205  -0.681  -0.023  0.00  0.00    +0.008 A 
ATOM     12  C   LIG    1        0.002  -0.005  -0.010  0.00  0.00    +0.001 A 
ENDBRANCH   1  10
BRANCH   4  13
ATOM     13  N   LIG    1        7.363  -2.567  -0.086  0.00  0.00    -0.266 N 
ATOM     14  H   LIG    1        7.421  -3.533  -0.021  0.00  0.00    +0.157 HD
ATOM     15  C   LIG    1        8.486  -1.830  -0.190  0.00  0.00    +0.249 C 
ATOM     16  O   LIG    1        8.420  -0.616  -0.179  0.00  0.00    -0.270 OA
BRANCH  15  17
ATOM     17  C   LIG    1        9.799  -2.497  -0.319  0.00  0.00    +0.038 A 
ATOM     18  C   LIG    1        9.878  -3.891  -0.338  0.00  0.00    +0.013 A 
ATOM     19  C   LIG    1       11.106  -4.508  -0.458  0.00  0.00    +0.002 A 
ATOM     20  C   LIG    1       12.258  -3.750  -0.558  0.00  0.00    +0.020 A 
ATOM     21  C   LIG    1       12.188  -2.367  -0.539  0.00  0.00    +0.042 A 
ATOM     22 CL   LIG    1       13.640  -1.424  -0.665  0.00  0.00    -0.084 Cl
ATOM     23  C   LIG    1       10.964  -1.737  -0.426  0.00  0.00    +0.033 A 
ENDBRANCH  15  17
ENDBRANCH   4  13
TORSDOF 3
