REMARK  Name = ZINC27092697
REMARK                            x       y       z     vdW  Elec       q    Type
REMARK                         _______ _______ _______ _____ _____    ______ ____
ROOT
ATOM      1  C   LIG    1        0.742  -0.511   1.242  0.00  0.00    +0.127 C 
ATOM      2  C   LIG    1        0.846  -2.047   1.217  0.00  0.00    +0.155 C 
ATOM      3  N   LIG    1        0.115  -2.460   2.427  0.00  0.00    -0.275 N 
ATOM      4  C   LIG    1       -0.350  -1.327   3.068  0.00  0.00    +0.162 A 
ATOM      5  C   LIG    1       -1.117  -1.518   4.319  0.00  0.00    +0.149 A 
ATOM      6  C   LIG    1       -1.328  -2.809   4.776  0.00  0.00    +0.146 A 
ATOM      7  N   LIG    1       -0.822  -3.875   4.063  0.00  0.00    -0.281 N 
ATOM      8  C   LIG    1       -1.046  -5.238   4.550  0.00  0.00    +0.155 C 
ATOM      9  N   LIG    1       -2.050  -2.700   5.926  0.00  0.00    -0.324 N 
ATOM     10  C   LIG    1       -2.265  -1.363   6.147  0.00  0.00    +0.140 A 
ATOM     11  H   LIG    1       -2.356  -3.431   6.484  0.00  0.00    +0.169 HD
ATOM     12  N   LIG    1       -1.704  -0.672   5.182  0.00  0.00    -0.222 NA
ATOM     13  C   LIG    1       -0.128  -3.685   2.930  0.00  0.00    +0.332 A 
ATOM     14  O   LIG    1        0.298  -4.656   2.335  0.00  0.00    -0.246 OA
ATOM     15  N   LIG    1       -0.029  -0.219   2.454  0.00  0.00    -0.260 NA
ENDROOT
BRANCH  10  16
ATOM     16  C   LIG    1       -3.009  -0.791   7.289  0.00  0.00    +0.017 A 
ATOM     17  C   LIG    1       -3.558  -1.631   8.259  0.00  0.00    +0.011 A 
ATOM     18  C   LIG    1       -4.251  -1.092   9.323  0.00  0.00    +0.001 A 
ATOM     19  C   LIG    1       -4.404   0.279   9.429  0.00  0.00    +0.000 A 
ATOM     20  C   LIG    1       -3.862   1.118   8.471  0.00  0.00    +0.001 A 
ATOM     21  C   LIG    1       -3.161   0.591   7.406  0.00  0.00    +0.011 A 
ENDBRANCH  10  16
BRANCH   1  23
ATOM     22  C   LIG    1       -0.019   1.526   0.010  0.00  0.00    +0.006 C 
ATOM     23  C   LIG    1        0.002  -0.004   0.002  0.00  0.00    +0.025 C 
ENDBRANCH   1  23
TORSDOF 2
