REMARK  Name = ZINC32547730
REMARK                            x       y       z     vdW  Elec       q    Type
REMARK                         _______ _______ _______ _____ _____    ______ ____
ROOT
ATOM      1  C   LIG    1        4.919   0.421  -0.042  0.00  0.00    -0.012 A 
ATOM      2  C   LIG    1        4.762   1.806  -0.033  0.00  0.00    +0.010 A 
ATOM      3  C   LIG    1        3.499   2.360  -0.018  0.00  0.00    +0.024 A 
ATOM      4  C   LIG    1        2.379   1.538  -0.013  0.00  0.00    +0.039 A 
ATOM      5  C   LIG    1        2.540   0.156  -0.021  0.00  0.00    -0.008 A 
ATOM      6  C   LIG    1        1.298  -0.704  -0.014  0.00  0.00    +0.146 C 
ATOM      7  N   LIG    1        0.002  -0.004   0.002  0.00  0.00    -0.284 N 
ATOM      8  C   LIG    1       -1.251  -0.763   0.009  0.00  0.00    +0.134 C 
ATOM      9  C   LIG    1       -0.016   1.341   0.009  0.00  0.00    +0.307 C 
ATOM     10  O   LIG    1       -1.093   1.906   0.018  0.00  0.00    -0.252 OA
ATOM     11  N   LIG    1        1.096   2.087   0.003  0.00  0.00    -0.269 N 
ATOM     12  H   LIG    1        0.965   3.179   0.010  0.00  0.00    +0.156 HD
ATOM     13  C   LIG    1        3.795  -0.405  -0.036  0.00  0.00    +0.015 A 
ENDROOT
BRANCH   1  16
ATOM     14  C   LIG    1        7.143   0.639  -2.394  0.00  0.00    +0.070 C 
ATOM     15  C   LIG    1        7.265  -0.087  -1.080  0.00  0.00    +0.088 A 
ATOM     16  C   LIG    1        6.279  -0.174  -0.057  0.00  0.00    +0.047 A 
ATOM     17  C   LIG    1        6.882  -0.928   0.909  0.00  0.00    +0.142 A 
ATOM     18  C   LIG    1        6.294  -1.335   2.236  0.00  0.00    +0.090 C 
ATOM     19  O   LIG    1        8.100  -1.235   0.441  0.00  0.00    -0.359 OA
ATOM     20  N   LIG    1        8.293  -0.761  -0.653  0.00  0.00    -0.083 NA
ENDBRANCH   1  16
TORSDOF 1
