REMARK  Name = ZINC56897587
REMARK                            x       y       z     vdW  Elec       q    Type
REMARK                         _______ _______ _______ _____ _____    ______ ____
ROOT
ATOM      1  C   LIG    1       -0.207   1.751   0.213  0.00  0.00    +0.019 C 
ATOM      2  C   LIG    1       -0.078   0.231   0.096  0.00  0.00    +0.028 C 
ATOM      3  C   LIG    1        0.711  -0.194  -1.163  0.00  0.00    +0.030 C 
ATOM      4  C   LIG    1        2.124  -0.492  -0.601  0.00  0.00    +0.087 C 
ATOM      5  N   LIG    1        1.840  -1.128   0.711  0.00  0.00    -0.287 NA
ATOM      6  C   LIG    1        3.010  -1.053   1.596  0.00  0.00    +0.106 C 
ATOM      7  C   LIG    1       -1.422  -0.460   0.117  0.00  0.00    -0.014 A 
ATOM      8  C   LIG    1       -2.518  -0.331  -0.714  0.00  0.00    +0.052 A 
ATOM      9  C   LIG    1       -3.658  -1.087  -0.486  0.00  0.00    +0.134 A 
ATOM     10  C   LIG    1       -3.693  -1.973   0.580  0.00  0.00    +0.048 A 
ATOM     11  C   LIG    1       -2.599  -2.103   1.409  0.00  0.00    +0.027 A 
ATOM     12  C   LIG    1       -1.449  -1.345   1.183  0.00  0.00    +0.035 A 
ATOM     13  N   LIG    1       -0.247  -1.329   1.897  0.00  0.00    -0.316 N 
ATOM     14  C   LIG    1        0.032  -2.136   3.087  0.00  0.00    +0.131 C 
ATOM     15  C   LIG    1        0.694  -0.388   1.283  0.00  0.00    +0.154 C 
ENDROOT
BRANCH   9  16
ATOM     16  O   LIG    1       -4.738  -0.959  -1.303  0.00  0.00    -0.411 OA
BRANCH  16  17
ATOM     17  C   LIG    1       -4.639  -1.434  -2.560  0.00  0.00    +0.408 C 
ATOM     18  N   LIG    1       -5.637  -1.224  -3.440  0.00  0.00    -0.262 N 
ATOM     19  C   LIG    1       -5.562  -1.734  -4.819  0.00  0.00    +0.116 C 
ATOM     20  C   LIG    1       -6.678  -2.763  -5.000  0.00  0.00    +0.054 C 
ATOM     21  C   LIG    1       -7.987  -2.231  -4.478  0.00  0.00    -0.041 A 
ATOM     22  C   LIG    1       -9.154  -2.831  -4.935  0.00  0.00    +0.004 A 
ATOM     23  C   LIG    1      -10.386  -2.399  -4.490  0.00  0.00    +0.000 A 
ATOM     24  C   LIG    1      -10.463  -1.362  -3.579  0.00  0.00    +0.000 A 
ATOM     25  C   LIG    1       -9.306  -0.762  -3.126  0.00  0.00    +0.005 A 
ATOM     26  C   LIG    1       -8.065  -1.192  -3.578  0.00  0.00    -0.027 A 
ATOM     27  C   LIG    1       -6.845  -0.482  -3.061  0.00  0.00    +0.146 C 
ATOM     28  O   LIG    1       -3.649  -2.052  -2.899  0.00  0.00    -0.226 OA
ENDBRANCH  16  17
ENDBRANCH   9  16
TORSDOF 2
