REMARK  Name = ZINC13819930
REMARK                            x       y       z     vdW  Elec       q    Type
REMARK                         _______ _______ _______ _____ _____    ______ ____
ROOT
ATOM      1  C   LIG    1        3.672   2.182  -0.022  0.00  0.00    +0.137 C 
ATOM      2  C   LIG    1        3.996   2.713   1.388  0.00  0.00    +0.087 C 
ATOM      3  C   LIG    1        4.011   4.218   1.212  0.00  0.00    +0.072 C 
ATOM      4  N   LIG    1        3.758   4.511  -0.017  0.00  0.00    -0.181 NA
ATOM      5  N   LIG    1        3.542   3.403  -0.834  0.00  0.00    -0.185 N 
ATOM      6  C   LIG    1        3.261   3.442  -2.151  0.00  0.00    +0.232 C 
ATOM      7  C   LIG    1        3.157   4.768  -2.860  0.00  0.00    +0.111 C 
ATOM      8  O   LIG    1        3.091   2.411  -2.766  0.00  0.00    -0.274 OA
ENDROOT
BRANCH   1  14
ATOM      9  C   LIG    1        1.229  -2.186  -0.022  0.00  0.00    +0.044 C 
ATOM     10  C   LIG    1        1.209  -0.679  -0.014  0.00  0.00    -0.050 A 
ATOM     11  C   LIG    1        0.002  -0.004   0.002  0.00  0.00    +0.003 A 
ATOM     12  C   LIG    1       -0.017   1.378   0.010  0.00  0.00    +0.001 A 
ATOM     13  C   LIG    1        1.171   2.085   0.002  0.00  0.00    +0.005 A 
ATOM     14  C   LIG    1        2.377   1.411  -0.014  0.00  0.00    -0.024 A 
ATOM     15  C   LIG    1        2.396   0.028  -0.021  0.00  0.00    +0.009 A 
ENDBRANCH   1  14
BRANCH   3  16
ATOM     16  C   LIG    1        4.276   5.197   2.282  0.00  0.00    +0.039 A 
ATOM     17  C   LIG    1        4.540   4.761   3.582  0.00  0.00    +0.013 A 
ATOM     18  C   LIG    1        4.787   5.681   4.579  0.00  0.00    +0.001 A 
ATOM     19  C   LIG    1        4.774   7.036   4.296  0.00  0.00    +0.004 A 
ATOM     20  C   LIG    1        4.515   7.480   3.014  0.00  0.00    +0.046 A 
ATOM     21  C   LIG    1        4.271   6.569   1.999  0.00  0.00    +0.126 A 
BRANCH  21  22
ATOM     22  O   LIG    1        4.021   7.005   0.737  0.00  0.00    -0.506 OA
ATOM     23  H   LIG    1        3.085   7.165   0.554  0.00  0.00    +0.292 HD
ENDBRANCH  21  22
ENDBRANCH   3  16
TORSDOF 3
