REMARK  Name = ZINC49013806
REMARK                            x       y       z     vdW  Elec       q    Type
REMARK                         _______ _______ _______ _____ _____    ______ ____
ROOT
ATOM      1  C   LIG    1        0.817  -1.914  -1.305  0.00  0.00    +0.019 C 
ENDROOT
BRANCH   1   2
ATOM      2  C   LIG    1        1.602  -2.379  -2.504  0.00  0.00    -0.049 A 
ATOM      3  C   LIG    1        0.959  -2.594  -3.709  0.00  0.00    +0.004 A 
ATOM      4  C   LIG    1        1.675  -3.021  -4.809  0.00  0.00    +0.015 A 
ATOM      5  C   LIG    1        3.045  -3.233  -4.705  0.00  0.00    +0.008 A 
ATOM      6  C   LIG    1        3.688  -3.015  -3.493  0.00  0.00    +0.015 A 
ATOM      7  C   LIG    1        2.966  -2.583  -2.398  0.00  0.00    +0.004 A 
BRANCH   5   8
ATOM      8  S   LIG    1        3.963  -3.778  -6.107  0.00  0.00    -0.129 S 
ATOM      9  C   LIG    1        5.665  -3.909  -5.493  0.00  0.00    +0.090 C 
ENDBRANCH   5   8
ENDBRANCH   1   2
BRANCH   1  10
ATOM     10  C   LIG    1        0.786  -0.384  -1.277  0.00  0.00    -0.068 C 
BRANCH  10  11
ATOM     11  N   LIG    1        0.044   0.112  -2.444  0.00  0.00    +0.379 N 
ATOM     12  H   LIG    1       -0.922  -0.168  -2.372  0.00  0.00    -0.086 HD
ATOM     13  H   LIG    1        0.445  -0.274  -3.286  0.00  0.00    -0.086 HD
ATOM     14  C   LIG    1        0.128   1.578  -2.490  0.00  0.00    -0.100 C 
ENDBRANCH  10  11
BRANCH  10  16
ATOM     15  C   LIG    1        0.945  -0.306   1.215  0.00  0.00    +0.002 C 
ATOM     16  C   LIG    1        0.097   0.089   0.004  0.00  0.00    -0.019 C 
ENDBRANCH  10  16
ENDBRANCH   1  10
TORSDOF 5
