REMARK  Name = ZINC13746018
REMARK                            x       y       z     vdW  Elec       q    Type
REMARK                         _______ _______ _______ _____ _____    ______ ____
ROOT
ATOM      1  C   LIG    1       -0.018   1.461   0.010  0.00  0.00    +0.156 C 
ATOM      2  N   LIG    1        0.002  -0.004   0.002  0.00  0.00    -0.243 N 
ENDROOT
BRANCH   2   3
ATOM      3  C   LIG    1        0.023  -0.706   1.203  0.00  0.00    +0.053 A 
ATOM      4  C   LIG    1        0.036  -2.101   1.217  0.00  0.00    +0.044 A 
ATOM      5  C   LIG    1        0.063  -2.759   2.428  0.00  0.00    +0.112 A 
ATOM      6  N   LIG    1        0.064  -2.086   3.564  0.00  0.00    -0.263 NA
ATOM      7  C   LIG    1        0.046  -0.767   3.593  0.00  0.00    +0.112 A 
ATOM      8  C   LIG    1        0.025  -0.034   2.425  0.00  0.00    +0.044 A 
ENDBRANCH   2   3
BRANCH   2   9
ATOM      9  N   LIG    1        0.000  -0.698  -1.215  0.00  0.00    -0.267 N 
ATOM     10  C   LIG    1        1.105  -1.072  -1.920  0.00  0.00    +0.109 A 
ATOM     11  C   LIG    1        0.705  -1.722  -3.034  0.00  0.00    +0.022 A 
ATOM     12  C   LIG    1       -0.699  -1.748  -3.033  0.00  0.00    +0.029 A 
ATOM     13  C   LIG    1       -1.116  -1.110  -1.901  0.00  0.00    +0.061 A 
BRANCH  13  14
ATOM     14  C   LIG    1       -2.513  -0.901  -1.488  0.00  0.00    +0.020 C 
ATOM     15  C   LIG    1       -2.783  -0.261  -0.355  0.00  0.00    +0.010 C 
ENDBRANCH  13  14
ENDBRANCH   2   9
TORSDOF 3
