REMARK  Name = ZINC28879084
REMARK                            x       y       z     vdW  Elec       q    Type
REMARK                         _______ _______ _______ _____ _____    ______ ____
ROOT
ATOM      1  C   LIG    1       -1.109   6.658   1.270  0.00  0.00    +0.041 A 
ATOM      2  C   LIG    1       -1.634   5.603   2.146  0.00  0.00    +0.088 A 
ATOM      3  C   LIG    1       -1.641   4.201   2.122  0.00  0.00    +0.134 A 
ATOM      4  N   LIG    1       -2.238   3.557   3.121  0.00  0.00    -0.220 NA
ATOM      5  C   LIG    1       -2.800   4.219   4.115  0.00  0.00    +0.227 A 
ATOM      6  N   LIG    1       -2.816   5.534   4.175  0.00  0.00    -0.200 NA
ATOM      7  C   LIG    1       -2.249   6.267   3.220  0.00  0.00    +0.233 A 
ATOM      8  O   LIG    1       -2.112   7.588   3.017  0.00  0.00    -0.436 OA
ATOM      9  C   LIG    1       -1.443   7.840   1.873  0.00  0.00    +0.146 A 
ENDROOT
BRANCH   1  13
ATOM     10  C   LIG    1        1.007   6.148  -2.379  0.00  0.00    +0.000 A 
ATOM     11  C   LIG    1       -0.260   6.703  -2.390  0.00  0.00    +0.001 A 
ATOM     12  C   LIG    1       -0.952   6.871  -1.208  0.00  0.00    +0.008 A 
ATOM     13  C   LIG    1       -0.372   6.480  -0.001  0.00  0.00    -0.014 A 
ATOM     14  C   LIG    1        0.909   5.927   0.003  0.00  0.00    +0.008 A 
ATOM     15  C   LIG    1        1.589   5.759  -1.186  0.00  0.00    +0.001 A 
ENDBRANCH   1  13
BRANCH   9  16
ATOM     16  C   LIG    1       -1.120   9.182   1.353  0.00  0.00    +0.018 A 
ATOM     17  C   LIG    1        0.172   9.471   0.909  0.00  0.00    +0.011 A 
ATOM     18  C   LIG    1        0.465  10.726   0.419  0.00  0.00    +0.001 A 
ATOM     19  C   LIG    1       -0.515  11.702   0.378  0.00  0.00    +0.000 A 
ATOM     20  C   LIG    1       -1.796  11.425   0.822  0.00  0.00    +0.001 A 
ATOM     21  C   LIG    1       -2.105  10.172   1.309  0.00  0.00    +0.011 A 
ENDBRANCH   9  16
BRANCH   3  22
ATOM     22  N   LIG    1       -1.048   3.507   1.083  0.00  0.00    -0.326 N 
ATOM     23  H   LIG    1       -0.562   4.054   0.262  0.00  0.00    +0.148 HD
BRANCH  22  24
ATOM     24  C   LIG    1       -1.066   2.042   1.077  0.00  0.00    +0.134 C 
BRANCH  24  25
ATOM     25  C   LIG    1       -0.347   1.528  -0.172  0.00  0.00    +0.135 C 
ATOM     26  C   LIG    1       -0.462  -0.010  -0.264  0.00  0.00    +0.035 C 
ATOM     27  C   LIG    1        0.908  -0.456  -0.823  0.00  0.00    +0.031 C 
ATOM     28  C   LIG    1        1.688   0.865  -1.003  0.00  0.00    +0.160 C 
ATOM     29  O   LIG    1        1.071   1.787  -0.078  0.00  0.00    -0.375 OA
ENDBRANCH  24  25
ENDBRANCH  22  24
ENDBRANCH   3  22
TORSDOF 5
