REMARK  Name = ZINC18193448
REMARK                            x       y       z     vdW  Elec       q    Type
REMARK                         _______ _______ _______ _____ _____    ______ ____
ROOT
ATOM      1  C   LIG    1        4.978   4.750  -3.964  0.00  0.00    +0.125 C 
ENDROOT
BRANCH   1   2
ATOM      2  C   LIG    1        4.448   6.021  -4.574  0.00  0.00    +0.062 A 
ATOM      3  C   LIG    1        3.325   5.992  -5.333  0.00  0.00    +0.074 A 
ATOM      4  S   LIG    1        3.176   7.719  -5.774  0.00  0.00    -0.038 S 
ATOM      5  C   LIG    1        4.625   8.295  -4.899  0.00  0.00    +0.272 A 
ATOM      6  N   LIG    1        5.072   7.162  -4.366  0.00  0.00    -0.211 NA
BRANCH   5   7
ATOM      7  N   LIG    1        5.131   9.553  -4.801  0.00  0.00    -0.045 NA
ATOM      8  C   LIG    1        6.286   9.753  -4.202  0.00  0.00    +0.384 C 
BRANCH   8   9
ATOM      9  N   LIG    1        6.724  11.031  -3.968  0.00  0.00    -0.289 N 
ATOM     10  H   LIG    1        7.575  11.178  -3.526  0.00  0.00    +0.255 HD
ATOM     11  H   LIG    1        6.183  11.787  -4.245  0.00  0.00    +0.255 HD
ENDBRANCH   8   9
BRANCH   8  12
ATOM     12  N   LIG    1        7.050   8.684  -3.812  0.00  0.00    -0.289 N 
ATOM     13  H   LIG    1        7.853   8.828  -3.288  0.00  0.00    +0.255 HD
ATOM     14  H   LIG    1        6.786   7.784  -4.059  0.00  0.00    +0.255 HD
ENDBRANCH   8  12
ENDBRANCH   5   7
ENDBRANCH   1   2
BRANCH   1  15
ATOM     15  S   LIG    1        4.235   4.509  -2.327  0.00  0.00    -0.151 S 
BRANCH  15  16
ATOM     16  C   LIG    1        4.967   2.958  -1.736  0.00  0.00    +0.106 C 
BRANCH  16  17
ATOM     17  C   LIG    1        4.418   2.632  -0.345  0.00  0.00    +0.206 C 
BRANCH  17  18
ATOM     18  N   LIG    1        5.010   1.380   0.132  0.00  0.00    -0.274 N 
ATOM     19  H   LIG    1        5.698   0.938  -0.391  0.00  0.00    +0.258 HD
BRANCH  18  20
ATOM     20  C   LIG    1        4.592   0.833   1.312  0.00  0.00    +0.397 C 
ATOM     21  N   LIG    1        5.051  -0.346   1.693  0.00  0.00    +0.010 NA
BRANCH  20  23
ATOM     22  C   LIG    1        3.351   0.984   3.421  0.00  0.00    +0.239 C 
ATOM     23  N   LIG    1        3.699   1.505   2.098  0.00  0.00    -0.278 N 
ATOM     24  H   LIG    1        3.296   2.328   1.779  0.00  0.00    +0.258 HD
ENDBRANCH  20  23
BRANCH  21  25
ATOM     25  C   LIG    1        4.534  -0.952   2.789  0.00  0.00    +0.295 C 
ATOM     26  N   LIG    1        4.100  -1.461   3.708  0.00  0.00    -0.151 NA
ENDBRANCH  21  25
ENDBRANCH  18  20
ENDBRANCH  17  18
ENDBRANCH  16  17
ENDBRANCH  15  16
ENDBRANCH   1  15
TORSDOF 11
