REMARK  Name = ZINC45256631
REMARK                            x       y       z     vdW  Elec       q    Type
REMARK                         _______ _______ _______ _____ _____    ______ ____
ROOT
ATOM      1  C   LIG    1        2.182  -0.139   1.072  0.00  0.00    -0.022 C 
ATOM      2  C   LIG    1        2.943  -0.789  -0.086  0.00  0.00    -0.007 C 
ENDROOT
BRANCH   1   3
ATOM      3  C   LIG    1        2.847  -0.499   2.375  0.00  0.00    +0.053 A 
ATOM      4  C   LIG    1        3.929   0.172   2.953  0.00  0.00    +0.090 A 
ATOM      5  C   LIG    1        4.234  -0.455   4.120  0.00  0.00    +0.218 A 
ATOM      6  N   LIG    1        3.366  -1.491   4.267  0.00  0.00    -0.200 N 
ATOM      7  N   LIG    1        2.507  -1.489   3.160  0.00  0.00    -0.170 NA
BRANCH   6   8
ATOM      8  C   LIG    1        3.333  -2.397   5.337  0.00  0.00    +0.069 A 
ATOM      9  C   LIG    1        3.512  -1.944   6.637  0.00  0.00    +0.029 A 
ATOM     10  C   LIG    1        3.479  -2.837   7.689  0.00  0.00    +0.017 A 
ATOM     11  C   LIG    1        3.267  -4.183   7.448  0.00  0.00    +0.018 A 
ATOM     12 BR   LIG    1        3.223  -5.405   8.891  0.00  0.00    -0.050 Br
ATOM     13  C   LIG    1        3.088  -4.637   6.154  0.00  0.00    +0.017 A 
ATOM     14  C   LIG    1        3.115  -3.747   5.098  0.00  0.00    +0.029 A 
ENDBRANCH   6   8
BRANCH   5  15
ATOM     15  O   LIG    1        5.225  -0.111   4.982  0.00  0.00    -0.480 OA
ATOM     16  C   LIG    1        6.098   0.946   4.577  0.00  0.00    +0.279 C 
ENDBRANCH   5  15
ENDBRANCH   1   3
BRANCH   1  17
ATOM     17  N   LIG    1        0.795  -0.624   1.080  0.00  0.00    +0.389 N 
ATOM     18  H   LIG    1        0.792  -1.633   1.112  0.00  0.00    -0.084 HD
ATOM     19  H   LIG    1        0.316  -0.260   1.890  0.00  0.00    -0.084 HD
BRANCH  17  21
ATOM     20  C   LIG    1        0.006   1.356  -0.127  0.00  0.00    -0.009 C 
ATOM     21  C   LIG    1        0.111  -0.171  -0.139  0.00  0.00    -0.043 C 
BRANCH  21  22
ATOM     22  C   LIG    1       -1.271  -0.768  -0.191  0.00  0.00    -0.060 A 
ATOM     23  C   LIG    1       -2.029  -0.859   0.962  0.00  0.00    +0.002 A 
ATOM     24  C   LIG    1       -3.297  -1.407   0.916  0.00  0.00    +0.002 A 
ATOM     25  C   LIG    1       -3.808  -1.866  -0.284  0.00  0.00    +0.020 A 
ATOM     26  C   LIG    1       -3.050  -1.776  -1.438  0.00  0.00    +0.041 A 
ATOM     27 CL   LIG    1       -3.691  -2.352  -2.945  0.00  0.00    -0.084 Cl
ATOM     28  C   LIG    1       -1.783  -1.221  -1.391  0.00  0.00    +0.022 A 
ENDBRANCH  21  22
ENDBRANCH  17  21
ENDBRANCH   1  17
TORSDOF 6
