REMARK  Name = ZINC18098320
REMARK                            x       y       z     vdW  Elec       q    Type
REMARK                         _______ _______ _______ _____ _____    ______ ____
ROOT
ATOM      1  C   LIG    1       14.010   2.119   4.460  0.00  0.00    +0.003 C 
ENDROOT
BRANCH   1   2
ATOM      2  C   LIG    1       14.717   1.804   3.140  0.00  0.00    +0.003 C 
BRANCH   2   3
ATOM      3  C   LIG    1       15.047   3.110   2.415  0.00  0.00    +0.037 C 
BRANCH   3   4
ATOM      4  C   LIG    1       15.754   2.795   1.095  0.00  0.00    +0.196 C 
BRANCH   4   5
ATOM      5  N   LIG    1       16.070   4.045   0.400  0.00  0.00    -0.276 N 
ATOM      6  H   LIG    1       15.828   4.896   0.798  0.00  0.00    +0.258 HD
BRANCH   5   7
ATOM      7  C   LIG    1       16.711   4.013  -0.816  0.00  0.00    +0.388 C 
ATOM      8  N   LIG    1       17.037   2.871  -1.350  0.00  0.00    -0.129 NA
ATOM      9  H   LIG    1       17.572   2.849  -2.159  0.00  0.00    +0.306 HD
BRANCH   7  10
ATOM     10  N   LIG    1       17.009   5.190  -1.470  0.00  0.00    -0.186 N 
ATOM     11  H   LIG    1       17.018   6.028  -0.981  0.00  0.00    +0.271 HD
BRANCH  10  12
ATOM     12  C   LIG    1       17.294   5.176  -2.817  0.00  0.00    +0.394 C 
ATOM     13  N   LIG    1       17.676   6.278  -3.418  0.00  0.00    -0.073 NA
BRANCH  13  14
ATOM     14  C   LIG    1       17.650   7.471  -2.744  0.00  0.00    +0.142 A 
ATOM     15  C   LIG    1       16.469   8.211  -2.675  0.00  0.00    +0.047 A 
ATOM     16  C   LIG    1       16.449   9.411  -1.995  0.00  0.00    +0.023 A 
ATOM     17  C   LIG    1       17.597   9.881  -1.381  0.00  0.00    +0.041 A 
ATOM     18 CL   LIG    1       17.564  11.392  -0.526  0.00  0.00    -0.084 Cl
ATOM     19  C   LIG    1       18.772   9.151  -1.446  0.00  0.00    +0.023 A 
ATOM     20  C   LIG    1       18.803   7.947  -2.119  0.00  0.00    +0.047 A 
ENDBRANCH  13  14
BRANCH  12  21
ATOM     21  N   LIG    1       17.177   4.010  -3.531  0.00  0.00    -0.288 N 
ATOM     22  H   LIG    1       17.697   3.883  -4.341  0.00  0.00    +0.255 HD
ATOM     23  H   LIG    1       16.576   3.312  -3.226  0.00  0.00    +0.255 HD
ENDBRANCH  12  21
ENDBRANCH  10  12
ENDBRANCH   7  10
ENDBRANCH   5   7
ENDBRANCH   4   5
ENDBRANCH   3   4
ENDBRANCH   2   3
ENDBRANCH   1   2
BRANCH   1  24
ATOM     24  C   LIG    1       13.679   0.813   5.186  0.00  0.00    +0.037 C 
BRANCH  24  25
ATOM     25  C   LIG    1       12.973   1.128   6.506  0.00  0.00    +0.196 C 
BRANCH  25  26
ATOM     26  N   LIG    1       12.656  -0.122   7.201  0.00  0.00    -0.276 N 
ATOM     27  H   LIG    1       12.899  -0.973   6.803  0.00  0.00    +0.258 HD
BRANCH  26  29
ATOM     28  N   LIG    1       11.826  -1.208   9.084  0.00  0.00    -0.003 NA
ATOM     29  C   LIG    1       12.019  -0.090   8.410  0.00  0.00    +0.390 C 
BRANCH  28  30
ATOM     30  C   LIG    1       12.348  -2.366   8.632  0.00  0.00    +0.429 C 
ATOM     31  N   LIG    1       13.644  -2.487   8.484  0.00  0.00    -0.126 NA
ATOM     32  H   LIG    1       14.026  -3.341   8.230  0.00  0.00    +0.306 HD
BRANCH  30  33
ATOM     33  N   LIG    1       11.517  -3.426   8.326  0.00  0.00    -0.241 N 
ATOM     34  H   LIG    1       11.882  -4.229   7.923  0.00  0.00    +0.265 HD
BRANCH  33  36
ATOM     35  C   LIG    1        9.231  -3.960   7.756  0.00  0.00    +0.043 A 
ATOM     36  C   LIG    1       10.147  -3.341   8.597  0.00  0.00    +0.100 A 
ATOM     37  C   LIG    1        9.700  -2.639   9.709  0.00  0.00    +0.043 A 
ATOM     38  C   LIG    1        8.347  -2.557   9.975  0.00  0.00    +0.023 A 
ATOM     39  C   LIG    1        7.437  -3.175   9.135  0.00  0.00    +0.041 A 
ATOM     40 CL   LIG    1        5.737  -3.071   9.473  0.00  0.00    -0.084 Cl
ATOM     41  C   LIG    1        7.880  -3.875   8.027  0.00  0.00    +0.023 A 
ENDBRANCH  33  36
ENDBRANCH  30  33
ENDBRANCH  28  30
BRANCH  29  42
ATOM     42  N   LIG    1       11.582   1.100   8.920  0.00  0.00    -0.289 N 
ATOM     43  H   LIG    1       11.724   1.922   8.425  0.00  0.00    +0.255 HD
ATOM     44  H   LIG    1       11.130   1.123   9.778  0.00  0.00    +0.255 HD
ENDBRANCH  29  42
ENDBRANCH  26  29
ENDBRANCH  25  26
ENDBRANCH  24  25
ENDBRANCH   1  24
TORSDOF 17
