REMARK  Name = ZINC28641115
REMARK                            x       y       z     vdW  Elec       q    Type
REMARK                         _______ _______ _______ _____ _____    ______ ____
ROOT
ATOM      1  C   LIG    1       -2.190   5.662   0.180  0.00  0.00    +0.140 A 
ATOM      2  N   LIG    1       -2.896   6.767   0.331  0.00  0.00    -0.231 NA
ATOM      3  C   LIG    1       -2.302   7.940   0.460  0.00  0.00    +0.098 A 
ATOM      4  C   LIG    1       -0.829   7.936   0.412  0.00  0.00    +0.077 A 
ATOM      5  S   LIG    1       -0.504   6.244   0.196  0.00  0.00    -0.068 S 
ENDROOT
BRANCH   3   6
ATOM      6  C   LIG    1       -3.032   9.123   0.627  0.00  0.00    +0.092 A 
ATOM      7  C   LIG    1       -4.433   9.242   0.810  0.00  0.00    +0.141 A 
ATOM      8  N   LIG    1       -4.717  10.513   0.931  0.00  0.00    -0.235 NA
ATOM      9  C   LIG    1       -3.597  11.252   0.832  0.00  0.00    +0.138 A 
ATOM     10  C   LIG    1       -3.393  12.630   0.890  0.00  0.00    +0.048 A 
ATOM     11  C   LIG    1       -2.107  13.135   0.755  0.00  0.00    +0.025 A 
ATOM     12  C   LIG    1       -1.044  12.255   0.563  0.00  0.00    +0.058 A 
ATOM     13 CL   LIG    1        0.572  12.866   0.393  0.00  0.00    -0.082 Cl
ATOM     14  C   LIG    1       -1.275  10.911   0.511  0.00  0.00    +0.113 A 
ATOM     15  N   LIG    1       -2.532  10.419   0.643  0.00  0.00    -0.297 N 
ENDBRANCH   3   6
BRANCH   1  16
ATOM     16  S   LIG    1       -2.773   4.009  -0.001  0.00  0.00    -0.062 S 
BRANCH  16  23
ATOM     17  C   LIG    1       -1.132   3.463   2.494  0.00  0.00    +0.045 C 
ATOM     18  C   LIG    1       -0.559   2.939   1.202  0.00  0.00    -0.037 A 
ATOM     19  C   LIG    1        0.645   2.263   1.203  0.00  0.00    +0.006 A 
ATOM     20  C   LIG    1        1.168   1.777   0.019  0.00  0.00    +0.033 A 
ATOM     21  C   LIG    1        0.491   1.971  -1.172  0.00  0.00    +0.123 A 
ATOM     22  C   LIG    1       -0.710   2.651  -1.183  0.00  0.00    +0.048 A 
ATOM     23  C   LIG    1       -1.240   3.141   0.006  0.00  0.00    +0.020 A 
BRANCH  21  24
ATOM     24  N   LIG    1        1.056   1.449  -2.437  0.00  0.00    +0.006 N 
ATOM     25  O   LIG    1        2.202   0.801  -2.428  0.00  0.00    -0.130 OA
BRANCH  24  26
ATOM     26  O   LIG    1        0.412   1.633  -3.571  0.00  0.00    -0.396 OA
ATOM     27  H   LIG    1       -0.403   2.095  -3.577  0.00  0.00    +0.329 HD
ENDBRANCH  24  26
ENDBRANCH  21  24
ENDBRANCH  16  23
ENDBRANCH   1  16
TORSDOF 5
