REMARK  Name = ZINC72105280
REMARK                            x       y       z     vdW  Elec       q    Type
REMARK                         _______ _______ _______ _____ _____    ______ ____
ROOT
ATOM      1  C   LIG    1       -0.318   1.402   0.475  0.00  0.00    +0.026 C 
ATOM      2  C   LIG    1       -0.048  -0.054   0.090  0.00  0.00    +0.072 C 
ATOM      3  C   LIG    1       -1.373  -0.820   0.028  0.00  0.00    +0.126 C 
ATOM      4  N   LIG    1       -1.080  -2.244  -0.195  0.00  0.00    -0.299 N 
ATOM      5  C   LIG    1       -1.687  -2.929  -1.185  0.00  0.00    +0.215 C 
ATOM      6  O   LIG    1       -2.487  -2.371  -1.905  0.00  0.00    -0.276 OA
ATOM      7  C   LIG    1       -0.106  -2.901   0.690  0.00  0.00    +0.123 C 
ATOM      8  C   LIG    1        1.169  -2.052   0.726  0.00  0.00    +0.104 C 
ATOM      9  N   LIG    1        0.826  -0.673   1.095  0.00  0.00    -0.286 NA
ENDROOT
BRANCH   5  10
ATOM     10  C   LIG    1       -1.371  -4.387  -1.396  0.00  0.00    +0.089 C 
BRANCH  10  11
ATOM     11  C   LIG    1       -2.189  -4.920  -2.574  0.00  0.00    +0.022 C 
BRANCH  11  12
ATOM     12  C   LIG    1       -1.784  -6.343  -2.863  0.00  0.00    +0.202 C 
ATOM     13  N   LIG    1       -0.664  -6.594  -3.570  0.00  0.00    -0.294 N 
ATOM     14  C   LIG    1        0.264  -5.600  -4.119  0.00  0.00    +0.143 C 
ATOM     15  C   LIG    1        1.365  -6.345  -4.830  0.00  0.00    -0.025 A 
ATOM     16  C   LIG    1        2.481  -5.890  -5.513  0.00  0.00    +0.005 A 
ATOM     17  C   LIG    1        3.356  -6.791  -6.088  0.00  0.00    +0.000 A 
ATOM     18  C   LIG    1        3.118  -8.149  -5.982  0.00  0.00    +0.000 A 
ATOM     19  C   LIG    1        2.005  -8.603  -5.301  0.00  0.00    +0.005 A 
ATOM     20  C   LIG    1        1.128  -7.701  -4.725  0.00  0.00    -0.025 A 
ATOM     21  C   LIG    1       -0.138  -7.914  -3.933  0.00  0.00    +0.143 C 
ATOM     22  O   LIG    1       -2.465  -7.261  -2.460  0.00  0.00    -0.277 OA
ENDBRANCH  11  12
BRANCH  11  23
ATOM     23  N   LIG    1       -3.618  -4.877  -2.237  0.00  0.00    +0.386 N 
ATOM     24  H   LIG    1       -3.789  -5.448  -1.423  0.00  0.00    -0.089 HD
ATOM     25  H   LIG    1       -4.157  -5.229  -3.014  0.00  0.00    -0.089 HD
ATOM     26  H   LIG    1       -3.889  -3.925  -2.043  0.00  0.00    -0.089 HD
ENDBRANCH  11  23
ENDBRANCH  10  11
ENDBRANCH   5  10
BRANCH   9  27
ATOM     27  C   LIG    1        2.036   0.132   1.308  0.00  0.00    +0.117 C 
BRANCH  27  28
ATOM     28  C   LIG    1        3.090  -0.712   1.978  0.00  0.00    -0.026 A 
ATOM     29  C   LIG    1        2.760  -1.485   3.076  0.00  0.00    +0.008 A 
ATOM     30  C   LIG    1        3.725  -2.260   3.691  0.00  0.00    +0.038 A 
ATOM     31  C   LIG    1        5.022  -2.261   3.208  0.00  0.00    +0.123 A 
ATOM     32  F   LIG    1        5.967  -3.018   3.809  0.00  0.00    -0.205 F 
ATOM     33  C   LIG    1        5.352  -1.486   2.109  0.00  0.00    +0.038 A 
ATOM     34  C   LIG    1        4.384  -0.716   1.492  0.00  0.00    +0.008 A 
ENDBRANCH  27  28
BRANCH  27  35
ATOM     35  C   LIG    1        1.707   1.313   2.184  0.00  0.00    -0.026 A 
ATOM     36  C   LIG    1        0.823   1.167   3.237  0.00  0.00    +0.008 A 
ATOM     37  C   LIG    1        0.520   2.249   4.041  0.00  0.00    +0.038 A 
ATOM     38  C   LIG    1        1.102   3.481   3.792  0.00  0.00    +0.123 A 
ATOM     39  F   LIG    1        0.806   4.540   4.577  0.00  0.00    -0.205 F 
ATOM     40  C   LIG    1        1.987   3.626   2.737  0.00  0.00    +0.038 A 
ATOM     41  C   LIG    1        2.292   2.541   1.937  0.00  0.00    +0.008 A 
ENDBRANCH  27  35
ENDBRANCH   9  27
TORSDOF 7
