REMARK  Name = ZINC27405635
REMARK                            x       y       z     vdW  Elec       q    Type
REMARK                         _______ _______ _______ _____ _____    ______ ____
ROOT
ATOM      1  C   LIG    1        3.422   6.155  -0.774  0.00  0.00    +0.021 C 
ATOM      2  C   LIG    1        2.265   5.437  -0.747  0.00  0.00    +0.020 C 
ATOM      3  C   LIG    1        2.293   4.082  -0.377  0.00  0.00    +0.061 C 
ATOM      4  C   LIG    1        3.532   3.488  -0.039  0.00  0.00    +0.025 C 
ATOM      5  C   LIG    1        3.555   2.121   0.331  0.00  0.00    +0.062 C 
ATOM      6  C   LIG    1        2.357   1.425   0.345  0.00  0.00    +0.050 C 
ATOM      7  C   LIG    1        1.174   2.076   0.002  0.00  0.00    +0.191 C 
ATOM      8  O   LIG    1       -0.017   1.423   0.010  0.00  0.00    -0.361 OA
ATOM      9  C   LIG    1        0.002  -0.004   0.002  0.00  0.00    +0.162 C 
ATOM     10  C   LIG    1        0.959  -0.482   1.102  0.00  0.00    +0.029 C 
ATOM     11  C   LIG    1        2.375  -0.030   0.735  0.00  0.00    +0.011 C 
ATOM     12  C   LIG    1        4.704   4.254  -0.077  0.00  0.00    +0.026 C 
ATOM     13  N   LIG    1        1.173   3.353  -0.343  0.00  0.00    -0.288 NA
ATOM     14  H   LIG    1        0.209   3.814  -0.606  0.00  0.00    +0.125 HD
ATOM     15  C   LIG    1        4.640   5.567  -0.441  0.00  0.00    +0.081 C 
ATOM     16 CL   LIG    1        6.092   6.516  -0.490  0.00  0.00    -0.122 Cl
ENDROOT
BRANCH   5  17
ATOM     17  N   LIG    1        4.745   1.496   0.672  0.00  0.00    -0.327 NA
ATOM     18  H   LIG    1        5.688   2.063   0.657  0.00  0.00    +0.118 HD
ATOM     19  H   LIG    1        4.746   0.434   0.958  0.00  0.00    +0.118 HD
ENDBRANCH   5  17
TORSDOF 1
