REMARK  Name = ZINC20405017
REMARK                            x       y       z     vdW  Elec       q    Type
REMARK                         _______ _______ _______ _____ _____    ______ ____
ROOT
ATOM      1  N   LIG    1       -5.358  -3.439  -1.576  0.00  0.00    -0.174 NA
ATOM      2  C   LIG    1       -6.281  -2.445  -2.141  0.00  0.00    +0.128 C 
ATOM      3  C   LIG    1       -5.650  -1.854  -3.408  0.00  0.00    +0.123 C 
ATOM      4  N   LIG    1       -5.189  -2.958  -4.262  0.00  0.00    -0.312 N 
ATOM      5  C   LIG    1       -4.266  -3.952  -3.697  0.00  0.00    +0.123 C 
ATOM      6  C   LIG    1       -4.893  -4.540  -2.431  0.00  0.00    +0.128 C 
ENDROOT
BRANCH   4   7
ATOM      7  C   LIG    1       -5.619  -3.061  -5.580  0.00  0.00    +0.133 A 
ATOM      8  C   LIG    1       -4.892  -2.443  -6.592  0.00  0.00    +0.095 A 
ATOM      9  C   LIG    1       -5.331  -2.553  -7.899  0.00  0.00    +0.017 A 
ATOM     10  C   LIG    1       -6.487  -3.280  -8.150  0.00  0.00    +0.020 A 
ATOM     11  C   LIG    1       -7.159  -3.867  -7.098  0.00  0.00    +0.113 A 
ATOM     12  N   LIG    1       -6.714  -3.750  -5.861  0.00  0.00    -0.240 NA
BRANCH   8  13
ATOM     13  C   LIG    1       -3.643  -1.664  -6.269  0.00  0.00    +0.421 C 
ATOM     14  F   LIG    1       -2.710  -2.510  -5.659  0.00  0.00    -0.166 F 
ATOM     15  F   LIG    1       -3.959  -0.615  -5.399  0.00  0.00    -0.166 F 
ATOM     16  F   LIG    1       -3.099  -1.143  -7.449  0.00  0.00    -0.166 F 
ENDBRANCH   8  13
ENDBRANCH   4   7
BRANCH   1  17
ATOM     17  S   LIG    1       -4.846  -3.317  -0.006  0.00  0.00    +0.061 S 
ATOM     18  O   LIG    1       -5.833  -2.565   0.686  0.00  0.00    -0.153 OA
ATOM     19  O   LIG    1       -4.461  -4.624   0.398  0.00  0.00    -0.153 OA
BRANCH  17  23
ATOM     20  C   LIG    1       -1.078  -0.805  -0.018  0.00  0.00    +0.120 A 
ATOM     21  C   LIG    1       -2.317  -0.198   0.123  0.00  0.00    +0.047 A 
ATOM     22  C   LIG    1       -3.465  -0.966   0.126  0.00  0.00    +0.032 A 
ATOM     23  C   LIG    1       -3.380  -2.340  -0.011  0.00  0.00    +0.106 A 
ATOM     24  C   LIG    1       -2.146  -2.947  -0.150  0.00  0.00    +0.032 A 
ATOM     25  C   LIG    1       -0.995  -2.183  -0.160  0.00  0.00    +0.047 A 
BRANCH  20  27
ATOM     26  C   LIG    1       -0.108   1.361   0.130  0.00  0.00    +0.277 C 
ATOM     27  O   LIG    1        0.053  -0.051  -0.021  0.00  0.00    -0.495 OA
ENDBRANCH  20  27
ENDBRANCH  17  23
ENDBRANCH   1  17
TORSDOF 5
