REMARK  Name = ZINC45261468
REMARK                            x       y       z     vdW  Elec       q    Type
REMARK                         _______ _______ _______ _____ _____    ______ ____
ROOT
ATOM      1  C   LIG    1        2.122  -0.083   1.122  0.00  0.00    -0.024 C 
ENDROOT
BRANCH   1   2
ATOM      2  C   LIG    1        2.851  -0.582   2.343  0.00  0.00    +0.047 A 
ATOM      3  C   LIG    1        3.587  -1.769   2.431  0.00  0.00    +0.043 A 
ATOM      4  C   LIG    1        4.085  -1.858   3.685  0.00  0.00    +0.114 A 
ATOM      5  N   LIG    1        3.679  -0.764   4.369  0.00  0.00    -0.240 N 
ATOM      6  N   LIG    1        2.909   0.023   3.502  0.00  0.00    -0.173 NA
BRANCH   5   7
ATOM      7  C   LIG    1        3.977  -0.469   5.706  0.00  0.00    +0.065 A 
ATOM      8  C   LIG    1        4.763  -1.337   6.452  0.00  0.00    +0.028 A 
ATOM      9  C   LIG    1        5.056  -1.043   7.769  0.00  0.00    +0.002 A 
ATOM     10  C   LIG    1        4.566   0.115   8.345  0.00  0.00    +0.000 A 
ATOM     11  C   LIG    1        3.783   0.981   7.606  0.00  0.00    +0.002 A 
ATOM     12  C   LIG    1        3.492   0.696   6.286  0.00  0.00    +0.028 A 
ENDBRANCH   5   7
ENDBRANCH   1   2
BRANCH   1  13
ATOM     13  N   LIG    1        0.713  -0.491   1.192  0.00  0.00    +0.387 N 
ATOM     14  H   LIG    1        0.655  -1.497   1.230  0.00  0.00    -0.085 HD
ATOM     15  H   LIG    1        0.290  -0.099   2.020  0.00  0.00    -0.085 HD
BRANCH  13  17
ATOM     16  C   LIG    1       -0.019   1.526   0.010  0.00  0.00    -0.009 C 
ATOM     17  C   LIG    1        0.002  -0.004   0.002  0.00  0.00    -0.044 C 
BRANCH  17  18
ATOM     18  C   LIG    1       -1.412  -0.526   0.013  0.00  0.00    -0.062 A 
ATOM     19  C   LIG    1       -2.123  -0.571   1.197  0.00  0.00    +0.002 A 
ATOM     20  C   LIG    1       -3.420  -1.049   1.207  0.00  0.00    +0.000 A 
ATOM     21  C   LIG    1       -4.006  -1.482   0.032  0.00  0.00    +0.000 A 
ATOM     22  C   LIG    1       -3.295  -1.436  -1.153  0.00  0.00    +0.000 A 
ATOM     23  C   LIG    1       -2.000  -0.954  -1.163  0.00  0.00    +0.002 A 
ENDBRANCH  17  18
ENDBRANCH  13  17
ENDBRANCH   1  13
TORSDOF 5
