REMARK  Name = ZINC28089408
REMARK                            x       y       z     vdW  Elec       q    Type
REMARK                         _______ _______ _______ _____ _____    ______ ____
ROOT
ATOM      1  C   LIG    1        0.813   2.274  -0.781  0.00  0.00    +0.029 A 
ATOM      2  C   LIG    1       -0.288   1.460  -0.551  0.00  0.00    +0.020 A 
ATOM      3  C   LIG    1       -0.099   0.110  -0.234  0.00  0.00    -0.022 A 
ATOM      4  C   LIG    1        1.200  -0.413  -0.150  0.00  0.00    +0.027 A 
ATOM      5  C   LIG    1        2.288   0.400  -0.379  0.00  0.00    +0.060 A 
ATOM      6 BR   LIG    1        4.036  -0.312  -0.264  0.00  0.00    -0.046 Br
ATOM      7  C   LIG    1        2.106   1.741  -0.694  0.00  0.00    +0.139 A 
ENDROOT
BRANCH   3   8
ATOM      8  C   LIG    1       -1.256  -0.756   0.011  0.00  0.00    +0.021 C 
ATOM      9  C   LIG    1       -2.332  -0.278   0.702  0.00  0.00    +0.048 C 
ATOM     10  C   LIG    1       -3.639  -0.941   0.908  0.00  0.00    +0.028 A 
ATOM     11  C   LIG    1       -4.168  -2.163   0.506  0.00  0.00    +0.028 A 
ATOM     12  C   LIG    1       -5.465  -2.471   0.890  0.00  0.00    +0.037 A 
ATOM     13 BR   LIG    1       -6.252  -4.113   0.380  0.00  0.00    -0.049 Br
ATOM     14  C   LIG    1       -6.177  -1.559   1.651  0.00  0.00    +0.128 A 
ATOM     15  N   LIG    1       -5.650  -0.408   2.017  0.00  0.00    -0.238 NA
ATOM     16  C   LIG    1       -4.414  -0.062   1.678  0.00  0.00    +0.133 A 
ATOM     17  N   LIG    1       -3.673   1.077   1.951  0.00  0.00    -0.266 N 
ATOM     18  H   LIG    1       -4.114   1.891   2.544  0.00  0.00    +0.157 HD
ATOM     19  C   LIG    1       -2.444   1.008   1.411  0.00  0.00    +0.250 C 
ATOM     20  O   LIG    1       -1.577   1.859   1.493  0.00  0.00    -0.270 OA
ENDBRANCH   3   8
BRANCH   1  26
ATOM     21  C   LIG    1        1.008   4.190  -2.371  0.00  0.00    +0.128 A 
ATOM     22  C   LIG    1        0.819   5.527  -2.679  0.00  0.00    +0.046 A 
ATOM     23  C   LIG    1        0.261   6.381  -1.747  0.00  0.00    +0.004 A 
ATOM     24  C   LIG    1       -0.118   5.906  -0.504  0.00  0.00    +0.001 A 
ATOM     25  C   LIG    1        0.059   4.574  -0.185  0.00  0.00    +0.012 A 
ATOM     26  C   LIG    1        0.621   3.705  -1.118  0.00  0.00    +0.027 A 
BRANCH  21  28
ATOM     27  C   LIG    1        1.933   3.917  -4.544  0.00  0.00    +0.277 C 
ATOM     28  O   LIG    1        1.562   3.351  -3.285  0.00  0.00    -0.495 OA
ENDBRANCH  21  28
ENDBRANCH   1  26
BRANCH   7  29
ATOM     29  O   LIG    1        3.182   2.536  -0.918  0.00  0.00    -0.505 OA
ATOM     30  H   LIG    1        4.198   2.119  -0.850  0.00  0.00    +0.292 HD
ENDBRANCH   7  29
TORSDOF 4
