REMARK  Name = ZINC26473891
REMARK                            x       y       z     vdW  Elec       q    Type
REMARK                         _______ _______ _______ _____ _____    ______ ____
ROOT
ATOM      1  O   LIG    1       -1.202   2.048   0.019  0.00  0.00    -0.490 OA
ENDROOT
BRANCH   1   5
ATOM      2  C   LIG    1        2.396   0.030  -0.021  0.00  0.00    +0.000 A 
ATOM      3  C   LIG    1        1.208  -0.677  -0.013  0.00  0.00    +0.004 A 
ATOM      4  C   LIG    1        0.002  -0.004   0.002  0.00  0.00    +0.045 A 
ATOM      5  C   LIG    1       -0.017   1.383   0.010  0.00  0.00    +0.121 A 
ATOM      6  C   LIG    1        1.177   2.091   0.002  0.00  0.00    +0.045 A 
ATOM      7  C   LIG    1        2.380   1.413  -0.013  0.00  0.00    +0.004 A 
ENDBRANCH   1   5
BRANCH   1   8
ATOM      8  C   LIG    1       -1.145   3.475   0.026  0.00  0.00    +0.250 C 
BRANCH   8   9
ATOM      9  C   LIG    1       -2.566   4.042   0.036  0.00  0.00    +0.163 C 
BRANCH   9  10
ATOM     10  N   LIG    1       -2.508   5.506   0.044  0.00  0.00    -0.334 N 
ATOM     11  C   LIG    1       -2.476   6.312   1.150  0.00  0.00    +0.107 A 
ATOM     12  C   LIG    1       -2.422   7.582   0.705  0.00  0.00    +0.130 A 
ATOM     13  N   LIG    1       -2.430   7.553  -0.636  0.00  0.00    -0.244 NA
ATOM     14  C   LIG    1       -2.482   6.313  -1.039  0.00  0.00    +0.199 A 
ENDBRANCH   9  10
ENDBRANCH   8   9
ENDBRANCH   1   8
TORSDOF 4
