REMARK  Name = ZINC13779479
REMARK                            x       y       z     vdW  Elec       q    Type
REMARK                         _______ _______ _______ _____ _____    ______ ____
ROOT
ATOM      1  C   LIG    1        0.002  -0.004   0.002  0.00  0.00    +0.004 C 
ATOM      2  C   LIG    1       -0.019   1.534   0.011  0.00  0.00    +0.022 C 
ATOM      3  C   LIG    1        1.518   1.476  -0.004  0.00  0.00    +0.073 C 
ATOM      4  C   LIG    1        1.394   0.090   0.649  0.00  0.00    +0.022 C 
ENDROOT
BRANCH   3   5
ATOM      5  N   LIG    1        2.151   2.477   0.858  0.00  0.00    -0.315 N 
ATOM      6  H   LIG    1        1.668   2.837   1.618  0.00  0.00    +0.149 HD
ATOM      7  C   LIG    1        3.404   2.897   0.595  0.00  0.00    +0.325 C 
ATOM      8  O   LIG    1        4.008   2.447  -0.356  0.00  0.00    -0.280 OA
ENDBRANCH   3   5
TORSDOF 1
