REMARK  Name = ZINC21524927
REMARK                            x       y       z     vdW  Elec       q    Type
REMARK                         _______ _______ _______ _____ _____    ______ ____
ROOT
ATOM      1  C   LIG    1        4.429  -0.327   0.041  0.00  0.00    +0.069 A 
ATOM      2  C   LIG    1        3.061  -0.244  -0.024  0.00  0.00    +0.089 A 
ATOM      3  C   LIG    1        2.727   1.202  -0.070  0.00  0.00    +0.082 A 
ATOM      4  N   LIG    1        1.378   1.582  -0.143  0.00  0.00    -0.294 N 
ATOM      5  C   LIG    1        0.985   2.993  -0.188  0.00  0.00    +0.154 C 
ATOM      6  C   LIG    1        0.457   0.594  -0.169  0.00  0.00    +0.332 A 
ATOM      7  N   LIG    1        0.722  -0.716  -0.130  0.00  0.00    -0.263 N 
ATOM      8  C   LIG    1       -0.406  -1.650  -0.167  0.00  0.00    +0.157 C 
ATOM      9  O   LIG    1       -0.711   0.923  -0.239  0.00  0.00    -0.246 OA
ATOM     10  C   LIG    1        3.877   1.858  -0.029  0.00  0.00    +0.076 A 
ATOM     11  C   LIG    1        4.133   3.349  -0.066  0.00  0.00    +0.186 C 
ATOM     12  N   LIG    1        5.433   3.602   0.575  0.00  0.00    -0.328 N 
ATOM     13  H   LIG    1        5.567   4.485   1.216  0.00  0.00    +0.147 HD
ATOM     14  C   LIG    1        6.500   2.720   0.371  0.00  0.00    +0.052 A 
ATOM     15  C   LIG    1        7.808   3.178   0.401  0.00  0.00    +0.025 A 
ATOM     16  C   LIG    1        8.854   2.292   0.220  0.00  0.00    +0.002 A 
ATOM     17  C   LIG    1        8.604   0.948   0.011  0.00  0.00    +0.002 A 
ATOM     18  C   LIG    1        7.302   0.481  -0.029  0.00  0.00    +0.028 A 
ATOM     19  C   LIG    1        6.252   1.363   0.139  0.00  0.00    +0.068 A 
ATOM     20  C   LIG    1        1.976  -1.231  -0.056  0.00  0.00    +0.266 A 
ATOM     21  O   LIG    1        2.186  -2.429  -0.020  0.00  0.00    -0.267 OA
ATOM     22  N   LIG    1        4.917   0.943   0.051  0.00  0.00    -0.306 N 
ENDROOT
BRANCH   1  29
ATOM     23  C   LIG    1        5.320  -1.557  -2.422  0.00  0.00    +0.044 C 
ATOM     24  C   LIG    1        5.662  -2.172  -1.089  0.00  0.00    -0.041 A 
ATOM     25  C   LIG    1        6.407  -3.332  -1.034  0.00  0.00    +0.004 A 
ATOM     26  C   LIG    1        6.723  -3.897   0.189  0.00  0.00    +0.000 A 
ATOM     27  C   LIG    1        6.294  -3.304   1.364  0.00  0.00    +0.001 A 
ATOM     28  C   LIG    1        5.553  -2.142   1.324  0.00  0.00    +0.010 A 
ATOM     29  C   LIG    1        5.226  -1.568   0.092  0.00  0.00    +0.003 A 
ENDBRANCH   1  29
BRANCH  11  30
ATOM     30  C   LIG    1        4.170   3.824  -1.496  0.00  0.00    +0.131 A 
ATOM     31  C   LIG    1        5.167   3.607  -2.372  0.00  0.00    +0.047 A 
ATOM     32  C   LIG    1        4.787   4.222  -3.587  0.00  0.00    +0.045 A 
ATOM     33  C   LIG    1        3.583   4.786  -3.378  0.00  0.00    +0.102 A 
ATOM     34  C   LIG    1        2.785   5.560  -4.394  0.00  0.00    +0.086 C 
ATOM     35  O   LIG    1        3.215   4.541  -2.110  0.00  0.00    -0.463 OA
ENDBRANCH  11  30
TORSDOF 2
