REMARK  Name = ZINC45285589
REMARK                            x       y       z     vdW  Elec       q    Type
REMARK                         _______ _______ _______ _____ _____    ______ ____
ROOT
ATOM      1  C   LIG    1       -5.069  -4.168  -0.327  0.00  0.00    +0.001 C 
ENDROOT
BRANCH   1   2
ATOM      2  C   LIG    1       -3.721  -4.587  -0.916  0.00  0.00    +0.008 C 
BRANCH   2   8
ATOM      3  C   LIG    1        1.041  -4.885  -0.715  0.00  0.00    +0.124 A 
ATOM      4  C   LIG    1        1.105  -4.795  -2.095  0.00  0.00    +0.046 A 
ATOM      5  C   LIG    1       -0.023  -4.441  -2.811  0.00  0.00    +0.004 A 
ATOM      6  C   LIG    1       -1.203  -4.177  -2.146  0.00  0.00    +0.004 A 
ATOM      7  C   LIG    1       -1.271  -4.264  -0.761  0.00  0.00    -0.038 A 
ATOM      8  C   LIG    1       -2.590  -3.954  -0.103  0.00  0.00    +0.019 C 
ATOM      9  C   LIG    1       -2.626  -4.525   1.317  0.00  0.00    +0.008 C 
ATOM     10  C   LIG    1       -1.369  -4.048   2.054  0.00  0.00    +0.005 C 
ATOM     11  C   LIG    1       -0.160  -4.763   1.455  0.00  0.00    +0.039 C 
ATOM     12  C   LIG    1       -0.153  -4.627  -0.045  0.00  0.00    -0.002 A 
BRANCH   3  14
ATOM     13  C   LIG    1        3.342  -5.482  -0.757  0.00  0.00    +0.277 C 
ATOM     14  O   LIG    1        2.150  -5.232  -0.010  0.00  0.00    -0.495 OA
ENDBRANCH   3  14
ENDBRANCH   2   8
ENDBRANCH   1   2
BRANCH   1  15
ATOM     15  C   LIG    1       -6.199  -4.694  -1.214  0.00  0.00    +0.003 C 
BRANCH  15  16
ATOM     16  C   LIG    1       -7.548  -4.275  -0.625  0.00  0.00    -0.014 C 
ATOM     17  C   LIG    1       -7.752  -4.965   0.727  0.00  0.00    -0.015 C 
ATOM     18  C   LIG    1       -9.135  -4.605   1.274  0.00  0.00    -0.078 C 
ATOM     19  N   LIG    1      -10.169  -5.053   0.333  0.00  0.00    +0.382 N 
ATOM     20  H   LIG    1      -10.073  -6.045   0.176  0.00  0.00    -0.081 HD
ATOM     21  C   LIG    1      -10.023  -4.342  -0.943  0.00  0.00    -0.078 C 
ATOM     22  C   LIG    1       -8.674  -4.692  -1.575  0.00  0.00    -0.015 C 
BRANCH  19  23
ATOM     23  C   LIG    1      -11.496  -4.774   0.897  0.00  0.00    -0.069 C 
ATOM     24  C   LIG    1      -11.653  -5.522   2.223  0.00  0.00    -0.015 C 
ATOM     25  C   LIG    1      -13.036  -5.233   2.811  0.00  0.00    -0.002 C 
ATOM     26  C   LIG    1      -14.115  -5.699   1.831  0.00  0.00    -0.000 C 
ATOM     27  C   LIG    1      -13.957  -4.951   0.505  0.00  0.00    -0.002 C 
ATOM     28  C   LIG    1      -12.575  -5.241  -0.083  0.00  0.00    -0.015 C 
ENDBRANCH  19  23
ENDBRANCH  15  16
ENDBRANCH   1  15
TORSDOF 6
