REMARK  Name = ZINC00002131
REMARK                            x       y       z     vdW  Elec       q    Type
REMARK                         _______ _______ _______ _____ _____    ______ ____
ROOT
ATOM      1  C   LIG    1        3.761   1.845  -0.024  0.00  0.00    -0.033 C 
ATOM      2  C   LIG    1        4.027   2.831   1.116  0.00  0.00    -0.007 C 
ATOM      3  C   LIG    1        5.466   3.341   1.024  0.00  0.00    -0.001 C 
ATOM      4  C   LIG    1        5.673   4.045  -0.318  0.00  0.00    -0.000 C 
ATOM      5  C   LIG    1        5.407   3.060  -1.458  0.00  0.00    -0.001 C 
ATOM      6  C   LIG    1        3.968   2.550  -1.366  0.00  0.00    -0.007 C 
ENDROOT
BRANCH   1   7
ATOM      7  N   LIG    1        4.689   0.712   0.082  0.00  0.00    +0.386 N 
ATOM      8  H   LIG    1        5.634   1.058   0.159  0.00  0.00    -0.081 HD
ATOM      9  C   LIG    1        4.575  -0.126  -1.119  0.00  0.00    -0.078 C 
ATOM     10  C   LIG    1        5.598  -1.262  -1.050  0.00  0.00    -0.019 C 
ATOM     11  C   LIG    1        5.326  -2.112   0.195  0.00  0.00    -0.004 C 
ATOM     12  C   LIG    1        5.374  -1.213   1.434  0.00  0.00    -0.019 C 
ATOM     13  C   LIG    1        4.360  -0.079   1.274  0.00  0.00    -0.078 C 
ENDBRANCH   1   7
BRANCH   1  16
ATOM     14  C   LIG    1        0.010   1.348   0.416  0.00  0.00    +0.008 A 
ATOM     15  C   LIG    1        1.217   2.021   0.399  0.00  0.00    +0.010 A 
ATOM     16  C   LIG    1        2.343   1.343   0.066  0.00  0.00    -0.021 A 
ATOM     17  S   LIG    1        1.710  -0.298  -0.238  0.00  0.00    -0.103 S 
ATOM     18  C   LIG    1       -0.013   0.030   0.099  0.00  0.00    +0.045 A 
ENDBRANCH   1  16
TORSDOF 2
