REMARK  Name = ZINC14948119
REMARK                            x       y       z     vdW  Elec       q    Type
REMARK                         _______ _______ _______ _____ _____    ______ ____
ROOT
ATOM      1  C   LIG    1       -1.433  -0.534   0.013  0.00  0.00    +0.016 C 
ENDROOT
BRANCH   1   2
ATOM      2  C   LIG    1       -2.139  -0.048   1.253  0.00  0.00    +0.202 C 
ATOM      3  N   LIG    1       -1.936  -0.670   2.431  0.00  0.00    -0.293 N 
ATOM      4  C   LIG    1       -2.592  -0.232   3.659  0.00  0.00    +0.119 C 
ATOM      5  C   LIG    1       -2.858  -1.444   4.605  0.00  0.00    +0.089 C 
ATOM      6  S   LIG    1       -1.285  -2.369   4.301  0.00  0.00    -0.140 S 
ATOM      7  C   LIG    1       -1.033  -1.830   2.557  0.00  0.00    +0.177 C 
ATOM      8  O   LIG    1       -2.889   0.903   1.190  0.00  0.00    -0.277 OA
ENDBRANCH   1   2
BRANCH   1   9
ATOM      9  N   LIG    1       -2.129  -0.056  -1.195  0.00  0.00    +0.386 N 
ATOM     10  H   LIG    1       -1.614  -0.370  -2.027  0.00  0.00    -0.089 HD
ATOM     11  H   LIG    1       -2.171   0.962  -1.195  0.00  0.00    -0.089 HD
ATOM     12  H   LIG    1       -3.074  -0.435  -1.227  0.00  0.00    -0.089 HD
ENDBRANCH   1   9
BRANCH   1  13
ATOM     13  C   LIG    1        0.002  -0.004   0.002  0.00  0.00    -0.020 C 
ATOM     14  C   LIG    1       -0.019   1.526   0.010  0.00  0.00    +0.006 C 
BRANCH  13  16
ATOM     15  C   LIG    1        2.187  -0.073  -1.207  0.00  0.00    +0.004 C 
ATOM     16  C   LIG    1        0.718  -0.497  -1.257  0.00  0.00    -0.001 C 
ENDBRANCH  13  16
ENDBRANCH   1  13
TORSDOF 4
