REMARK  Name = ZINC49017024
REMARK                            x       y       z     vdW  Elec       q    Type
REMARK                         _______ _______ _______ _____ _____    ______ ____
ROOT
ATOM      1  C   LIG    1       -1.433  -0.534   0.013  0.00  0.00    +0.019 C 
ENDROOT
BRANCH   1   2
ATOM      2  C   LIG    1       -1.416  -2.035  -0.119  0.00  0.00    -0.049 A 
ATOM      3  C   LIG    1       -1.450  -2.617  -1.373  0.00  0.00    +0.004 A 
ATOM      4  C   LIG    1       -1.435  -3.992  -1.498  0.00  0.00    +0.015 A 
ATOM      5  C   LIG    1       -1.385  -4.791  -0.362  0.00  0.00    +0.008 A 
ATOM      6  C   LIG    1       -1.350  -4.202   0.897  0.00  0.00    +0.015 A 
ATOM      7  C   LIG    1       -1.360  -2.826   1.014  0.00  0.00    +0.004 A 
BRANCH   5   8
ATOM      8  S   LIG    1       -1.365  -6.546  -0.516  0.00  0.00    -0.129 S 
ATOM      9  C   LIG    1       -1.298  -7.137   1.198  0.00  0.00    +0.090 C 
ENDBRANCH   5   8
ENDBRANCH   1   2
BRANCH   1  11
ATOM     10  C   LIG    1       -0.019   1.526   0.010  0.00  0.00    -0.013 C 
ATOM     11  C   LIG    1        0.002  -0.004   0.002  0.00  0.00    -0.070 C 
BRANCH  11  12
ATOM     12  N   LIG    1        0.713  -0.491   1.192  0.00  0.00    +0.382 N 
ATOM     13  H   LIG    1        0.655  -1.497   1.230  0.00  0.00    -0.085 HD
ATOM     14  H   LIG    1        0.290  -0.099   2.020  0.00  0.00    -0.085 HD
BRANCH  12  15
ATOM     15  C   LIG    1        2.122  -0.083   1.122  0.00  0.00    -0.078 C 
ATOM     16  C   LIG    1        2.796  -0.777  -0.064  0.00  0.00    -0.014 C 
ATOM     17  C   LIG    1        2.833  -0.480   2.417  0.00  0.00    -0.014 C 
ENDBRANCH  12  15
ENDBRANCH  11  12
ENDBRANCH   1  11
TORSDOF 5
