REMARK  Name = ZINC29135178
REMARK                            x       y       z     vdW  Elec       q    Type
REMARK                         _______ _______ _______ _____ _____    ______ ____
ROOT
ATOM      1  C   LIG    1        4.788  -3.728  -0.063  0.00  0.00    +0.020 A 
ATOM      2  C   LIG    1        3.902  -2.666  -0.049  0.00  0.00    +0.014 A 
ATOM      3  C   LIG    1        2.537  -2.951  -0.043  0.00  0.00    +0.028 A 
ATOM      4  C   LIG    1        1.316  -2.131  -0.021  0.00  0.00    +0.027 A 
ATOM      5  C   LIG    1        0.270  -2.997  -0.016  0.00  0.00    +0.095 A 
ATOM      6  N   LIG    1        0.733  -4.278  -0.027  0.00  0.00    -0.345 N 
ATOM      7  H   LIG    1        0.023  -5.119  -0.025  0.00  0.00    +0.167 HD
ATOM      8  C   LIG    1        2.108  -4.291  -0.041  0.00  0.00    +0.139 A 
ATOM      9  N   LIG    1        3.004  -5.269  -0.054  0.00  0.00    -0.237 NA
ATOM     10  C   LIG    1        4.297  -5.023  -0.065  0.00  0.00    +0.113 A 
ENDROOT
BRANCH   4  11
ATOM     11  C   LIG    1        1.242  -0.654  -0.013  0.00  0.00    +0.078 A 
ATOM     12  C   LIG    1        0.002  -0.004   0.002  0.00  0.00    +0.048 A 
ATOM     13  C   LIG    1       -0.017   1.377   0.010  0.00  0.00    +0.116 A 
ATOM     14  N   LIG    1        1.130   2.042   0.002  0.00  0.00    -0.223 NA
ATOM     15  C   LIG    1        2.290   1.401  -0.012  0.00  0.00    +0.213 A 
ATOM     16  N   LIG    1        2.355   0.079  -0.020  0.00  0.00    -0.215 NA
BRANCH  15  17
ATOM     17  N   LIG    1        3.464   2.134  -0.020  0.00  0.00    -0.327 N 
ATOM     18  H   LIG    1        3.426   3.233  -0.013  0.00  0.00    +0.145 HD
ATOM     19  H   LIG    1        4.435   1.617  -0.032  0.00  0.00    +0.145 HD
ENDBRANCH  15  17
ENDBRANCH   4  11
TORSDOF 2
