REMARK  Name = ZINC17145551
REMARK                            x       y       z     vdW  Elec       q    Type
REMARK                         _______ _______ _______ _____ _____    ______ ____
ROOT
ATOM      1  C   LIG    1       -0.851   3.408  -0.088  0.00  0.00    +0.071 C 
ATOM      2  C   LIG    1       -1.217   2.101  -0.448  0.00  0.00    +0.188 C 
ATOM      3  C   LIG    1        0.012   1.262  -0.457  0.00  0.00    +0.283 C 
ATOM      4  O   LIG    1        0.044   0.078  -0.725  0.00  0.00    -0.267 OA
ATOM      5  N   LIG    1        1.082   2.007  -0.133  0.00  0.00    -0.280 N 
ATOM      6  C   LIG    1        0.646   3.383   0.121  0.00  0.00    +0.145 C 
ENDROOT
BRANCH   6   7
ATOM      7  C   LIG    1        1.319   4.324  -0.845  0.00  0.00    -0.022 A 
ATOM      8  C   LIG    1        1.491   3.953  -2.165  0.00  0.00    +0.006 A 
ATOM      9  C   LIG    1        2.104   4.818  -3.052  0.00  0.00    +0.004 A 
ATOM     10  C   LIG    1        2.553   6.050  -2.616  0.00  0.00    -0.045 A 
ATOM     11  C   LIG    1        2.386   6.420  -1.295  0.00  0.00    +0.004 A 
ATOM     12  C   LIG    1        1.769   5.556  -0.409  0.00  0.00    +0.006 A 
BRANCH  10  13
ATOM     13  C   LIG    1        3.225   6.992  -3.582  0.00  0.00    +0.013 C 
ATOM     14  C   LIG    1        2.259   7.331  -4.720  0.00  0.00    +0.012 C 
ATOM     15  C   LIG    1        4.476   6.325  -4.158  0.00  0.00    +0.012 C 
ENDBRANCH  10  13
ENDBRANCH   6   7
BRANCH   1  16
ATOM     16  C   LIG    1       -1.688   4.496   0.048  0.00  0.00    +0.195 C 
ATOM     17  O   LIG    1       -1.171   5.724   0.264  0.00  0.00    -0.287 OA
BRANCH  16  22
ATOM     18  C   LIG    1       -7.386   3.800  -0.311  0.00  0.00    +0.044 C 
ATOM     19  C   LIG    1       -5.893   3.982  -0.217  0.00  0.00    -0.050 A 
ATOM     20  C   LIG    1       -5.152   3.174   0.628  0.00  0.00    +0.004 A 
ATOM     21  C   LIG    1       -3.786   3.335   0.720  0.00  0.00    +0.012 A 
ATOM     22  C   LIG    1       -3.148   4.318  -0.044  0.00  0.00    +0.022 A 
ATOM     23  C   LIG    1       -3.904   5.134  -0.892  0.00  0.00    +0.012 A 
ATOM     24  C   LIG    1       -5.269   4.958  -0.976  0.00  0.00    +0.004 A 
ENDBRANCH  16  22
ENDBRANCH   1  16
BRANCH   2  25
ATOM     25  O   LIG    1       -2.344   1.720  -0.707  0.00  0.00    -0.502 OA
ATOM     26  H   LIG    1       -2.982   2.486  -0.625  0.00  0.00    +0.292 HD
ENDBRANCH   2  25
BRANCH   5  27
ATOM     27  C   LIG    1        2.462   1.522  -0.046  0.00  0.00    +0.136 C 
BRANCH  27  28
ATOM     28  C   LIG    1        3.131   1.671  -1.388  0.00  0.00    -0.016 C 
ATOM     29  C   LIG    1        4.255   2.338  -1.489  0.00  0.00    +0.005 C 
ENDBRANCH  27  28
ENDBRANCH   5  27
TORSDOF 7
