REMARK  Name = ZINC49823270
REMARK                            x       y       z     vdW  Elec       q    Type
REMARK                         _______ _______ _______ _____ _____    ______ ____
ROOT
ATOM      1  C   LIG    1        3.997 -10.914   7.720  0.00  0.00    +0.101 A 
ATOM      2  C   LIG    1        4.021 -12.323   7.741  0.00  0.00    +0.138 A 
ATOM      3  C   LIG    1        5.097 -12.994   8.297  0.00  0.00    +0.045 A 
ATOM      4  C   LIG    1        6.159 -12.290   8.837  0.00  0.00    +0.138 A 
ATOM      5  C   LIG    1        6.155 -10.880   8.827  0.00  0.00    +0.101 A 
ATOM      6  C   LIG    1        5.071 -10.191   8.261  0.00  0.00    +0.145 A 
ENDROOT
BRANCH   3   7
ATOM      7  C   LIG    1        5.111 -14.500   8.314  0.00  0.00    +0.064 C 
ATOM      8  C   LIG    1        5.808 -15.017   7.053  0.00  0.00    +0.062 C 
ATOM      9  C   LIG    1        7.310 -14.735   7.182  0.00  0.00    +0.204 C 
ATOM     10  O   LIG    1        7.820 -15.503   8.273  0.00  0.00    -0.484 OA
ATOM     11  C   LIG    1        7.152 -15.449   9.455  0.00  0.00    +0.129 A 
ATOM     12  C   LIG    1        7.805 -15.879  10.604  0.00  0.00    +0.091 A 
ATOM     13  C   LIG    1        7.159 -15.843  11.826  0.00  0.00    +0.120 A 
ATOM     14  C   LIG    1        5.854 -15.376  11.903  0.00  0.00    +0.046 A 
ATOM     15  C   LIG    1        5.207 -14.948  10.761  0.00  0.00    +0.011 A 
ATOM     16  C   LIG    1        5.852 -14.981   9.536  0.00  0.00    +0.002 A 
BRANCH   9  17
ATOM     17  C   LIG    1        8.013 -15.131   5.909  0.00  0.00    -0.007 A 
ATOM     18  C   LIG    1        8.315 -16.459   5.672  0.00  0.00    +0.011 A 
ATOM     19  C   LIG    1        8.960 -16.824   4.506  0.00  0.00    +0.046 A 
ATOM     20  C   LIG    1        9.303 -15.857   3.572  0.00  0.00    +0.117 A 
ATOM     21  C   LIG    1        8.998 -14.525   3.812  0.00  0.00    +0.046 A 
ATOM     22  C   LIG    1        8.349 -14.166   4.978  0.00  0.00    +0.011 A 
BRANCH  20  23
ATOM     23  O   LIG    1        9.937 -16.214   2.425  0.00  0.00    -0.507 OA
ATOM     24  H   LIG    1        9.340 -16.425   1.694  0.00  0.00    +0.292 HD
ENDBRANCH  20  23
ENDBRANCH   9  17
BRANCH  13  25
ATOM     25  O   LIG    1        7.799 -16.263  12.948  0.00  0.00    -0.507 OA
ATOM     26  H   LIG    1        7.683 -17.204  13.138  0.00  0.00    +0.292 HD
ENDBRANCH  13  25
ENDBRANCH   3   7
BRANCH   6  27
ATOM     27  O   LIG    1        5.061  -8.838   8.241  0.00  0.00    -0.505 OA
ATOM     28  H   LIG    1        4.656  -8.436   9.021  0.00  0.00    +0.292 HD
ENDBRANCH   6  27
BRANCH   5  29
ATOM     29  C   LIG    1        7.278 -10.139   9.398  0.00  0.00    +0.170 C 
ATOM     30  O   LIG    1        8.216 -10.737   9.883  0.00  0.00    -0.292 OA
BRANCH  29  31
ATOM     31  C   LIG    1        7.271  -8.632   9.386  0.00  0.00    +0.080 C 
BRANCH  31  32
ATOM     32  C   LIG    1        8.552  -8.111  10.040  0.00  0.00    +0.008 C 
BRANCH  32  33
ATOM     33  C   LIG    1        8.544  -6.581  10.027  0.00  0.00    +0.000 C 
BRANCH  33  34
ATOM     34  C   LIG    1        9.825  -6.059  10.681  0.00  0.00    +0.000 C 
BRANCH  34  35
ATOM     35  C   LIG    1        9.818  -4.529  10.668  0.00  0.00    +0.000 C 
BRANCH  35  36
ATOM     36  C   LIG    1       11.099  -4.007  11.322  0.00  0.00    +0.000 C 
BRANCH  36  37
ATOM     37  C   LIG    1       11.092  -2.478  11.309  0.00  0.00    -0.000 C 
BRANCH  37  38
ATOM     38  C   LIG    1       12.373  -1.956  11.963  0.00  0.00    -0.000 C 
BRANCH  38  39
ATOM     39  C   LIG    1       12.366  -0.426  11.950  0.00  0.00    -0.000 C 
BRANCH  39  40
ATOM     40  C   LIG    1       13.647   0.096  12.604  0.00  0.00    -0.003 C 
ATOM     41  C   LIG    1       13.640   1.626  12.591  0.00  0.00    +0.004 C 
ENDBRANCH  39  40
ENDBRANCH  38  39
ENDBRANCH  37  38
ENDBRANCH  36  37
ENDBRANCH  35  36
ENDBRANCH  34  35
ENDBRANCH  33  34
ENDBRANCH  32  33
ENDBRANCH  31  32
ENDBRANCH  29  31
ENDBRANCH   5  29
BRANCH   4  42
ATOM     42  O   LIG    1        7.205 -12.957   9.379  0.00  0.00    -0.506 OA
ATOM     43  H   LIG    1        7.955 -13.068   8.778  0.00  0.00    +0.292 HD
ENDBRANCH   4  42
BRANCH   2  44
ATOM     44  O   LIG    1        2.988 -13.023   7.215  0.00  0.00    -0.506 OA
ATOM     45  H   LIG    1        3.091 -13.231   6.276  0.00  0.00    +0.292 HD
ENDBRANCH   2  44
BRANCH   1  46
ATOM     46  C   LIG    1        2.859 -10.208   7.133  0.00  0.00    +0.170 C 
ATOM     47  O   LIG    1        1.931 -10.835   6.666  0.00  0.00    -0.292 OA
BRANCH  46  48
ATOM     48  C   LIG    1        2.839  -8.701   7.107  0.00  0.00    +0.080 C 
BRANCH  48  49
ATOM     49  C   LIG    1        1.547  -8.220   6.444  0.00  0.00    +0.008 C 
BRANCH  49  50
ATOM     50  C   LIG    1        1.527  -6.690   6.417  0.00  0.00    +0.000 C 
BRANCH  50  51
ATOM     51  C   LIG    1        0.235  -6.209   5.754  0.00  0.00    +0.000 C 
BRANCH  51  52
ATOM     52  C   LIG    1        0.214  -4.679   5.727  0.00  0.00    +0.000 C 
BRANCH  52  53
ATOM     53  C   LIG    1       -1.077  -4.198   5.064  0.00  0.00    +0.000 C 
BRANCH  53  54
ATOM     54  C   LIG    1       -1.098  -2.668   5.037  0.00  0.00    -0.000 C 
BRANCH  54  55
ATOM     55  C   LIG    1       -2.390  -2.187   4.374  0.00  0.00    -0.000 C 
BRANCH  55  56
ATOM     56  C   LIG    1       -2.410  -0.657   4.348  0.00  0.00    -0.000 C 
BRANCH  56  58
ATOM     57  C   LIG    1       -3.723   1.354   3.658  0.00  0.00    +0.004 C 
ATOM     58  C   LIG    1       -3.702  -0.176   3.684  0.00  0.00    -0.003 C 
ENDBRANCH  56  58
ENDBRANCH  55  56
ENDBRANCH  54  55
ENDBRANCH  53  54
ENDBRANCH  52  53
ENDBRANCH  51  52
ENDBRANCH  50  51
ENDBRANCH  49  50
ENDBRANCH  48  49
ENDBRANCH  46  48
ENDBRANCH   1  46
TORSDOF 29
