REMARK  Name = ZINC13860705
REMARK                            x       y       z     vdW  Elec       q    Type
REMARK                         _______ _______ _______ _____ _____    ______ ____
ROOT
ATOM      1  N   LIG    1       -0.712   1.546   1.219  0.00  0.00    +0.387 N 
ATOM      2  H   LIG    1       -1.706   1.304   1.144  0.00  0.00    -0.080 HD
ATOM      3  C   LIG    1       -0.583   3.013   1.347  0.00  0.00    -0.032 C 
ATOM      4  C   LIG    1       -1.314   3.447   2.615  0.00  0.00    +0.025 C 
ATOM      5  C   LIG    1       -1.417   4.947   2.682  0.00  0.00    -0.037 A 
ATOM      6  C   LIG    1       -1.623   5.676   1.515  0.00  0.00    +0.027 A 
ATOM      7  C   LIG    1       -1.748   7.065   1.572  0.00  0.00    +0.125 A 
ATOM      8  C   LIG    1       -1.648   7.711   2.795  0.00  0.00    +0.046 A 
ATOM      9  C   LIG    1       -1.425   6.980   3.947  0.00  0.00    +0.004 A 
ATOM     10  C   LIG    1       -1.669   4.966   0.214  0.00  0.00    -0.012 A 
ATOM     11  C   LIG    1       -2.216   5.588  -0.903  0.00  0.00    +0.009 A 
ATOM     12  C   LIG    1       -2.292   4.899  -2.097  0.00  0.00    +0.001 A 
ATOM     13  C   LIG    1       -1.818   3.606  -2.178  0.00  0.00    +0.004 A 
ATOM     14  C   LIG    1       -1.258   2.981  -1.070  0.00  0.00    -0.047 A 
ATOM     15  C   LIG    1       -0.735   1.583  -1.233  0.00  0.00    +0.017 C 
ATOM     16  C   LIG    1       -1.311   5.602   3.892  0.00  0.00    +0.004 A 
ATOM     17  C   LIG    1       -1.190   3.657   0.129  0.00  0.00    -0.050 A 
ATOM     18  C   LIG    1       -0.013   1.086   0.008  0.00  0.00    -0.073 C 
ENDROOT
BRANCH   7  19
ATOM     19  O   LIG    1       -1.968   7.779   0.438  0.00  0.00    -0.506 OA
ATOM     20  H   LIG    1       -2.904   7.903   0.226  0.00  0.00    +0.292 HD
ENDBRANCH   7  19
BRANCH   1  21
ATOM     21  C   LIG    1       -0.145   0.883   2.413  0.00  0.00    -0.051 C 
BRANCH  21  23
ATOM     22  C   LIG    1        1.667   1.814   3.760  0.00  0.00    +0.002 C 
ATOM     23  C   LIG    1        1.290   1.299   2.616  0.00  0.00    -0.053 C 
ENDBRANCH  21  23
ENDBRANCH   1  21
TORSDOF 3
