REMARK  Name = ZINC19624722
REMARK                            x       y       z     vdW  Elec       q    Type
REMARK                         _______ _______ _______ _____ _____    ______ ____
ROOT
ATOM      1  C   LIG    1        2.922   0.806  -1.464  0.00  0.00    +0.088 C 
ATOM      2  C   LIG    1        4.292   0.181  -1.476  0.00  0.00    -0.027 A 
ATOM      3  C   LIG    1        5.250   0.673  -0.602  0.00  0.00    +0.005 A 
ATOM      4  C   LIG    1        6.520   0.133  -0.582  0.00  0.00    +0.000 A 
ATOM      5  C   LIG    1        6.841  -0.904  -1.438  0.00  0.00    +0.000 A 
ATOM      6  C   LIG    1        5.888  -1.395  -2.308  0.00  0.00    +0.004 A 
ATOM      7  C   LIG    1        4.612  -0.855  -2.327  0.00  0.00    -0.041 A 
ATOM      8  C   LIG    1        3.602  -1.429  -3.288  0.00  0.00    +0.050 C 
ATOM      9  C   LIG    1        2.430  -0.462  -3.454  0.00  0.00    +0.086 C 
ATOM     10  N   LIG    1        1.950  -0.076  -2.118  0.00  0.00    -0.309 NA
ATOM     11  H   LIG    1        1.810  -0.982  -1.510  0.00  0.00    +0.123 HD
ENDROOT
BRANCH   1  12
ATOM     12  C   LIG    1        2.490   1.048  -0.016  0.00  0.00    +0.058 C 
BRANCH  12  16
ATOM     13  C   LIG    1       -1.238   3.133   0.029  0.00  0.00    +0.000 A 
ATOM     14  C   LIG    1       -1.219   1.751   0.017  0.00  0.00    +0.000 A 
ATOM     15  C   LIG    1       -0.013   1.076   0.008  0.00  0.00    +0.004 A 
ATOM     16  C   LIG    1        1.175   1.783   0.000  0.00  0.00    -0.046 A 
ATOM     17  C   LIG    1        1.156   3.165   0.008  0.00  0.00    +0.004 A 
ATOM     18  C   LIG    1       -0.050   3.840   0.022  0.00  0.00    +0.000 A 
ENDBRANCH  12  16
ENDBRANCH   1  12
TORSDOF 2
