REMARK  Name = ZINC58593499
REMARK                            x       y       z     vdW  Elec       q    Type
REMARK                         _______ _______ _______ _____ _____    ______ ____
ROOT
ATOM      1  C   LIG    1        5.001  -2.740  -0.061  0.00  0.00    +0.069 A 
ATOM      2  C   LIG    1        5.038  -4.141  -0.075  0.00  0.00    +0.047 A 
ATOM      3  C   LIG    1        6.270  -4.766  -0.091  0.00  0.00    +0.116 A 
ATOM      4  N   LIG    1        7.371  -4.030  -0.093  0.00  0.00    -0.223 NA
ATOM      5  C   LIG    1        7.309  -2.707  -0.080  0.00  0.00    +0.213 A 
ATOM      6  N   LIG    1        6.152  -2.064  -0.069  0.00  0.00    -0.215 NA
ENDROOT
BRANCH   5   7
ATOM      7  N   LIG    1        8.485  -1.977  -0.082  0.00  0.00    -0.327 N 
ATOM      8  H   LIG    1        8.454  -1.007  -0.072  0.00  0.00    +0.145 HD
ATOM      9  H   LIG    1        9.340  -2.435  -0.093  0.00  0.00    +0.145 HD
ENDBRANCH   5   7
BRANCH   1  11
ATOM     10  C   LIG    1        3.692  -0.681  -0.037  0.00  0.00    +0.010 C 
ATOM     11  C   LIG    1        3.714  -2.024  -0.045  0.00  0.00    +0.028 C 
BRANCH  10  15
ATOM     12  C   LIG    1       -0.017   1.380   0.010  0.00  0.00    +0.000 A 
ATOM     13  C   LIG    1        1.168   2.095   0.002  0.00  0.00    +0.001 A 
ATOM     14  C   LIG    1        2.377   1.432  -0.013  0.00  0.00    +0.008 A 
ATOM     15  C   LIG    1        2.404   0.035  -0.021  0.00  0.00    -0.025 A 
ATOM     16  C   LIG    1        1.204  -0.681  -0.013  0.00  0.00    +0.008 A 
ATOM     17  C   LIG    1        0.002  -0.004   0.002  0.00  0.00    +0.001 A 
ENDBRANCH  10  15
ENDBRANCH   1  11
TORSDOF 3
