REMARK  Name = ZINC29400794
REMARK                            x       y       z     vdW  Elec       q    Type
REMARK                         _______ _______ _______ _____ _____    ______ ____
ROOT
ATOM      1  C   LIG    1        2.387  -3.820  -6.146  0.00  0.00    +0.016 A 
ATOM      2  C   LIG    1        1.401  -3.808  -5.200  0.00  0.00    +0.016 A 
ATOM      3  C   LIG    1        1.649  -3.271  -3.952  0.00  0.00    +0.020 A 
ATOM      4  C   LIG    1        2.903  -2.720  -3.599  0.00  0.00    -0.010 A 
ATOM      5  C   LIG    1        2.976  -2.202  -2.240  0.00  0.00    +0.021 A 
ATOM      6  C   LIG    1        1.897  -2.278  -1.449  0.00  0.00    +0.011 A 
ATOM      7  C   LIG    1        3.907  -2.743  -4.590  0.00  0.00    +0.024 A 
ATOM      8  S   LIG    1        0.678  -3.071  -2.479  0.00  0.00    -0.091 S 
ATOM      9  C   LIG    1        3.646  -3.284  -5.839  0.00  0.00    +0.059 A 
ENDROOT
BRANCH   9  10
ATOM     10  C   LIG    1        4.710  -3.297  -6.861  0.00  0.00    +0.337 C 
ATOM     11  O   LIG    1        5.804  -2.835  -6.604  0.00  0.00    -0.245 OA
BRANCH  10  12
ATOM     12  O   LIG    1        4.468  -3.821  -8.078  0.00  0.00    -0.477 OA
ATOM     13  H   LIG    1        3.624  -4.177  -8.276  0.00  0.00    +0.295 HD
ENDBRANCH  10  12
ENDBRANCH   9  10
BRANCH   6  14
ATOM     14  C   LIG    1        1.751  -1.809  -0.024  0.00  0.00    +0.165 C 
BRANCH  14  15
ATOM     15  N   LIG    1        1.287  -0.420  -0.013  0.00  0.00    -0.332 N 
ATOM     16  C   LIG    1        2.075   0.700  -0.014  0.00  0.00    +0.107 A 
ATOM     17  C   LIG    1        1.244   1.760  -0.000  0.00  0.00    +0.130 A 
ATOM     18  N   LIG    1       -0.016   1.301   0.009  0.00  0.00    -0.244 NA
ATOM     19  C   LIG    1        0.002  -0.004   0.002  0.00  0.00    +0.199 A 
ENDBRANCH  14  15
ENDBRANCH   6  14
TORSDOF 4
