REMARK  Name = ZINC13759082
REMARK                            x       y       z     vdW  Elec       q    Type
REMARK                         _______ _______ _______ _____ _____    ______ ____
ROOT
ATOM      1  N   LIG    1       -1.234   1.663   0.017  0.00  0.00    -0.232 N 
ATOM      2  C   LIG    1       -1.223   3.037   0.553  0.00  0.00    +0.148 C 
ATOM      3  C   LIG    1       -0.074   3.792  -0.126  0.00  0.00    +0.126 C 
ATOM      4  N   LIG    1        1.155   3.006  -0.026  0.00  0.00    -0.297 N 
ATOM      5  H   LIG    1        2.006   3.468   0.023  0.00  0.00    +0.150 HD
ATOM      6  C   LIG    1        1.140   1.664   0.000  0.00  0.00    +0.316 C 
ATOM      7  O   LIG    1        2.197   1.062   0.018  0.00  0.00    -0.251 OA
ATOM      8  N   LIG    1       -0.011   0.966   0.007  0.00  0.00    -0.217 N 
ATOM      9  H   LIG    1        0.002  -0.004   0.002  0.00  0.00    +0.175 HD
ENDROOT
BRANCH   1  12
ATOM     10  C   LIG    1       -3.542  -0.793  -1.417  0.00  0.00    +0.008 A 
ATOM     11  C   LIG    1       -2.372  -0.222  -0.950  0.00  0.00    +0.045 A 
ATOM     12  C   LIG    1       -2.403   1.078  -0.456  0.00  0.00    +0.141 A 
ATOM     13  N   LIG    1       -3.537   1.762  -0.427  0.00  0.00    -0.203 NA
ATOM     14  C   LIG    1       -4.668   1.244  -0.871  0.00  0.00    +0.215 A 
ATOM     15  F   LIG    1       -5.801   1.980  -0.827  0.00  0.00    -0.184 F 
ATOM     16  C   LIG    1       -4.709  -0.044  -1.375  0.00  0.00    +0.059 A 
ENDBRANCH   1  12
TORSDOF 1
