REMARK  Name = ZINC27633331
REMARK                            x       y       z     vdW  Elec       q    Type
REMARK                         _______ _______ _______ _____ _____    ______ ____
ROOT
ATOM      1  C   LIG    1        0.671  -3.228  -0.018  0.00  0.00    +0.084 A 
ATOM      2  C   LIG    1        1.180  -4.497  -0.026  0.00  0.00    +0.078 A 
ATOM      3  S   LIG    1       -0.326  -5.460  -0.020  0.00  0.00    -0.038 S 
ATOM      4  C   LIG    1       -1.471  -4.088  -0.008  0.00  0.00    +0.272 A 
ATOM      5  N   LIG    1       -0.641  -3.052  -0.003  0.00  0.00    -0.206 NA
ENDROOT
BRANCH   1  11
ATOM      6  C   LIG    1       -0.066   1.392   0.018  0.00  0.00    +0.001 A 
ATOM      7  C   LIG    1        1.114   2.123   0.013  0.00  0.00    +0.002 A 
ATOM      8  C   LIG    1        2.335   1.486  -0.003  0.00  0.00    +0.026 A 
ATOM      9  C   LIG    1        2.389   0.095  -0.013  0.00  0.00    +0.047 A 
ATOM     10  C   LIG    1        1.190  -0.639  -0.006  0.00  0.00    +0.009 A 
ATOM     11  C   LIG    1        1.583  -2.057  -0.019  0.00  0.00    +0.026 A 
ATOM     12  C   LIG    1        2.937  -2.087  -0.032  0.00  0.00    +0.093 A 
ATOM     13  N   LIG    1        3.427  -0.810  -0.028  0.00  0.00    -0.360 N 
ATOM     14  H   LIG    1        4.368  -0.576  -0.036  0.00  0.00    +0.165 HD
ATOM     15  C   LIG    1       -0.035   0.026   0.009  0.00  0.00    +0.010 A 
ENDBRANCH   1  11
BRANCH   4  16
ATOM     16  N   LIG    1       -2.830  -4.101   0.001  0.00  0.00    -0.045 NA
ATOM     17  C   LIG    1       -3.496  -3.997  -1.129  0.00  0.00    +0.384 C 
BRANCH  17  18
ATOM     18  N   LIG    1       -4.863  -3.899  -1.113  0.00  0.00    -0.289 N 
ATOM     19  H   LIG    1       -5.354  -3.823  -1.946  0.00  0.00    +0.255 HD
ATOM     20  H   LIG    1       -5.340  -3.906  -0.268  0.00  0.00    +0.255 HD
ENDBRANCH  17  18
BRANCH  17  21
ATOM     21  N   LIG    1       -2.823  -3.987  -2.323  0.00  0.00    -0.289 N 
ATOM     22  H   LIG    1       -3.305  -3.835  -3.151  0.00  0.00    +0.255 HD
ATOM     23  H   LIG    1       -1.864  -4.132  -2.341  0.00  0.00    +0.255 HD
ENDBRANCH  17  21
ENDBRANCH   4  16
TORSDOF 4
