REMARK  Name = ZINC18217584
REMARK                            x       y       z     vdW  Elec       q    Type
REMARK                         _______ _______ _______ _____ _____    ______ ____
ROOT
ATOM      1  C   LIG    1       -0.017   1.365   0.009  0.00  0.00    +0.107 A 
ATOM      2  C   LIG    1        1.267   1.772  -0.001  0.00  0.00    +0.057 A 
ATOM      3  N   LIG    1        2.048   0.681  -0.014  0.00  0.00    -0.241 NA
ATOM      4  C   LIG    1        1.297  -0.386  -0.012  0.00  0.00    +0.196 A 
ATOM      5  N   LIG    1        0.002  -0.004   0.002  0.00  0.00    -0.351 N 
ATOM      6  H   LIG    1       -0.771  -0.590   0.006  0.00  0.00    +0.166 HD
ENDROOT
BRANCH   2   7
ATOM      7  C   LIG    1        1.743   3.202   0.003  0.00  0.00    +0.037 C 
BRANCH   7   8
ATOM      8  C   LIG    1        2.700   3.418   1.176  0.00  0.00    -0.080 C 
BRANCH   8   9
ATOM      9  N   LIG    1        3.163   4.812   1.179  0.00  0.00    +0.378 N 
ATOM     10  H   LIG    1        2.371   5.430   1.273  0.00  0.00    -0.090 HD
ATOM     11  H   LIG    1        3.643   5.009   0.314  0.00  0.00    -0.090 HD
ATOM     12  H   LIG    1        3.795   4.955   1.953  0.00  0.00    -0.090 HD
ENDBRANCH   8   9
ENDBRANCH   7   8
ENDBRANCH   2   7
TORSDOF 3
