REMARK  Name = ZINC19893370
REMARK                            x       y       z     vdW  Elec       q    Type
REMARK                         _______ _______ _______ _____ _____    ______ ____
ROOT
ATOM      1  C   LIG    1       -0.088   1.557  -1.843  0.00  0.00    +0.141 C 
ATOM      2  N   LIG    1       -0.033   0.604  -2.720  0.00  0.00    -0.192 NA
ENDROOT
BRANCH   1   5
ATOM      3  C   LIG    1        0.177  -1.346  -0.595  0.00  0.00    +0.068 C 
ATOM      4  C   LIG    1        0.091  -0.048   0.166  0.00  0.00    +0.069 A 
ATOM      5  C   LIG    1       -0.027   1.239  -0.402  0.00  0.00    +0.038 A 
ATOM      6  C   LIG    1       -0.075   2.143   0.636  0.00  0.00    +0.051 A 
ATOM      7  C   LIG    1       -0.198   3.640   0.511  0.00  0.00    +0.066 C 
ATOM      8  N   LIG    1        0.011   1.440   1.787  0.00  0.00    -0.236 N 
ATOM      9  N   LIG    1        0.107   0.081   1.466  0.00  0.00    -0.171 NA
BRANCH   8  10
ATOM     10  C   LIG    1       -0.001   1.979   3.080  0.00  0.00    +0.066 A 
ATOM     11  C   LIG    1       -0.889   2.997   3.402  0.00  0.00    +0.028 A 
ATOM     12  C   LIG    1       -0.899   3.526   4.678  0.00  0.00    +0.002 A 
ATOM     13  C   LIG    1       -0.025   3.042   5.635  0.00  0.00    +0.000 A 
ATOM     14  C   LIG    1        0.861   2.029   5.317  0.00  0.00    +0.002 A 
ATOM     15  C   LIG    1        0.872   1.492   4.045  0.00  0.00    +0.028 A 
ENDBRANCH   8  10
ENDBRANCH   1   5
BRANCH   2  16
ATOM     16  N   LIG    1        0.033   0.911  -4.086  0.00  0.00    -0.253 N 
ATOM     17  C   LIG    1        0.188  -0.151  -5.092  0.00  0.00    +0.141 C 
ATOM     18  C   LIG    1        1.358   0.216  -6.011  0.00  0.00    +0.105 C 
ATOM     19  N   LIG    1        1.143   1.563  -6.557  0.00  0.00    -0.295 NA
ATOM     20  C   LIG    1        1.129   2.574  -5.491  0.00  0.00    +0.105 C 
ATOM     21  C   LIG    1       -0.056   2.303  -4.551  0.00  0.00    +0.141 C 
BRANCH  19  22
ATOM     22  C   LIG    1        2.152   1.885  -7.575  0.00  0.00    +0.119 C 
BRANCH  22  23
ATOM     23  C   LIG    1        1.763   3.158  -8.283  0.00  0.00    -0.033 A 
ATOM     24  C   LIG    1        0.968   3.105  -9.412  0.00  0.00    +0.005 A 
ATOM     25  C   LIG    1        0.611   4.271 -10.062  0.00  0.00    +0.000 A 
ATOM     26  C   LIG    1        1.048   5.492  -9.581  0.00  0.00    +0.000 A 
ATOM     27  C   LIG    1        1.843   5.545  -8.451  0.00  0.00    +0.000 A 
ATOM     28  C   LIG    1        2.196   4.378  -7.799  0.00  0.00    +0.005 A 
ENDBRANCH  22  23
ENDBRANCH  19  22
ENDBRANCH   2  16
TORSDOF 5
