REMARK  Name = ZINC00007013
REMARK                            x       y       z     vdW  Elec       q    Type
REMARK                         _______ _______ _______ _____ _____    ______ ____
ROOT
ATOM      1  C   LIG    1        3.199   0.065  -0.225  0.00  0.00    -0.057 C 
ATOM      2  C   LIG    1        2.932  -0.906  -1.083  0.00  0.00    -0.024 C 
ATOM      3  C   LIG    1        1.554  -1.482  -1.222  0.00  0.00    +0.026 C 
ATOM      4  C   LIG    1        0.557  -0.373  -1.389  0.00  0.00    -0.012 C 
ATOM      5  C   LIG    1        0.002  -0.004   0.002  0.00  0.00    -0.071 C 
ATOM      6  N   LIG    1        1.104  -0.270   0.957  0.00  0.00    +0.385 N 
ATOM      7  H   LIG    1        0.773  -0.142   1.920  0.00  0.00    -0.085 HD
ATOM      8  H   LIG    1        1.449  -1.229   0.838  0.00  0.00    -0.085 HD
ATOM      9  C   LIG    1       -0.019   1.557   0.011  0.00  0.00    -0.017 C 
ATOM     10  C   LIG    1        1.495   1.892  -0.002  0.00  0.00    -0.013 C 
ATOM     11  C   LIG    1        2.165   0.683   0.662  0.00  0.00    -0.040 C 
ENDROOT
BRANCH   1  18
ATOM     12  C   LIG    1        5.615  -0.268   0.321  0.00  0.00    +0.012 A 
ATOM     13  C   LIG    1        6.899   0.244   0.379  0.00  0.00    +0.041 A 
ATOM     14  C   LIG    1        7.122   1.556  -0.005  0.00  0.00    +0.129 A 
ATOM     15 CL   LIG    1        8.730   2.206   0.073  0.00  0.00    -0.062 Cl
ATOM     16  N   LIG    1        6.132   2.319  -0.429  0.00  0.00    -0.243 NA
ATOM     17  C   LIG    1        4.895   1.874  -0.506  0.00  0.00    +0.120 A 
ATOM     18  C   LIG    1        4.588   0.564  -0.138  0.00  0.00    -0.006 A 
ENDBRANCH   1  18
TORSDOF 1
