REMARK  Name = ZINC40097054
REMARK                            x       y       z     vdW  Elec       q    Type
REMARK                         _______ _______ _______ _____ _____    ______ ____
ROOT
ATOM      1  N   LIG    1       -1.202  -0.722   0.010  0.00  0.00    -0.269 N 
ATOM      2  H   LIG    1       -2.046  -0.251   0.089  0.00  0.00    +0.156 HD
ATOM      3  C   LIG    1       -1.187  -2.065  -0.099  0.00  0.00    +0.304 C 
ATOM      4  N   LIG    1       -2.345  -2.747  -0.193  0.00  0.00    -0.296 N 
ATOM      5  H   LIG    1       -3.190  -2.271  -0.182  0.00  0.00    +0.151 HD
ATOM      6  O   LIG    1       -0.127  -2.662  -0.113  0.00  0.00    -0.253 OA
ENDROOT
BRANCH   4   7
ATOM      7  C   LIG    1       -2.329  -4.207  -0.311  0.00  0.00    +0.077 C 
ATOM      8  C   LIG    1       -2.148  -4.597  -1.780  0.00  0.00    +0.041 C 
ATOM      9  C   LIG    1       -2.097  -6.124  -1.896  0.00  0.00    +0.109 C 
ATOM     10  N   LIG    1       -3.298  -6.687  -1.265  0.00  0.00    -0.301 N 
ATOM     11  C   LIG    1       -4.095  -7.537  -1.942  0.00  0.00    +0.219 C 
ATOM     12  O   LIG    1       -3.823  -7.845  -3.083  0.00  0.00    -0.275 OA
ATOM     13  C   LIG    1       -3.615  -6.304   0.118  0.00  0.00    +0.109 C 
ATOM     14  C   LIG    1       -3.650  -4.776   0.211  0.00  0.00    +0.041 C 
BRANCH  11  15
ATOM     15  C   LIG    1       -5.324  -8.107  -1.281  0.00  0.00    +0.075 C 
ATOM     16  C   LIG    1       -5.324  -9.602  -0.958  0.00  0.00    +0.013 C 
ATOM     17  C   LIG    1       -6.187  -9.066  -2.102  0.00  0.00    +0.013 C 
ENDBRANCH  11  15
ENDBRANCH   4   7
BRANCH   1  23
ATOM     18  C   LIG    1        0.065   1.248  -0.586  0.00  0.00    +0.027 A 
ATOM     19  C   LIG    1        1.252   1.954  -0.585  0.00  0.00    +0.048 A 
ATOM     20  C   LIG    1        2.381   1.412   0.011  0.00  0.00    +0.130 A 
ATOM     21  C   LIG    1        2.319   0.161   0.606  0.00  0.00    +0.048 A 
ATOM     22  C   LIG    1        1.133  -0.547   0.606  0.00  0.00    +0.027 A 
ATOM     23  C   LIG    1        0.003  -0.005   0.010  0.00  0.00    +0.035 A 
BRANCH  20  24
ATOM     24  O   LIG    1        3.550   2.107   0.011  0.00  0.00    -0.406 OA
BRANCH  24  25
ATOM     25  C   LIG    1        4.673   1.490   0.643  0.00  0.00    +0.575 C 
ATOM     26  F   LIG    1        4.377   1.250   1.989  0.00  0.00    -0.133 F 
ATOM     27  F   LIG    1        5.783   2.336   0.552  0.00  0.00    -0.133 F 
ATOM     28  F   LIG    1        4.957   0.277   0.006  0.00  0.00    -0.133 F 
ENDBRANCH  24  25
ENDBRANCH  20  24
ENDBRANCH   1  23
TORSDOF 5
