REMARK  Name = ZINC37858318
REMARK                            x       y       z     vdW  Elec       q    Type
REMARK                         _______ _______ _______ _____ _____    ______ ____
ROOT
ATOM      1  C   LIG    1       -0.018   1.503   0.010  0.00  0.00    +0.046 C 
ATOM      2  C   LIG    1        0.002  -0.004   0.002  0.00  0.00    -0.022 A 
ATOM      3  C   LIG    1        0.006  -0.678  -1.178  0.00  0.00    +0.014 A 
ATOM      4  C   LIG    1        0.025  -2.082  -1.206  0.00  0.00    -0.014 A 
ATOM      5  C   LIG    1        0.041  -2.810  -0.030  0.00  0.00    +0.040 A 
ATOM      6  C   LIG    1        0.037  -2.134   1.198  0.00  0.00    +0.112 A 
ATOM      7  N   LIG    1        0.052  -2.794   2.362  0.00  0.00    -0.144 NA
ATOM      8  N   LIG    1        0.064  -2.137   3.471  0.00  0.00    -0.113 NA
ATOM      9  C   LIG    1        0.045  -0.803   3.504  0.00  0.00    +0.233 A 
ATOM     10  N   LIG    1        0.025  -0.085   2.395  0.00  0.00    -0.212 NA
ATOM     11  C   LIG    1        0.023  -0.714   1.214  0.00  0.00    +0.097 A 
ENDROOT
BRANCH   4  12
ATOM     12  C   LIG    1        0.028  -2.791  -2.509  0.00  0.00    +0.004 A 
ATOM     13  C   LIG    1        0.961  -3.796  -2.755  0.00  0.00    +0.055 A 
ATOM     14  C   LIG    1        0.958  -4.455  -3.974  0.00  0.00    +0.118 A 
ATOM     15  C   LIG    1        0.028  -4.113  -4.946  0.00  0.00    +0.047 A 
ATOM     16  C   LIG    1       -0.897  -3.116  -4.704  0.00  0.00    +0.024 A 
ATOM     17  C   LIG    1       -0.906  -2.457  -3.490  0.00  0.00    +0.049 A 
ATOM     18 CL   LIG    1       -2.075  -1.210  -3.187  0.00  0.00    -0.083 Cl
BRANCH  14  19
ATOM     19  O   LIG    1        1.867  -5.436  -4.217  0.00  0.00    -0.507 OA
ATOM     20  H   LIG    1        1.569  -6.320  -3.962  0.00  0.00    +0.292 HD
ENDBRANCH  14  19
ENDBRANCH   4  12
BRANCH   9  21
ATOM     21  N   LIG    1        0.046  -0.157   4.727  0.00  0.00    -0.326 N 
ATOM     22  H   LIG    1        0.061  -0.673   5.548  0.00  0.00    +0.145 HD
ATOM     23  H   LIG    1        0.033   0.812   4.764  0.00  0.00    +0.145 HD
ENDBRANCH   9  21
TORSDOF 3
