REMARK  Name = ZINC45355777
REMARK                            x       y       z     vdW  Elec       q    Type
REMARK                         _______ _______ _______ _____ _____    ______ ____
ROOT
ATOM      1  C   LIG    1       -0.015   0.173  -2.418  0.00  0.00    +0.097 C 
ATOM      2  C   LIG    1       -1.438   0.738  -2.407  0.00  0.00    +0.050 C 
ATOM      3  C   LIG    1       -2.442  -0.418  -2.432  0.00  0.00    +0.109 C 
ATOM      4  N   LIG    1       -2.144  -1.279  -3.584  0.00  0.00    -0.314 N 
ATOM      5  C   LIG    1       -0.780  -1.803  -3.740  0.00  0.00    +0.109 C 
ATOM      6  C   LIG    1        0.206  -0.632  -3.701  0.00  0.00    +0.050 C 
ENDROOT
BRANCH   4   7
ATOM      7  C   LIG    1       -3.128  -1.591  -4.504  0.00  0.00    +0.134 A 
ATOM      8  C   LIG    1       -4.004  -2.666  -4.285  0.00  0.00    +0.059 A 
ATOM      9  C   LIG    1       -4.179  -3.660  -3.227  0.00  0.00    +0.032 A 
ATOM     10  C   LIG    1       -5.208  -4.441  -3.594  0.00  0.00    +0.085 A 
ATOM     11  N   LIG    1       -5.700  -4.022  -4.803  0.00  0.00    -0.346 N 
ATOM     12  H   LIG    1       -6.445  -4.430  -5.272  0.00  0.00    +0.167 HD
ATOM     13  C   LIG    1       -4.989  -2.943  -5.250  0.00  0.00    +0.143 A 
ATOM     14  N   LIG    1       -5.050  -2.173  -6.336  0.00  0.00    -0.218 NA
ATOM     15  C   LIG    1       -4.208  -1.176  -6.501  0.00  0.00    +0.225 A 
ATOM     16  N   LIG    1       -3.273  -0.877  -5.617  0.00  0.00    -0.220 NA
ENDBRANCH   4   7
BRANCH   1  19
ATOM     17  C   LIG    1        2.325  -1.406  -2.151  0.00  0.00    +0.132 C 
ATOM     18  N   LIG    1        1.272  -1.507  -1.138  0.00  0.00    -0.299 N 
ATOM     19  C   LIG    1        0.178  -0.724  -1.223  0.00  0.00    +0.236 C 
ATOM     20  O   LIG    1       -0.651  -0.742  -0.338  0.00  0.00    -0.274 OA
BRANCH  18  21
ATOM     21  C   LIG    1        1.407  -2.458  -0.032  0.00  0.00    +0.142 C 
BRANCH  21  22
ATOM     22  C   LIG    1        2.105  -1.789   1.124  0.00  0.00    -0.030 A 
ATOM     23  C   LIG    1        3.484  -1.831   1.216  0.00  0.00    +0.006 A 
ATOM     24  C   LIG    1        4.125  -1.218   2.276  0.00  0.00    +0.020 A 
ATOM     25  C   LIG    1        3.386  -0.562   3.244  0.00  0.00    +0.041 A 
ATOM     26 CL   LIG    1        4.191   0.208   4.576  0.00  0.00    -0.084 Cl
ATOM     27  C   LIG    1        2.007  -0.520   3.151  0.00  0.00    +0.020 A 
ATOM     28  C   LIG    1        1.367  -1.129   2.088  0.00  0.00    +0.006 A 
ENDBRANCH  21  22
ENDBRANCH  18  21
ENDBRANCH   1  19
BRANCH   1  29
ATOM     29  N   LIG    1        0.951   1.279  -2.362  0.00  0.00    -0.317 NA
ATOM     30  H   LIG    1        1.883   0.935  -2.189  0.00  0.00    +0.119 HD
ATOM     31  H   LIG    1        0.681   1.959  -1.667  0.00  0.00    +0.119 HD
ENDBRANCH   1  29
TORSDOF 5
