REMARK  Name = ZINC40873910
REMARK                            x       y       z     vdW  Elec       q    Type
REMARK                         _______ _______ _______ _____ _____    ______ ____
ROOT
ATOM      1  C   LIG    1        0.002  -0.004   0.002  0.00  0.00    +0.196 C 
ATOM      2  N   LIG    1       -1.156  -0.694   0.009  0.00  0.00    -0.308 N 
ATOM      3  H   LIG    1       -2.002  -0.220   0.020  0.00  0.00    +0.149 HD
ATOM      4  O   LIG    1        1.060  -0.596  -0.011  0.00  0.00    -0.278 OA
ENDROOT
BRANCH   1   5
ATOM      5  C   LIG    1       -0.018   1.503   0.010  0.00  0.00    +0.011 C 
BRANCH   5   6
ATOM      6  N   LIG    1        1.360   2.011  -0.000  0.00  0.00    +0.384 N 
ATOM      7  H   LIG    1        1.346   3.020   0.005  0.00  0.00    -0.089 HD
ATOM      8  H   LIG    1        1.832   1.686  -0.830  0.00  0.00    -0.089 HD
ATOM      9  H   LIG    1        1.848   1.677   0.817  0.00  0.00    -0.089 HD
ENDBRANCH   5   6
ENDBRANCH   1   5
BRANCH   2  10
ATOM     10  C   LIG    1       -1.136  -2.159   0.001  0.00  0.00    +0.202 C 
BRANCH  10  11
ATOM     11  C   LIG    1       -2.550  -2.680   0.012  0.00  0.00    +0.253 C 
ATOM     12  N   LIG    1       -2.778  -4.008   0.007  0.00  0.00    -0.196 N 
ATOM     13  H   LIG    1       -2.032  -4.629  -0.003  0.00  0.00    +0.182 HD
ATOM     14  O   LIG    1       -3.482  -1.905   0.025  0.00  0.00    -0.272 OA
BRANCH  12  15
ATOM     15  O   LIG    1       -4.106  -4.499   0.017  0.00  0.00    -0.295 OA
ATOM     16  H   LIG    1       -4.170  -5.464   0.013  0.00  0.00    +0.241 HD
ENDBRANCH  12  15
ENDBRANCH  10  11
ENDBRANCH   2  10
TORSDOF 5
