REMARK  Name = ZINC23282949
REMARK                            x       y       z     vdW  Elec       q    Type
REMARK                         _______ _______ _______ _____ _____    ______ ____
ROOT
ATOM      1  N   LIG    1       -0.909   7.723   1.112  0.00  0.00    +0.384 N 
ATOM      2  H   LIG    1       -1.374   7.354   2.039  0.00  0.00    -0.081 HD
ATOM      3  C   LIG    1       -1.653   7.160  -0.024  0.00  0.00    -0.059 C 
ATOM      4  C   LIG    1       -1.609   5.632   0.048  0.00  0.00    +0.088 C 
ATOM      5  N   LIG    1       -0.210   5.183   0.032  0.00  0.00    -0.319 N 
ATOM      6  C   LIG    1        0.534   5.746   1.168  0.00  0.00    +0.088 C 
ATOM      7  C   LIG    1        0.490   7.274   1.097  0.00  0.00    -0.059 C 
ENDROOT
BRANCH   1  11
ATOM      8  C   LIG    1        0.301  11.817   1.027  0.00  0.00    +0.019 C 
ATOM      9  C   LIG    1       -0.293  11.265   2.324  0.00  0.00    +0.006 C 
ATOM     10  C   LIG    1       -0.208   9.737   2.315  0.00  0.00    -0.015 C 
ATOM     11  C   LIG    1       -0.992   9.190   1.121  0.00  0.00    -0.068 C 
ATOM     12  C   LIG    1       -0.397   9.742  -0.176  0.00  0.00    -0.015 C 
ATOM     13  C   LIG    1       -0.482  11.269  -0.167  0.00  0.00    +0.006 C 
BRANCH   8  17
ATOM     14  C   LIG    1        0.062  16.082   1.052  0.00  0.00    +0.000 A 
ATOM     15  C   LIG    1        1.292  15.459   0.958  0.00  0.00    +0.000 A 
ATOM     16  C   LIG    1        1.370  14.079   0.950  0.00  0.00    +0.004 A 
ATOM     17  C   LIG    1        0.217  13.321   1.036  0.00  0.00    -0.044 A 
ATOM     18  C   LIG    1       -1.014  13.944   1.125  0.00  0.00    +0.004 A 
ATOM     19  C   LIG    1       -1.091  15.324   1.138  0.00  0.00    +0.000 A 
ENDBRANCH   8  17
ENDBRANCH   1  11
BRANCH   5  20
ATOM     20  C   LIG    1       -0.132   3.796   0.024  0.00  0.00    +0.121 A 
ATOM     21  C   LIG    1        1.114   3.175   0.009  0.00  0.00    +0.043 A 
ATOM     22  C   LIG    1        1.176   1.794   0.001  0.00  0.00    +0.005 A 
ATOM     23  C   LIG    1       -0.013   1.076   0.008  0.00  0.00    +0.020 A 
ATOM     24  C   LIG    1       -1.213   1.757   0.017  0.00  0.00    +0.113 A 
ATOM     25  N   LIG    1       -1.243   3.076   0.030  0.00  0.00    -0.240 NA
ENDBRANCH   5  20
TORSDOF 3
