REMARK  Name = ZINC24640039
REMARK                            x       y       z     vdW  Elec       q    Type
REMARK                         _______ _______ _______ _____ _____    ______ ____
ROOT
ATOM      1  C   LIG    1        3.473  -2.827   6.014  0.00  0.00    +0.067 C 
ENDROOT
BRANCH   1   2
ATOM      2  C   LIG    1        3.876  -2.763   7.465  0.00  0.00    -0.045 A 
ATOM      3  C   LIG    1        4.846  -1.866   7.872  0.00  0.00    +0.007 A 
ATOM      4  C   LIG    1        5.214  -1.801   9.203  0.00  0.00    +0.049 A 
ATOM      5  C   LIG    1        4.616  -2.645  10.128  0.00  0.00    +0.157 A 
ATOM      6  C   LIG    1        3.647  -3.548   9.715  0.00  0.00    +0.049 A 
ATOM      7  C   LIG    1        3.279  -3.605   8.385  0.00  0.00    +0.007 A 
BRANCH   5   8
ATOM      8  O   LIG    1        4.979  -2.587  11.436  0.00  0.00    -0.342 OA
BRANCH   8   9
ATOM      9  S   LIG    1        6.131  -3.513  11.801  0.00  0.00    +0.152 S 
ATOM     10  O   LIG    1        5.928  -4.718  11.076  0.00  0.00    -0.131 OA
ATOM     11  O   LIG    1        6.241  -3.485  13.217  0.00  0.00    -0.131 OA
BRANCH   9  12
ATOM     12  C   LIG    1        7.605  -2.786  11.166  0.00  0.00    +0.136 A 
ATOM     13  C   LIG    1        8.116  -3.204   9.975  0.00  0.00    +0.031 A 
ATOM     14  C   LIG    1        9.281  -2.641   9.458  0.00  0.00    +0.003 A 
ATOM     15  C   LIG    1        9.941  -1.657  10.129  0.00  0.00    +0.010 A 
ATOM     16  C   LIG    1        9.444  -1.201  11.359  0.00  0.00    +0.005 A 
ATOM     17  C   LIG    1       10.101  -0.182  12.083  0.00  0.00    +0.037 A 
ATOM     18  C   LIG    1        9.579   0.236  13.288  0.00  0.00    +0.024 A 
ATOM     19  C   LIG    1        8.414  -0.333  13.795  0.00  0.00    +0.002 A 
ATOM     20  C   LIG    1        7.760  -1.317  13.118  0.00  0.00    +0.010 A 
ATOM     21  C   LIG    1        8.256  -1.768  11.883  0.00  0.00    +0.012 A 
BRANCH  17  22
ATOM     22  N   LIG    1       11.267   0.394  11.584  0.00  0.00    -0.336 N 
ATOM     23  C   LIG    1       12.409   0.119  12.466  0.00  0.00    +0.129 C 
ATOM     24  C   LIG    1       11.095   1.839  11.381  0.00  0.00    +0.129 C 
ENDBRANCH  17  22
ENDBRANCH   9  12
ENDBRANCH   8   9
ENDBRANCH   5   8
ENDBRANCH   1   2
BRANCH   1  25
ATOM     25  C   LIG    1        2.314  -1.860   5.763  0.00  0.00    +0.189 C 
BRANCH  25  26
ATOM     26  N   LIG    1        1.136  -2.305   6.513  0.00  0.00    -0.176 NA
ATOM     27  H   LIG    1        0.827  -3.360   6.475  0.00  0.00    +0.149 HD
BRANCH  26  28
ATOM     28  S   LIG    1        0.131  -1.192   7.213  0.00  0.00    +0.060 S 
ATOM     29  O   LIG    1       -0.906  -1.925   7.851  0.00  0.00    -0.153 OA
ATOM     30  O   LIG    1        0.962  -0.279   7.916  0.00  0.00    -0.153 OA
BRANCH  28  36
ATOM     31  C   LIG    1       -2.972  -0.818   3.069  0.00  0.00    +0.037 A 
ATOM     32  C   LIG    1       -3.229  -2.164   3.221  0.00  0.00    +0.024 A 
ATOM     33  C   LIG    1       -2.635  -2.889   4.249  0.00  0.00    +0.002 A 
ATOM     34  C   LIG    1       -1.786  -2.293   5.132  0.00  0.00    +0.010 A 
ATOM     35  C   LIG    1       -1.498  -0.923   5.012  0.00  0.00    +0.010 A 
ATOM     36  C   LIG    1       -0.627  -0.281   5.909  0.00  0.00    +0.113 A 
ATOM     37  C   LIG    1       -0.370   1.048   5.763  0.00  0.00    +0.029 A 
ATOM     38  C   LIG    1       -0.960   1.784   4.738  0.00  0.00    +0.003 A 
ATOM     39  C   LIG    1       -1.808   1.195   3.851  0.00  0.00    +0.010 A 
ATOM     40  C   LIG    1       -2.092  -0.174   3.966  0.00  0.00    +0.005 A 
BRANCH  31  42
ATOM     41  C   LIG    1       -5.036  -0.143   2.147  0.00  0.00    +0.129 C 
ATOM     42  N   LIG    1       -3.572  -0.100   2.037  0.00  0.00    -0.336 N 
ATOM     43  C   LIG    1       -3.128  -0.593   0.726  0.00  0.00    +0.129 C 
ENDBRANCH  31  42
ENDBRANCH  28  36
ENDBRANCH  26  28
ENDBRANCH  25  26
BRANCH  25  44
ATOM     44  C   LIG    1        1.992  -1.833   4.292  0.00  0.00    +0.324 C 
ATOM     45  O   LIG    1        0.891  -2.152   3.908  0.00  0.00    -0.249 OA
BRANCH  44  46
ATOM     46  O   LIG    1        2.927  -1.453   3.407  0.00  0.00    -0.479 OA
ATOM     47  H   LIG    1        3.780  -1.205   3.704  0.00  0.00    +0.295 HD
ENDBRANCH  44  46
ENDBRANCH  25  44
ENDBRANCH   1  25
TORSDOF 12
