REMARK  Name = ZINC13760950
REMARK                            x       y       z     vdW  Elec       q    Type
REMARK                         _______ _______ _______ _____ _____    ______ ____
ROOT
ATOM      1  C   LIG    1        5.882  -1.921  -6.518  0.00  0.00    +0.067 C 
ATOM      2  C   LIG    1        6.087  -2.036  -5.029  0.00  0.00    +0.053 A 
ATOM      3  N   LIG    1        5.259  -1.572  -4.089  0.00  0.00    -0.339 N 
ATOM      4  H   LIG    1        4.378  -1.075  -4.266  0.00  0.00    +0.167 HD
ATOM      5  C   LIG    1        5.751  -1.855  -2.894  0.00  0.00    +0.160 A 
ATOM      6  C   LIG    1        5.287  -1.589  -1.585  0.00  0.00    +0.162 A 
ATOM      7  C   LIG    1        6.029  -2.004  -0.518  0.00  0.00    +0.051 A 
ATOM      8  C   LIG    1        7.242  -2.682  -0.733  0.00  0.00    +0.022 A 
ATOM      9  C   LIG    1        7.675  -2.925  -1.986  0.00  0.00    +0.094 A 
ATOM     10  N   LIG    1        6.944  -2.515  -3.070  0.00  0.00    -0.287 N 
ATOM     11  C   LIG    1        7.145  -2.627  -4.418  0.00  0.00    +0.121 A 
ENDROOT
BRANCH  11  12
ATOM     12  N   LIG    1        8.236  -3.238  -5.049  0.00  0.00    -0.343 N 
ATOM     13  H   LIG    1        8.283  -3.264  -6.017  0.00  0.00    +0.144 HD
ATOM     14  H   LIG    1        8.944  -3.634  -4.517  0.00  0.00    +0.144 HD
ENDBRANCH  11  12
BRANCH   6  15
ATOM     15  O   LIG    1        4.113  -0.932  -1.391  0.00  0.00    -0.484 OA
BRANCH  15  16
ATOM     16  C   LIG    1        3.711  -0.707  -0.039  0.00  0.00    +0.264 C 
BRANCH  16  17
ATOM     17  C   LIG    1        2.396   0.029  -0.022  0.00  0.00    -0.010 A 
ATOM     18  C   LIG    1        1.208  -0.679  -0.014  0.00  0.00    +0.007 A 
ATOM     19  C   LIG    1        0.002  -0.004   0.002  0.00  0.00    +0.000 A 
ATOM     20  C   LIG    1       -0.017   1.378   0.010  0.00  0.00    +0.000 A 
ATOM     21  C   LIG    1        1.171   2.086   0.002  0.00  0.00    +0.000 A 
ATOM     22  C   LIG    1        2.377   1.411  -0.014  0.00  0.00    +0.007 A 
ENDBRANCH  16  17
ENDBRANCH  15  16
ENDBRANCH   6  15
TORSDOF 4
