REMARK  Name = ZINC28110500
REMARK                            x       y       z     vdW  Elec       q    Type
REMARK                         _______ _______ _______ _____ _____    ______ ____
ROOT
ATOM      1  C   LIG    1        2.468   3.766   0.251  0.00  0.00    -0.010 A 
ATOM      2  C   LIG    1        2.477   5.155   0.174  0.00  0.00    +0.009 A 
ATOM      3  C   LIG    1        1.346   5.825  -0.245  0.00  0.00    +0.001 A 
ATOM      4  C   LIG    1        0.210   5.116  -0.586  0.00  0.00    +0.004 A 
ATOM      5  C   LIG    1        0.194   3.731  -0.510  0.00  0.00    -0.041 A 
ATOM      6  C   LIG    1       -1.075   3.007  -0.883  0.00  0.00    +0.050 C 
ATOM      7  C   LIG    1       -0.777   1.528  -1.135  0.00  0.00    +0.086 C 
ATOM      8  N   LIG    1       -0.012   1.005   0.008  0.00  0.00    -0.312 NA
ATOM      9  H   LIG    1        0.031  -0.092  -0.060  0.00  0.00    +0.122 HD
ATOM     10  C   LIG    1        1.350   1.549  -0.003  0.00  0.00    +0.117 C 
ATOM     11  C   LIG    1        1.317   3.052  -0.096  0.00  0.00    -0.023 A 
ENDROOT
BRANCH   1  17
ATOM     12  C   LIG    1        4.360   2.194  -0.181  0.00  0.00    +0.128 A 
ATOM     13  C   LIG    1        5.493   1.521   0.247  0.00  0.00    +0.046 A 
ATOM     14  C   LIG    1        5.950   1.687   1.541  0.00  0.00    +0.004 A 
ATOM     15  C   LIG    1        5.280   2.525   2.415  0.00  0.00    +0.001 A 
ATOM     16  C   LIG    1        4.154   3.205   2.001  0.00  0.00    +0.012 A 
ATOM     17  C   LIG    1        3.682   3.041   0.700  0.00  0.00    +0.024 A 
BRANCH  12  19
ATOM     18  C   LIG    1        4.655   1.151  -2.296  0.00  0.00    +0.277 C 
ATOM     19  O   LIG    1        3.911   2.032  -1.452  0.00  0.00    -0.495 OA
ENDBRANCH  12  19
ENDBRANCH   1  17
TORSDOF 2
