REMARK  Name = ZINC53093622
REMARK                            x       y       z     vdW  Elec       q    Type
REMARK                         _______ _______ _______ _____ _____    ______ ____
ROOT
ATOM      1  C   LIG    1       -0.017   1.377   0.010  0.00  0.00    +0.001 A 
ATOM      2  C   LIG    1        1.168   2.094   0.002  0.00  0.00    +0.002 A 
ATOM      3  C   LIG    1        2.385   1.439  -0.035  0.00  0.00    +0.026 A 
ATOM      4  C   LIG    1        2.418   0.054  -0.054  0.00  0.00    +0.050 A 
ATOM      5  C   LIG    1        1.222  -0.672  -0.008  0.00  0.00    +0.039 A 
ATOM      6  C   LIG    1        1.292  -2.146   0.091  0.00  0.00    +0.117 A 
ATOM      7  N   LIG    1        0.752  -2.899  -0.824  0.00  0.00    -0.360 N 
ATOM      8  C   LIG    1        0.065  -2.307  -1.982  0.00  0.00    +0.098 C 
ATOM      9  C   LIG    1        0.614  -2.956  -3.257  0.00  0.00    -0.061 C 
ATOM     10  N   LIG    1        0.484  -4.415  -3.156  0.00  0.00    +0.381 N 
ATOM     11  H   LIG    1        0.776  -4.838  -4.025  0.00  0.00    -0.086 HD
ATOM     12  H   LIG    1       -0.479  -4.655  -2.975  0.00  0.00    -0.086 HD
ATOM     13  C   LIG    1        1.326  -4.918  -2.063  0.00  0.00    -0.061 C 
ATOM     14  C   LIG    1        0.818  -4.366  -0.732  0.00  0.00    +0.098 C 
ATOM     15  N   LIG    1        1.938  -2.707   1.169  0.00  0.00    -0.339 N 
ATOM     16  H   LIG    1        1.431  -3.276   1.768  0.00  0.00    +0.167 HD
ATOM     17  C   LIG    1        3.298  -2.492   1.438  0.00  0.00    +0.066 A 
ATOM     18  C   LIG    1        3.871  -3.325   2.401  0.00  0.00    +0.047 A 
ATOM     19  C   LIG    1        5.203  -3.199   2.741  0.00  0.00    +0.043 A 
ATOM     20 CL   LIG    1        5.898  -4.244   3.940  0.00  0.00    -0.083 Cl
ATOM     21  C   LIG    1        5.982  -2.237   2.123  0.00  0.00    +0.022 A 
ATOM     22  C   LIG    1        5.424  -1.410   1.172  0.00  0.00    +0.029 A 
ATOM     23  C   LIG    1        4.077  -1.530   0.820  0.00  0.00    +0.063 A 
ATOM     24  N   LIG    1        3.609  -0.647  -0.155  0.00  0.00    -0.353 N 
ATOM     25  H   LIG    1        4.149  -0.518  -0.951  0.00  0.00    +0.166 HD
ATOM     26  C   LIG    1        0.002  -0.004   0.002  0.00  0.00    +0.013 A 
ENDROOT
TORSDOF 0
