REMARK  Name = ZINC17919916
REMARK                            x       y       z     vdW  Elec       q    Type
REMARK                         _______ _______ _______ _____ _____    ______ ____
ROOT
ATOM      1  N   LIG    1        1.475  -3.986  -2.532  0.00  0.00    -0.384 N 
ATOM      2  H   LIG    1        2.210  -4.399  -2.052  0.00  0.00    +0.160 HD
ATOM      3  C   LIG    1        0.770  -4.691  -3.389  0.00  0.00    +0.046 A 
ATOM      4  C   LIG    1        0.714  -6.159  -3.317  0.00  0.00    +0.043 A 
ATOM      5  C   LIG    1       -0.210  -6.812  -4.045  0.00  0.00    +0.088 A 
ATOM      6  N   LIG    1       -1.102  -6.155  -4.840  0.00  0.00    -0.342 N 
ATOM      7  C   LIG    1       -0.935  -4.826  -5.177  0.00  0.00    +0.051 A 
ATOM      8  C   LIG    1       -1.673  -4.247  -6.202  0.00  0.00    +0.026 A 
ATOM      9  C   LIG    1       -1.501  -2.916  -6.505  0.00  0.00    +0.002 A 
ATOM     10  C   LIG    1       -0.584  -2.145  -5.807  0.00  0.00    +0.001 A 
ATOM     11  C   LIG    1        0.164  -2.702  -4.791  0.00  0.00    +0.012 A 
ATOM     12  C   LIG    1       -0.009  -4.044  -4.470  0.00  0.00    +0.022 A 
ENDROOT
BRANCH   1  13
ATOM     13  C   LIG    1        1.151  -2.576  -2.302  0.00  0.00    +0.113 C 
BRANCH  13  14
ATOM     14  C   LIG    1        0.947  -2.337  -0.804  0.00  0.00    +0.021 C 
BRANCH  14  15
ATOM     15  C   LIG    1        0.608  -0.865  -0.563  0.00  0.00    +0.001 C 
BRANCH  15  17
ATOM     16  C   LIG    1        0.066   0.846   1.175  0.00  0.00    +0.004 C 
ATOM     17  C   LIG    1        0.404  -0.627   0.934  0.00  0.00    -0.003 C 
ENDBRANCH  15  17
ENDBRANCH  14  15
ENDBRANCH  13  14
ENDBRANCH   1  13
BRANCH   6  18
ATOM     18  C   LIG    1       -2.269  -6.878  -5.350  0.00  0.00    +0.157 C 
BRANCH  18  19
ATOM     19  C   LIG    1       -3.410  -6.742  -4.375  0.00  0.00    -0.028 A 
ATOM     20  C   LIG    1       -3.565  -7.665  -3.358  0.00  0.00    +0.005 A 
ATOM     21  C   LIG    1       -4.612  -7.540  -2.464  0.00  0.00    +0.000 A 
ATOM     22  C   LIG    1       -5.504  -6.491  -2.587  0.00  0.00    +0.000 A 
ATOM     23  C   LIG    1       -5.348  -5.567  -3.603  0.00  0.00    +0.000 A 
ATOM     24  C   LIG    1       -4.299  -5.690  -4.495  0.00  0.00    +0.005 A 
ENDBRANCH  18  19
ENDBRANCH   6  18
TORSDOF 6
