REMARK  Name = ZINC49872110
REMARK                            x       y       z     vdW  Elec       q    Type
REMARK                         _______ _______ _______ _____ _____    ______ ____
ROOT
ATOM      1  C   LIG    1        2.674  -7.531  -0.230  0.00  0.00    +0.017 A 
ATOM      2  C   LIG    1        3.880  -7.581   0.471  0.00  0.00    +0.013 A 
ATOM      3  C   LIG    1        4.445  -8.801   0.780  0.00  0.00    +0.029 A 
ATOM      4  C   LIG    1        3.819  -9.974   0.396  0.00  0.00    +0.106 A 
ATOM      5  C   LIG    1        2.624  -9.932  -0.299  0.00  0.00    +0.029 A 
ATOM      6  C   LIG    1        2.045  -8.718  -0.610  0.00  0.00    +0.013 A 
ENDROOT
BRANCH   1  12
ATOM      7  N   LIG    1        0.638  -2.014  -1.321  0.00  0.00    -0.259 N 
ATOM      8  C   LIG    1        1.673  -2.651  -0.735  0.00  0.00    +0.282 A 
ATOM      9  C   LIG    1        1.705  -4.062  -0.738  0.00  0.00    +0.149 A 
ATOM     10  C   LIG    1        0.667  -4.762  -1.345  0.00  0.00    +0.166 A 
ATOM     11  N   LIG    1        0.928  -6.062  -1.215  0.00  0.00    -0.210 NA
ATOM     12  C   LIG    1        2.062  -6.228  -0.564  0.00  0.00    +0.141 A 
ATOM     13  N   LIG    1       -0.367  -4.047  -1.931  0.00  0.00    -0.291 N 
ATOM     14  H   LIG    1       -1.099  -4.518  -2.359  0.00  0.00    +0.172 HD
ATOM     15  N   LIG    1        2.581  -5.010  -0.247  0.00  0.00    -0.332 N 
ATOM     16  H   LIG    1        3.408  -4.840   0.231  0.00  0.00    +0.168 HD
ATOM     17  O   LIG    1        2.570  -2.016  -0.208  0.00  0.00    -0.265 OA
ATOM     18  C   LIG    1       -0.360  -2.701  -1.900  0.00  0.00    +0.331 A 
ATOM     19  O   LIG    1       -1.279  -2.092  -2.414  0.00  0.00    -0.246 OA
BRANCH   7  20
ATOM     20  C   LIG    1        0.600  -0.549  -1.320  0.00  0.00    +0.130 C 
BRANCH  20  22
ATOM     21  C   LIG    1       -0.167   1.471  -0.066  0.00  0.00    +0.005 C 
ATOM     22  C   LIG    1       -0.127  -0.058  -0.067  0.00  0.00    +0.018 C 
ENDBRANCH  20  22
ENDBRANCH   7  20
ENDBRANCH   1  12
BRANCH   4  23
ATOM     23  S   LIG    1        4.549 -11.527   0.793  0.00  0.00    +0.061 S 
ATOM     24  O   LIG    1        5.939 -11.291   0.969  0.00  0.00    -0.153 OA
ATOM     25  O   LIG    1        4.048 -12.464  -0.151  0.00  0.00    -0.153 OA
BRANCH  23  26
ATOM     26  N   LIG    1        3.956 -11.983   2.271  0.00  0.00    -0.174 NA
ATOM     27  C   LIG    1        4.645 -11.587   3.508  0.00  0.00    +0.128 C 
ATOM     28  C   LIG    1        3.647 -10.853   4.412  0.00  0.00    +0.122 C 
ATOM     29  N   LIG    1        2.422 -11.659   4.511  0.00  0.00    -0.327 N 
ATOM     30  C   LIG    1        1.733 -12.055   3.274  0.00  0.00    +0.122 C 
ATOM     31  C   LIG    1        2.728 -12.784   2.370  0.00  0.00    +0.128 C 
BRANCH  29  32
ATOM     32  C   LIG    1        1.922 -12.043   5.758  0.00  0.00    +0.030 A 
ATOM     33  C   LIG    1        2.642 -11.763   6.912  0.00  0.00    +0.024 A 
ATOM     34  C   LIG    1        2.145 -12.143   8.143  0.00  0.00    +0.022 A 
ATOM     35  C   LIG    1        0.931 -12.803   8.227  0.00  0.00    +0.041 A 
ATOM     36 CL   LIG    1        0.310 -13.281   9.777  0.00  0.00    -0.084 Cl
ATOM     37  C   LIG    1        0.212 -13.084   7.079  0.00  0.00    +0.022 A 
ATOM     38  C   LIG    1        0.702 -12.701   5.846  0.00  0.00    +0.024 A 
ENDBRANCH  29  32
ENDBRANCH  23  26
ENDBRANCH   4  23
TORSDOF 6
