REMARK  Name = ZINC34285231
REMARK                            x       y       z     vdW  Elec       q    Type
REMARK                         _______ _______ _______ _____ _____    ______ ____
ROOT
ATOM      1  C   LIG    1        2.841   0.055  -2.381  0.00  0.00    +0.198 A 
ATOM      2  N   LIG    1        4.111   0.417  -2.325  0.00  0.00    -0.312 N 
ATOM      3  H   LIG    1        4.532   0.577  -1.466  0.00  0.00    +0.170 HD
ATOM      4  C   LIG    1        4.819   0.563  -3.458  0.00  0.00    +0.143 A 
ATOM      5  C   LIG    1        6.128   0.921  -3.725  0.00  0.00    +0.017 A 
ATOM      6  C   LIG    1        6.295   0.902  -5.106  0.00  0.00    +0.141 A 
ATOM      7  N   LIG    1        5.162   0.554  -5.668  0.00  0.00    -0.170 NA
ATOM      8  N   LIG    1        4.211   0.333  -4.668  0.00  0.00    -0.185 N 
ATOM      9  C   LIG    1        2.894  -0.041  -4.689  0.00  0.00    +0.221 A 
ATOM     10  N   LIG    1        2.240  -0.177  -3.553  0.00  0.00    -0.183 NA
ENDROOT
BRANCH   5  11
ATOM     11  C   LIG    1        7.181   1.268  -2.705  0.00  0.00    +0.018 C 
ATOM     12  C   LIG    1        7.675   2.696  -2.947  0.00  0.00    +0.012 C 
ATOM     13  C   LIG    1        8.355   0.295  -2.832  0.00  0.00    +0.012 C 
ENDBRANCH   5  11
BRANCH   1  14
ATOM     14  N   LIG    1        2.125  -0.091  -1.209  0.00  0.00    -0.310 N 
ATOM     15  H   LIG    1        2.553   0.075  -0.355  0.00  0.00    +0.149 HD
BRANCH  14  16
ATOM     16  CA  LIG    1        0.718  -0.497  -1.257  0.00  0.00    +0.098 C 
BRANCH  16  18
ATOM     17  C   LIG    1       -0.019   1.526   0.010  0.00  0.00    +0.006 C 
ATOM     18  C   LIG    1        0.002  -0.004   0.002  0.00  0.00    +0.021 C 
ENDBRANCH  16  18
BRANCH  16  19
ATOM     19  C   LIG    1        0.630  -2.023  -1.329  0.00  0.00    +0.178 C 
BRANCH  19  20
ATOM     20  O   LIG    1        1.146  -2.587  -0.121  0.00  0.00    -0.393 OA
ATOM     21  H   LIG    1        1.122  -3.554  -0.097  0.00  0.00    +0.209 HD
ENDBRANCH  19  20
ENDBRANCH  16  19
ENDBRANCH  14  16
ENDBRANCH   1  14
BRANCH   9  22
ATOM     22  N   LIG    1        2.263  -0.277  -5.883  0.00  0.00    -0.309 N 
ATOM     23  H   LIG    1        2.750  -0.180  -6.716  0.00  0.00    +0.149 HD
BRANCH  22  24
ATOM     24  C   LIG    1        0.854  -0.677  -5.899  0.00  0.00    +0.139 C 
BRANCH  24  25
ATOM     25  C   LIG    1        0.404  -0.873  -7.324  0.00  0.00    -0.030 A 
ATOM     26  C   LIG    1       -0.122   0.190  -8.035  0.00  0.00    +0.005 A 
ATOM     27  C   LIG    1       -0.535   0.010  -9.342  0.00  0.00    +0.000 A 
ATOM     28  C   LIG    1       -0.420  -1.232  -9.939  0.00  0.00    +0.000 A 
ATOM     29  C   LIG    1        0.107  -2.294  -9.228  0.00  0.00    +0.000 A 
ATOM     30  C   LIG    1        0.523  -2.113  -7.922  0.00  0.00    +0.005 A 
ENDBRANCH  24  25
ENDBRANCH  22  24
ENDBRANCH   9  22
TORSDOF 9
