REMARK  Name = ZINC28232207
REMARK                            x       y       z     vdW  Elec       q    Type
REMARK                         _______ _______ _______ _____ _____    ______ ____
ROOT
ATOM      1  C   LIG    1       -3.089   4.416   4.564  0.00  0.00    +0.000 A 
ATOM      2  C   LIG    1       -2.318   5.289   3.818  0.00  0.00    +0.000 A 
ATOM      3  C   LIG    1       -1.606   4.821   2.732  0.00  0.00    +0.005 A 
ATOM      4  C   LIG    1       -1.658   3.479   2.385  0.00  0.00    -0.030 A 
ATOM      5  C   LIG    1       -2.425   2.609   3.130  0.00  0.00    -0.042 A 
ATOM      6  C   LIG    1       -2.505   1.141   2.798  0.00  0.00    +0.051 C 
ATOM      7  C   LIG    1       -2.007   0.901   1.373  0.00  0.00    +0.090 C 
ATOM      8  N   LIG    1       -0.700   1.560   1.217  0.00  0.00    -0.292 NA
ATOM      9  C   LIG    1       -0.866   3.016   1.190  0.00  0.00    +0.120 C 
ATOM     10  C   LIG    1       -3.142   3.081   4.219  0.00  0.00    +0.004 A 
ENDROOT
BRANCH   8  11
ATOM     11  C   LIG    1       -0.013   1.086   0.008  0.00  0.00    +0.085 C 
ATOM     12  C   LIG    1       -0.753   1.593  -1.232  0.00  0.00    +0.021 C 
ATOM     13  C   LIG    1       -0.037   1.099  -2.490  0.00  0.00    +0.002 C 
ATOM     14  C   LIG    1        1.399   1.629  -2.501  0.00  0.00    +0.003 C 
ATOM     15  C   LIG    1        2.139   1.122  -1.262  0.00  0.00    +0.033 C 
ATOM     16  C   LIG    1        1.423   1.615  -0.003  0.00  0.00    +0.132 C 
BRANCH  16  17
ATOM     17  O   LIG    1        2.114   1.142   1.155  0.00  0.00    -0.390 OA
ATOM     18  H   LIG    1        3.165   1.421   1.321  0.00  0.00    +0.210 HD
ENDBRANCH  16  17
ENDBRANCH   8  11
TORSDOF 2
