REMARK  Name = ZINC28955411
REMARK                            x       y       z     vdW  Elec       q    Type
REMARK                         _______ _______ _______ _____ _____    ______ ____
ROOT
ATOM      1  C   LIG    1       -2.502  -3.036   0.763  0.00  0.00    +0.095 C 
ATOM      2  C   LIG    1       -3.763  -2.178   0.882  0.00  0.00    +0.044 C 
ATOM      3  C   LIG    1       -3.743  -1.094  -0.200  0.00  0.00    +0.110 C 
ATOM      4  N   LIG    1       -2.487  -0.339  -0.090  0.00  0.00    -0.297 N 
ATOM      5  C   LIG    1       -2.501   1.004   0.019  0.00  0.00    +0.247 C 
ATOM      6  O   LIG    1       -3.558   1.594   0.135  0.00  0.00    -0.270 OA
ATOM      7  C   LIG    1       -1.216  -1.076  -0.108  0.00  0.00    +0.110 C 
ATOM      8  C   LIG    1       -1.265  -2.160   0.979  0.00  0.00    +0.044 C 
ENDROOT
BRANCH   1  18
ATOM      9  C   LIG    1       -2.498  -8.229   1.666  0.00  0.00    +0.002 A 
ATOM     10  C   LIG    1       -2.456  -7.596   0.436  0.00  0.00    +0.002 A 
ATOM     11  C   LIG    1       -2.462  -6.217   0.362  0.00  0.00    +0.028 A 
ATOM     12  C   LIG    1       -2.513  -5.463   1.524  0.00  0.00    +0.070 A 
ATOM     13  C   LIG    1       -2.556  -6.102   2.765  0.00  0.00    +0.067 A 
ATOM     14  N   LIG    1       -2.600  -5.100   3.732  0.00  0.00    -0.306 N 
ATOM     15  C   LIG    1       -2.580  -3.907   3.108  0.00  0.00    +0.328 A 
ATOM     16  O   LIG    1       -2.605  -2.825   3.664  0.00  0.00    -0.247 OA
ATOM     17  H   LIG    1       -2.643  -5.367   4.799  0.00  0.00    +0.170 HD
ATOM     18  N   LIG    1       -2.533  -4.094   1.776  0.00  0.00    -0.289 N 
ATOM     19  C   LIG    1       -2.548  -7.487   2.830  0.00  0.00    +0.028 A 
ENDBRANCH   1  18
BRANCH   5  20
ATOM     20  C   LIG    1       -1.233   1.759  -0.002  0.00  0.00    +0.041 A 
ATOM     21  C   LIG    1       -0.226   1.412  -0.905  0.00  0.00    +0.017 A 
ATOM     22  C   LIG    1        0.955   2.122  -0.927  0.00  0.00    +0.050 A 
ATOM     23  C   LIG    1        1.151   3.179  -0.049  0.00  0.00    +0.166 A 
ATOM     24  C   LIG    1        0.151   3.527   0.860  0.00  0.00    +0.167 A 
ATOM     25  O   LIG    1        0.587   4.588   1.602  0.00  0.00    -0.453 OA
ATOM     26  C   LIG    1        1.692   5.143   0.865  0.00  0.00    +0.466 C 
ATOM     27  O   LIG    1        2.210   4.021   0.126  0.00  0.00    -0.453 OA
ATOM     28  C   LIG    1       -1.035   2.820   0.886  0.00  0.00    +0.062 A 
ENDBRANCH   5  20
TORSDOF 2
