REMARK  Name = ZINC34258590
REMARK                            x       y       z     vdW  Elec       q    Type
REMARK                         _______ _______ _______ _____ _____    ______ ____
ROOT
ATOM      1  C   LIG    1       -4.987  -2.627   0.035  0.00  0.00    +0.040 C 
ENDROOT
BRANCH   1   5
ATOM      2  C   LIG    1       -1.201  -0.638   0.010  0.00  0.00    +0.161 A 
ATOM      3  C   LIG    1       -2.374   0.099   0.019  0.00  0.00    +0.049 A 
ATOM      4  C   LIG    1       -3.596  -0.546   0.027  0.00  0.00    +0.007 A 
ATOM      5  C   LIG    1       -3.652  -1.928   0.026  0.00  0.00    -0.043 A 
ATOM      6  C   LIG    1       -2.485  -2.669   0.017  0.00  0.00    +0.053 A 
ATOM      7  C   LIG    1       -1.257  -2.028   0.003  0.00  0.00    +0.162 A 
BRANCH   2   9
ATOM      8  C   LIG    1       -0.017   1.425   0.010  0.00  0.00    +0.277 C 
ATOM      9  O   LIG    1        0.002  -0.004   0.002  0.00  0.00    -0.491 OA
ENDBRANCH   2   9
BRANCH   7  10
ATOM     10  O   LIG    1       -0.108  -2.756  -0.012  0.00  0.00    -0.491 OA
ATOM     11  C   LIG    1       -0.242  -4.179  -0.018  0.00  0.00    +0.277 C 
ENDBRANCH   7  10
ENDBRANCH   1   5
BRANCH   1  12
ATOM     12  C   LIG    1       -5.449  -2.862  -1.404  0.00  0.00    +0.040 C 
BRANCH  12  13
ATOM     13  C   LIG    1       -6.784  -3.561  -1.395  0.00  0.00    -0.047 A 
ATOM     14  C   LIG    1       -6.840  -4.942  -1.391  0.00  0.00    +0.005 A 
ATOM     15  C   LIG    1       -8.061  -5.586  -1.383  0.00  0.00    +0.023 A 
ATOM     16  C   LIG    1       -9.236  -4.844  -1.379  0.00  0.00    +0.025 A 
ATOM     17  C   LIG    1       -9.177  -3.456  -1.384  0.00  0.00    +0.023 A 
ATOM     18  C   LIG    1       -7.951  -2.819  -1.386  0.00  0.00    +0.005 A 
BRANCH  16  19
ATOM     19  N   LIG    1      -10.473  -5.492  -1.371  0.00  0.00    -0.358 N 
ATOM     20  H   LIG    1      -11.292  -4.973  -1.369  0.00  0.00    +0.142 HD
ATOM     21  H   LIG    1      -10.513  -6.461  -1.368  0.00  0.00    +0.142 HD
ENDBRANCH  16  19
ENDBRANCH  12  13
ENDBRANCH   1  12
TORSDOF 6
