REMARK  Name = ZINC40164424
REMARK                            x       y       z     vdW  Elec       q    Type
REMARK                         _______ _______ _______ _____ _____    ______ ____
ROOT
ATOM      1  C   LIG    1        3.270  -2.462   3.696  0.00  0.00    +0.178 C 
ATOM      2  C   LIG    1        4.733  -2.019   3.779  0.00  0.00    +0.177 C 
ATOM      3  C   LIG    1        5.299  -2.407   5.148  0.00  0.00    +0.179 C 
ATOM      4  C   LIG    1        5.138  -3.918   5.346  0.00  0.00    +0.201 C 
ATOM      5  C   LIG    1        3.659  -4.288   5.202  0.00  0.00    +0.285 C 
ATOM      6  O   LIG    1        3.187  -3.872   3.919  0.00  0.00    -0.340 OA
ENDROOT
BRANCH   4   7
ATOM      7  O   LIG    1        5.598  -4.281   6.649  0.00  0.00    -0.384 OA
ATOM      8  H   LIG    1        5.525  -5.226   6.842  0.00  0.00    +0.210 HD
ENDBRANCH   4   7
BRANCH   3   9
ATOM      9  O   LIG    1        6.684  -2.061   5.209  0.00  0.00    -0.386 OA
ATOM     10  H   LIG    1        7.108  -2.279   6.050  0.00  0.00    +0.210 HD
ENDBRANCH   3   9
BRANCH   2  11
ATOM     11  O   LIG    1        4.812  -0.602   3.613  0.00  0.00    -0.386 OA
ATOM     12  H   LIG    1        5.712  -0.250   3.655  0.00  0.00    +0.210 HD
ENDBRANCH   2  11
BRANCH   1  13
ATOM     13  C   LIG    1        2.714  -2.132   2.309  0.00  0.00    +0.197 C 
BRANCH  13  14
ATOM     14  O   LIG    1        1.323  -2.456   2.264  0.00  0.00    -0.346 OA
BRANCH  14  19
ATOM     15  C   LIG    1        0.143  -0.394  -0.490  0.00  0.00    +0.178 C 
ATOM     16  C   LIG    1       -1.327  -0.820  -0.525  0.00  0.00    +0.177 C 
ATOM     17  C   LIG    1       -1.418  -2.332  -0.300  0.00  0.00    +0.179 C 
ATOM     18  C   LIG    1       -0.744  -2.681   1.030  0.00  0.00    +0.201 C 
ATOM     19  C   LIG    1        0.704  -2.183   1.005  0.00  0.00    +0.282 C 
ATOM     20  O   LIG    1        0.719  -0.775   0.761  0.00  0.00    -0.341 OA
BRANCH  18  21
ATOM     21  O   LIG    1       -0.760  -4.098   1.216  0.00  0.00    -0.384 OA
ATOM     22  H   LIG    1       -0.348  -4.390   2.041  0.00  0.00    +0.210 HD
ENDBRANCH  18  21
BRANCH  17  23
ATOM     23  O   LIG    1       -2.791  -2.728  -0.261  0.00  0.00    -0.386 OA
ATOM     24  H   LIG    1       -2.923  -3.675  -0.121  0.00  0.00    +0.210 HD
ENDBRANCH  17  23
BRANCH  16  25
ATOM     25  O   LIG    1       -2.046  -0.138   0.504  0.00  0.00    -0.386 OA
ATOM     26  H   LIG    1       -2.986  -0.361   0.541  0.00  0.00    +0.210 HD
ENDBRANCH  16  25
BRANCH  15  27
ATOM     27  C   LIG    1        0.239   1.124  -0.654  0.00  0.00    +0.190 C 
BRANCH  27  28
ATOM     28  O   LIG    1        1.613   1.508  -0.738  0.00  0.00    -0.392 OA
ATOM     29  H   LIG    1        1.749   2.460  -0.843  0.00  0.00    +0.210 HD
ENDBRANCH  27  28
ENDBRANCH  15  27
ENDBRANCH  14  19
ENDBRANCH  13  14
ENDBRANCH   1  13
BRANCH   5  30
ATOM     30  O   LIG    1        3.508  -5.703   5.329  0.00  0.00    -0.313 OA
BRANCH  30  31
ATOM     31  C   LIG    1        2.208  -6.113   5.756  0.00  0.00    +0.225 C 
ATOM     32  C   LIG    1        2.199  -7.633   6.023  0.00  0.00    +0.207 C 
ATOM     33  C   LIG    1        2.380  -7.699   7.564  0.00  0.00    +0.179 C 
ATOM     34  C   LIG    1        1.607  -6.431   8.006  0.00  0.00    +0.178 C 
ATOM     35  O   LIG    1        1.870  -5.456   6.984  0.00  0.00    -0.336 OA
BRANCH  33  36
ATOM     36  O   LIG    1        1.784  -8.880   8.103  0.00  0.00    -0.386 OA
ATOM     37  H   LIG    1        1.874  -8.963   9.063  0.00  0.00    +0.210 HD
ENDBRANCH  33  36
BRANCH  32  38
ATOM     38  O   LIG    1        3.285  -8.274   5.351  0.00  0.00    -0.384 OA
ATOM     39  H   LIG    1        3.323  -9.231   5.488  0.00  0.00    +0.210 HD
ENDBRANCH  32  38
BRANCH  31  40
ATOM     40  C   LIG    1        1.175  -5.767   4.682  0.00  0.00    +0.223 C 
BRANCH  40  41
ATOM     41  O   LIG    1        1.064  -4.346   4.568  0.00  0.00    -0.390 OA
ATOM     42  H   LIG    1        0.371  -4.053   3.961  0.00  0.00    +0.210 HD
ENDBRANCH  40  41
ENDBRANCH  31  40
BRANCH  34  43
ATOM     43  C   LIG    1        2.123  -5.938   9.359  0.00  0.00    +0.190 C 
BRANCH  43  44
ATOM     44  O   LIG    1        1.323  -4.841   9.803  0.00  0.00    -0.392 OA
ATOM     45  H   LIG    1        1.594  -4.477  10.657  0.00  0.00    +0.210 HD
ENDBRANCH  43  44
ENDBRANCH  34  43
ENDBRANCH  30  31
ENDBRANCH   5  30
TORSDOF 19
