REMARK  Name = ZINC34026477
REMARK                            x       y       z     vdW  Elec       q    Type
REMARK                         _______ _______ _______ _____ _____    ______ ____
ROOT
ATOM      1  N   LIG    1        4.773   1.175   0.796  0.00  0.00    +0.391 N 
ATOM      2  H   LIG    1        5.048   0.118   0.925  0.00  0.00    -0.080 HD
ATOM      3  C   LIG    1        3.382   1.442   1.246  0.00  0.00    -0.068 C 
ATOM      4  C   LIG    1        2.527   1.014   0.027  0.00  0.00    +0.015 C 
ATOM      5  C   LIG    1        3.386   1.470  -1.175  0.00  0.00    +0.094 C 
ATOM      6  C   LIG    1        4.821   1.578  -0.626  0.00  0.00    -0.023 C 
ENDROOT
BRANCH   4   7
ATOM      7  C   LIG    1        1.198   1.724   0.033  0.00  0.00    -0.042 A 
ATOM      8  C   LIG    1        1.154   3.106   0.012  0.00  0.00    +0.007 A 
ATOM      9  C   LIG    1       -0.062   3.762   0.018  0.00  0.00    +0.050 A 
ATOM     10  C   LIG    1       -1.242   3.036   0.044  0.00  0.00    +0.166 A 
ATOM     11  C   LIG    1       -1.198   1.644   0.058  0.00  0.00    +0.166 A 
ATOM     12  O   LIG    1       -2.477   1.167   0.087  0.00  0.00    -0.453 OA
ATOM     13  C   LIG    1       -3.294   2.280   0.494  0.00  0.00    +0.466 C 
ATOM     14  O   LIG    1       -2.548   3.431   0.055  0.00  0.00    -0.453 OA
ATOM     15  C   LIG    1        0.025   0.993   0.059  0.00  0.00    +0.053 A 
ENDBRANCH   4   7
BRANCH   6  16
ATOM     16  C   LIG    1        5.734   0.655  -1.391  0.00  0.00    -0.060 A 
ATOM     17  C   LIG    1        5.804  -0.683  -1.052  0.00  0.00    +0.005 A 
ATOM     18  C   LIG    1        6.637  -1.532  -1.755  0.00  0.00    +0.046 A 
ATOM     19  C   LIG    1        7.411  -1.038  -2.795  0.00  0.00    +0.120 A 
ATOM     20  C   LIG    1        7.343   0.306  -3.130  0.00  0.00    +0.046 A 
ATOM     21  C   LIG    1        6.505   1.150  -2.427  0.00  0.00    +0.005 A 
BRANCH  19  22
ATOM     22  O   LIG    1        8.235  -1.871  -3.484  0.00  0.00    -0.495 OA
ATOM     23  C   LIG    1        8.254  -3.243  -3.084  0.00  0.00    +0.277 C 
ENDBRANCH  19  22
ENDBRANCH   6  16
BRANCH   5  24
ATOM     24  C   LIG    1        3.325   0.447  -2.280  0.00  0.00    +0.307 C 
ATOM     25  O   LIG    1        3.078  -0.707  -2.022  0.00  0.00    -0.251 OA
BRANCH  24  26
ATOM     26  O   LIG    1        3.543   0.819  -3.551  0.00  0.00    -0.480 OA
ATOM     27  H   LIG    1        3.734   1.714  -3.751  0.00  0.00    +0.295 HD
ENDBRANCH  24  26
ENDBRANCH   5  24
BRANCH   1  28
ATOM     28  C   LIG    1        5.740   1.940   1.594  0.00  0.00    +0.020 C 
BRANCH  28  30
ATOM     29  N   LIG    1        6.615   1.931   3.907  0.00  0.00    -0.303 N 
ATOM     30  C   LIG    1        5.791   1.383   2.993  0.00  0.00    +0.199 C 
ATOM     31  O   LIG    1        5.090   0.441   3.296  0.00  0.00    -0.278 OA
BRANCH  29  32
ATOM     32  C   LIG    1        6.664   1.389   5.268  0.00  0.00    +0.107 C 
BRANCH  32  33
ATOM     33  C   LIG    1        7.729   0.293   5.342  0.00  0.00    +0.019 C 
BRANCH  33  35
ATOM     34  C   LIG    1        8.844  -1.369   6.836  0.00  0.00    +0.004 C 
ATOM     35  C   LIG    1        7.780  -0.273   6.762  0.00  0.00    -0.002 C 
ENDBRANCH  33  35
ENDBRANCH  32  33
ENDBRANCH  29  32
BRANCH  29  36
ATOM     36  C   LIG    1        7.461   3.070   3.541  0.00  0.00    +0.107 C 
BRANCH  36  37
ATOM     37  C   LIG    1        6.708   4.373   3.813  0.00  0.00    +0.019 C 
BRANCH  37  38
ATOM     38  C   LIG    1        7.593   5.562   3.431  0.00  0.00    -0.002 C 
ATOM     39  C   LIG    1        6.840   6.866   3.703  0.00  0.00    +0.004 C 
ENDBRANCH  37  38
ENDBRANCH  36  37
ENDBRANCH  29  36
ENDBRANCH  28  30
ENDBRANCH   1  28
TORSDOF 13
