REMARK  Name = ZINC00056721
REMARK                            x       y       z     vdW  Elec       q    Type
REMARK                         _______ _______ _______ _____ _____    ______ ____
ROOT
ATOM      1  C   LIG    1        0.802  -1.825   1.306  0.00  0.00    +0.122 A 
ATOM      2  C   LIG    1        0.260  -2.683   0.352  0.00  0.00    +0.048 A 
ATOM      3  C   LIG    1        0.355  -4.033   0.473  0.00  0.00    +0.032 A 
ATOM      4  C   LIG    1        1.011  -4.620   1.581  0.00  0.00    +0.081 A 
ATOM      5  C   LIG    1        1.551  -3.725   2.533  0.00  0.00    +0.044 A 
ATOM      6  S   LIG    1        2.266  -4.832   3.724  0.00  0.00    -0.047 S 
ATOM      7  C   LIG    1        1.817  -6.358   2.909  0.00  0.00    +0.233 A 
ATOM      8  N   LIG    1        1.189  -5.932   1.847  0.00  0.00    -0.221 NA
ATOM      9  C   LIG    1        1.459  -2.361   2.403  0.00  0.00    +0.063 A 
ENDROOT
BRANCH   7  10
ATOM     10  S   LIG    1        2.139  -8.015   3.412  0.00  0.00    +0.080 S 
ATOM     11  O   LIG    1        1.396  -8.230   4.604  0.00  0.00    -0.151 OA
ATOM     12  O   LIG    1        3.547  -8.192   3.349  0.00  0.00    -0.151 OA
BRANCH  10  13
ATOM     13  N   LIG    1        1.485  -9.012   2.262  0.00  0.00    -0.202 NA
ATOM     14  H   LIG    1        0.702  -8.729   1.763  0.00  0.00    +0.144 HD
ATOM     15  H   LIG    1        1.884  -9.878   2.087  0.00  0.00    +0.144 HD
ENDBRANCH  10  13
ENDBRANCH   7  10
BRANCH   1  16
ATOM     16  O   LIG    1        0.693  -0.477   1.160  0.00  0.00    -0.492 OA
BRANCH  16  18
ATOM     17  C   LIG    1       -0.019   1.526   0.010  0.00  0.00    +0.048 C 
ATOM     18  C   LIG    1        0.002  -0.004   0.002  0.00  0.00    +0.225 C 
ENDBRANCH  16  18
ENDBRANCH   1  16
TORSDOF 4
