REMARK  Name = ZINC28770773
REMARK                            x       y       z     vdW  Elec       q    Type
REMARK                         _______ _______ _______ _____ _____    ______ ____
ROOT
ATOM      1  C   LIG    1        1.254  -0.483  -0.013  0.00  0.00    +0.126 A 
ATOM      2  C   LIG    1        2.078   0.590  -0.015  0.00  0.00    +0.112 A 
ATOM      3  C   LIG    1        1.194   1.700  -0.000  0.00  0.00    +0.252 A 
ATOM      4  N   LIG    1       -0.014   1.205   0.009  0.00  0.00    -0.040 NA
ATOM      5  O   LIG    1        0.002  -0.004   0.002  0.00  0.00    -0.358 OA
ENDROOT
BRANCH   1   7
ATOM      6  C   LIG    1        1.575  -2.500   1.394  0.00  0.00    -0.006 C 
ATOM      7  C   LIG    1        1.664  -1.933  -0.025  0.00  0.00    -0.008 C 
BRANCH   7   8
ATOM      8  N   LIG    1        0.767  -2.688  -0.910  0.00  0.00    +0.385 N 
ATOM      9  H   LIG    1        1.066  -3.747  -0.919  0.00  0.00    -0.089 HD
ATOM     10  H   LIG    1       -0.267  -2.602  -0.545  0.00  0.00    -0.089 HD
ATOM     11  H   LIG    1        0.831  -2.281  -1.930  0.00  0.00    -0.089 HD
ENDBRANCH   7   8
ENDBRANCH   1   7
BRANCH   3  12
ATOM     12  O   LIG    1        1.536   3.013   0.003  0.00  0.00    -0.490 OA
ATOM     13  H   LIG    1        2.440   3.262  -0.004  0.00  0.00    +0.294 HD
ENDBRANCH   3  12
TORSDOF 3
