REMARK  Name = ZINC00008600
REMARK                            x       y       z     vdW  Elec       q    Type
REMARK                         _______ _______ _______ _____ _____    ______ ____
ROOT
ATOM      1  C   LIG    1        0.849   5.980   0.025  0.00  0.00    +0.022 A 
ATOM      2  C   LIG    1       -0.275   5.177   0.031  0.00  0.00    +0.025 A 
ATOM      3  C   LIG    1       -0.137   3.796   0.023  0.00  0.00    +0.041 A 
ATOM      4  C   LIG    1        1.136   3.236   0.008  0.00  0.00    +0.019 A 
ATOM      5  C   LIG    1        1.249   1.729  -0.001  0.00  0.00    +0.220 C 
ATOM      6  N   LIG    1       -0.011   0.966   0.007  0.00  0.00    -0.272 N 
ATOM      7  H   LIG    1        0.002  -0.004   0.002  0.00  0.00    +0.152 HD
ATOM      8  C   LIG    1       -1.180   1.631   0.016  0.00  0.00    +0.305 C 
ATOM      9  O   LIG    1       -2.213   0.988   0.018  0.00  0.00    -0.252 OA
ATOM     10  C   LIG    1        2.254   4.036   0.002  0.00  0.00    +0.028 A 
ATOM     11  N   LIG    1       -1.261   2.968   0.030  0.00  0.00    -0.269 N 
ATOM     12  H   LIG    1       -2.139   3.379   0.040  0.00  0.00    +0.156 HD
ATOM     13  C   LIG    1        2.112   5.415   0.011  0.00  0.00    +0.041 A 
ATOM     14 CL   LIG    1        3.518   6.433   0.003  0.00  0.00    -0.084 Cl
ENDROOT
BRANCH   5  15
ATOM     15  C   LIG    1        2.039   1.322  -1.246  0.00  0.00    +0.426 C 
ATOM     16  F   LIG    1        2.305  -0.051  -1.202  0.00  0.00    -0.167 F 
ATOM     17  F   LIG    1        3.245   2.030  -1.285  0.00  0.00    -0.167 F 
ATOM     18  F   LIG    1        1.289   1.615  -2.390  0.00  0.00    -0.167 F 
ENDBRANCH   5  15
BRANCH   5  19
ATOM     19  C   LIG    1        2.031   1.325   1.179  0.00  0.00    -0.062 C 
ATOM     20  C   LIG    1        2.655   1.004   2.120  0.00  0.00    -0.096 C 
BRANCH  20  21
ATOM     21  C   LIG    1        3.437   0.600   3.300  0.00  0.00    +0.064 C 
ATOM     22  C   LIG    1        3.331  -0.857   3.754  0.00  0.00    +0.017 C 
ATOM     23  C   LIG    1        2.665   0.251   4.574  0.00  0.00    +0.017 C 
ENDBRANCH  20  21
ENDBRANCH   5  19
TORSDOF 3
