REMARK  Name = ZINC13985654
REMARK                            x       y       z     vdW  Elec       q    Type
REMARK                         _______ _______ _______ _____ _____    ______ ____
ROOT
ATOM      1  C   LIG    1        1.964  -0.143  -2.326  0.00  0.00    +0.239 C 
ENDROOT
BRANCH   1   3
ATOM      2  C   LIG    1        2.114   2.237  -1.580  0.00  0.00    +0.016 C 
ATOM      3  C   LIG    1        1.943   0.790  -1.113  0.00  0.00    +0.013 C 
ATOM      4  C   LIG    1        0.607   0.645  -0.382  0.00  0.00    +0.016 C 
ATOM      5  C   LIG    1        3.086   0.422  -0.166  0.00  0.00    +0.016 C 
ENDBRANCH   1   3
BRANCH   1   6
ATOM      6  N   LIG    1        3.243  -0.004  -3.026  0.00  0.00    -0.283 N 
ATOM      7  H   LIG    1        3.610   0.878  -3.196  0.00  0.00    +0.152 HD
ATOM      8  C   LIG    1        3.910  -1.101  -3.435  0.00  0.00    +0.220 C 
ATOM      9  O   LIG    1        3.451  -2.204  -3.223  0.00  0.00    -0.275 OA
BRANCH   8  10
ATOM     10  C   LIG    1        5.226  -0.959  -4.155  0.00  0.00    +0.131 C 
BRANCH  10  11
ATOM     11  C   LIG    1        5.761  -2.325  -4.501  0.00  0.00    -0.035 A 
ATOM     12  C   LIG    1        6.579  -2.992  -3.608  0.00  0.00    +0.008 A 
ATOM     13  C   LIG    1        7.071  -4.245  -3.921  0.00  0.00    +0.049 A 
ATOM     14  C   LIG    1        6.745  -4.836  -5.131  0.00  0.00    +0.161 A 
ATOM     15  C   LIG    1        5.921  -4.165  -6.029  0.00  0.00    +0.162 A 
ATOM     16  C   LIG    1        5.427  -2.911  -5.708  0.00  0.00    +0.053 A 
BRANCH  14  17
ATOM     17  O   LIG    1        7.229  -6.068  -5.440  0.00  0.00    -0.491 OA
ATOM     18  C   LIG    1        8.069  -6.697  -4.470  0.00  0.00    +0.277 C 
ENDBRANCH  14  17
BRANCH  15  19
ATOM     19  O   LIG    1        5.598  -4.740  -7.218  0.00  0.00    -0.491 OA
ATOM     20  C   LIG    1        4.747  -3.994  -8.091  0.00  0.00    +0.277 C 
ENDBRANCH  15  19
ENDBRANCH  10  11
ENDBRANCH   8  10
ENDBRANCH   1   6
BRANCH   1  21
ATOM     21  N   LIG    1        0.870   0.210  -3.233  0.00  0.00    -0.255 N 
ATOM     22  H   LIG    1        0.700   1.140  -3.450  0.00  0.00    +0.260 HD
BRANCH  21  23
ATOM     23  C   LIG    1        0.081  -0.780  -3.780  0.00  0.00    +0.404 C 
ATOM     24  N   LIG    1        0.385  -2.064  -3.577  0.00  0.00    +0.011 NA
BRANCH  23  25
ATOM     25  N   LIG    1       -0.982  -0.456  -4.508  0.00  0.00    -0.242 N 
ATOM     26  H   LIG    1       -1.464  -1.143  -4.994  0.00  0.00    +0.265 HD
ATOM     27  C   LIG    1       -1.390   0.829  -4.572  0.00  0.00    +0.109 A 
ATOM     28  C   LIG    1       -1.118   1.717  -3.529  0.00  0.00    +0.043 A 
ATOM     29  C   LIG    1       -1.540   3.030  -3.605  0.00  0.00    +0.005 A 
ATOM     30  C   LIG    1       -2.235   3.507  -4.697  0.00  0.00    +0.026 A 
ATOM     31  C   LIG    1       -2.538   2.676  -5.768  0.00  0.00    +0.050 A 
ATOM     32  N   LIG    1       -3.229   3.146  -6.855  0.00  0.00    -0.361 N 
ATOM     33  H   LIG    1       -3.527   4.084  -6.875  0.00  0.00    +0.165 HD
ATOM     34  C   LIG    1       -3.504   2.339  -7.893  0.00  0.00    +0.083 A 
ATOM     35  C   LIG    1       -3.121   1.020  -7.897  0.00  0.00    +0.018 A 
ATOM     36  C   LIG    1       -2.423   0.490  -6.820  0.00  0.00    +0.015 A 
ATOM     37  C   LIG    1       -2.122   1.324  -5.738  0.00  0.00    +0.037 A 
ENDBRANCH  23  25
BRANCH  24  38
ATOM     38  C   LIG    1       -0.312  -3.035  -4.217  0.00  0.00    +0.295 C 
ATOM     39  N   LIG    1       -0.896  -3.848  -4.753  0.00  0.00    -0.151 NA
ENDBRANCH  24  38
ENDBRANCH  21  23
ENDBRANCH   1  21
TORSDOF 10
