REMARK  Name = ZINC20419505
REMARK                            x       y       z     vdW  Elec       q    Type
REMARK                         _______ _______ _______ _____ _____    ______ ____
ROOT
ATOM      1  C   LIG    1       -0.011   1.408   0.020  0.00  0.00    +0.166 C 
ENDROOT
BRANCH   1   2
ATOM      2  O   LIG    1        0.026  -0.021   0.034  0.00  0.00    -0.387 OA
ATOM      3  H   LIG    1        0.507  -0.567  -0.791  0.00  0.00    +0.210 HD
ENDBRANCH   1   2
BRANCH   1   4
ATOM      4  C   LIG    1       -0.731   1.912   1.272  0.00  0.00    +0.261 C 
BRANCH   4   5
ATOM      5  O   LIG    1       -2.098   1.498   1.234  0.00  0.00    -0.489 OA
BRANCH   5  11
ATOM      6  C   LIG    1       -4.236   1.495   2.309  0.00  0.00    +0.059 A 
ATOM      7  C   LIG    1       -5.034   1.881   3.393  0.00  0.00    +0.015 A 
ATOM      8  C   LIG    1       -4.486   2.620   4.418  0.00  0.00    +0.001 A 
ATOM      9  C   LIG    1       -3.149   2.983   4.383  0.00  0.00    +0.004 A 
ATOM     10  C   LIG    1       -2.349   2.605   3.324  0.00  0.00    +0.046 A 
ATOM     11  C   LIG    1       -2.882   1.866   2.278  0.00  0.00    +0.131 A 
BRANCH   6  13
ATOM     12  C   LIG    1       -6.265   0.312   1.251  0.00  0.00    +0.092 C 
ATOM     13  C   LIG    1       -4.812   0.707   1.212  0.00  0.00    +0.164 C 
ATOM     14  O   LIG    1       -4.117   0.374   0.276  0.00  0.00    -0.292 OA
ENDBRANCH   6  13
ENDBRANCH   5  11
ENDBRANCH   4   5
ENDBRANCH   1   4
BRANCH   1  15
ATOM     15  C   LIG    1        1.418   1.954  -0.001  0.00  0.00    +0.119 C 
BRANCH  15  16
ATOM     16  N   LIG    1        2.106   1.481  -1.210  0.00  0.00    -0.297 NA
ATOM     17  C   LIG    1        3.564   1.575  -1.057  0.00  0.00    +0.103 C 
ATOM     18  C   LIG    1        4.243   1.000  -2.302  0.00  0.00    +0.120 C 
ATOM     19  N   LIG    1        3.792   1.739  -3.489  0.00  0.00    -0.327 N 
ATOM     20  C   LIG    1        2.333   1.645  -3.642  0.00  0.00    +0.120 C 
ATOM     21  C   LIG    1        1.654   2.220  -2.397  0.00  0.00    +0.103 C 
BRANCH  19  22
ATOM     22  C   LIG    1        4.446   1.288  -4.639  0.00  0.00    +0.030 A 
ATOM     23  C   LIG    1        3.710   0.827  -5.723  0.00  0.00    +0.026 A 
ATOM     24  C   LIG    1        4.358   0.387  -6.860  0.00  0.00    +0.040 A 
ATOM     25  C   LIG    1        5.742   0.395  -6.916  0.00  0.00    +0.124 A 
ATOM     26  F   LIG    1        6.374  -0.041  -8.028  0.00  0.00    -0.205 F 
ATOM     27  C   LIG    1        6.478   0.850  -5.835  0.00  0.00    +0.040 A 
ATOM     28  C   LIG    1        5.833   1.296  -4.698  0.00  0.00    +0.026 A 
ENDBRANCH  19  22
ENDBRANCH  15  16
ENDBRANCH   1  15
TORSDOF 8
