REMARK  Name = ZINC35920376
REMARK                            x       y       z     vdW  Elec       q    Type
REMARK                         _______ _______ _______ _____ _____    ______ ____
ROOT
ATOM      1  C   LIG    1       -0.617   0.311  -2.088  0.00  0.00    +0.043 A 
ATOM      2  C   LIG    1       -0.746   1.638  -2.497  0.00  0.00    +0.037 A 
ATOM      3  C   LIG    1       -0.803   1.940  -3.849  0.00  0.00    +0.035 A 
ATOM      4  C   LIG    1       -0.731   0.923  -4.794  0.00  0.00    +0.027 A 
ATOM      5  C   LIG    1       -0.602  -0.393  -4.393  0.00  0.00    +0.048 A 
ATOM      6  C   LIG    1       -0.539  -0.706  -3.045  0.00  0.00    +0.130 A 
ENDROOT
BRANCH   1   9
ATOM      7  C   LIG    1       -2.530   1.345   0.126  0.00  0.00    +0.173 C 
ATOM      8  N   LIG    1       -1.397   0.438   0.323  0.00  0.00    -0.267 N 
ATOM      9  C   LIG    1       -0.555  -0.018  -0.647  0.00  0.00    +0.072 A 
ATOM     10  C   LIG    1        0.357  -0.836  -0.042  0.00  0.00    +0.049 A 
ATOM     11  C   LIG    1        0.059  -0.875   1.320  0.00  0.00    +0.135 A 
ATOM     12  N   LIG    1       -0.981  -0.113   1.542  0.00  0.00    -0.179 NA
ENDBRANCH   1   9
BRANCH   3  13
ATOM     13  N   LIG    1       -0.934   3.271  -4.263  0.00  0.00    -0.281 N 
ATOM     14  H   LIG    1       -1.436   3.482  -5.065  0.00  0.00    +0.155 HD
ATOM     15  C   LIG    1       -0.362   4.259  -3.546  0.00  0.00    +0.248 C 
ATOM     16  O   LIG    1        0.346   3.989  -2.595  0.00  0.00    -0.270 OA
BRANCH  15  17
ATOM     17  C   LIG    1       -0.597   5.671  -3.915  0.00  0.00    +0.040 A 
ATOM     18  C   LIG    1       -1.414   5.984  -5.002  0.00  0.00    +0.013 A 
ATOM     19  C   LIG    1       -1.631   7.303  -5.344  0.00  0.00    +0.004 A 
ATOM     20  C   LIG    1       -1.040   8.318  -4.613  0.00  0.00    +0.045 A 
ATOM     21  C   LIG    1       -0.226   8.016  -3.530  0.00  0.00    +0.121 A 
ATOM     22  C   LIG    1       -0.006   6.695  -3.175  0.00  0.00    +0.058 A 
BRANCH  21  23
ATOM     23  O   LIG    1        0.353   9.017  -2.816  0.00  0.00    -0.495 OA
ATOM     24  C   LIG    1        0.079  10.355  -3.235  0.00  0.00    +0.277 C 
ENDBRANCH  21  23
ENDBRANCH  15  17
ENDBRANCH   3  13
BRANCH   6  25
ATOM     25  O   LIG    1       -0.407  -2.001  -2.653  0.00  0.00    -0.493 OA
BRANCH  25  26
ATOM     26  C   LIG    1       -0.459  -2.997  -3.676  0.00  0.00    +0.210 C 
BRANCH  26  27
ATOM     27  C   LIG    1       -0.415  -4.387  -3.038  0.00  0.00    -0.037 C 
BRANCH  27  28
ATOM     28  N   LIG    1        0.871  -4.570  -2.351  0.00  0.00    +0.385 N 
ATOM     29  H   LIG    1        1.017  -3.812  -1.702  0.00  0.00    -0.081 HD
ATOM     30  C   LIG    1        1.957  -4.584  -3.341  0.00  0.00    -0.050 C 
ATOM     31  C   LIG    1        3.296  -4.774  -2.623  0.00  0.00    +0.141 C 
ATOM     32  O   LIG    1        3.257  -5.989  -1.868  0.00  0.00    -0.383 OA
ATOM     33  C   LIG    1        2.200  -6.033  -0.906  0.00  0.00    +0.141 C 
ATOM     34  C   LIG    1        0.859  -5.845  -1.621  0.00  0.00    -0.050 C 
ENDBRANCH  27  28
ENDBRANCH  26  27
ENDBRANCH  25  26
ENDBRANCH   6  25
TORSDOF 8
