REMARK  Name = ZINC17020551
REMARK                            x       y       z     vdW  Elec       q    Type
REMARK                         _______ _______ _______ _____ _____    ______ ____
ROOT
ATOM      1  C   LIG    1        2.404   0.034  -0.021  0.00  0.00    +0.001 A 
ATOM      2  C   LIG    1        1.209  -0.670  -0.013  0.00  0.00    +0.001 A 
ATOM      3  C   LIG    1        0.002  -0.004   0.002  0.00  0.00    +0.014 A 
ATOM      4  C   LIG    1       -0.017   1.390   0.010  0.00  0.00    +0.047 A 
ATOM      5  C   LIG    1        1.199   2.103   0.002  0.00  0.00    -0.004 A 
ATOM      6  C   LIG    1        1.149   3.578   0.011  0.00  0.00    +0.008 A 
ATOM      7  C   LIG    1        2.323   4.331   0.003  0.00  0.00    +0.010 A 
ATOM      8  C   LIG    1        2.258   5.707   0.012  0.00  0.00    +0.003 A 
ATOM      9  C   LIG    1        1.030   6.349   0.028  0.00  0.00    +0.025 A 
ATOM     10  C   LIG    1       -0.145   5.616   0.035  0.00  0.00    +0.049 A 
ATOM     11  C   LIG    1       -0.097   4.219   0.027  0.00  0.00    +0.071 A 
ATOM     12  N   LIG    1       -1.274   3.486   0.034  0.00  0.00    -0.320 N 
ATOM     13  H   LIG    1       -2.244   4.003   0.041  0.00  0.00    +0.169 HD
ATOM     14  C   LIG    1       -1.281   2.141   0.032  0.00  0.00    +0.257 A 
ATOM     15  O   LIG    1       -2.340   1.542   0.043  0.00  0.00    -0.267 OA
ATOM     16  C   LIG    1        2.407   1.414  -0.014  0.00  0.00    +0.009 A 
ENDROOT
BRANCH  10  17
ATOM     17  N   LIG    1       -1.379   6.274   0.051  0.00  0.00    -0.356 N 
ATOM     18  H   LIG    1       -1.417   7.373   0.058  0.00  0.00    +0.142 HD
ATOM     19  H   LIG    1       -2.312   5.691   0.057  0.00  0.00    +0.142 HD
ENDBRANCH  10  17
TORSDOF 1
