REMARK  Name = ZINC26392913
REMARK                            x       y       z     vdW  Elec       q    Type
REMARK                         _______ _______ _______ _____ _____    ______ ____
ROOT
ATOM      1  C   LIG    1       -0.826   3.122  -1.191  0.00  0.00    +0.000 C 
ATOM      2  C   LIG    1       -0.755   1.594  -1.231  0.00  0.00    +0.000 C 
ATOM      3  C   LIG    1       -0.013   1.086   0.008  0.00  0.00    +0.004 C 
ATOM      4  C   LIG    1       -0.729   1.579   1.262  0.00  0.00    -0.047 C 
ATOM      5  C   LIG    1       -2.030   0.822   1.565  0.00  0.00    -0.076 C 
ATOM      6  N   LIG    1       -1.191  -0.087   2.378  0.00  0.00    +0.389 N 
ATOM      7  H1  LIG    1       -0.911  -0.964   1.776  0.00  0.00    -0.085 HD
ATOM      8  H2  LIG    1       -1.758  -0.415   3.263  0.00  0.00    -0.085 HD
ATOM      9  C   LIG    1       -0.882   3.097   1.307  0.00  0.00    +0.004 C 
ATOM     10  CA  LIG    1       -0.178   0.977   2.562  0.00  0.00    +0.044 C 
ATOM     11  C   LIG    1       -1.609   3.569   0.044  0.00  0.00    +0.000 C 
ENDROOT
BRANCH  10  12
ATOM     12  C   LIG    1        1.243   0.488   2.451  0.00  0.00    +0.291 C 
ATOM     13  O   LIG    1        1.467  -0.689   2.295  0.00  0.00    -0.253 OA
BRANCH  12  14
ATOM     14  OXT LIG    1        2.260   1.361   2.526  0.00  0.00    -0.482 OA
ATOM     15  HXT LIG    1        2.087   2.273   2.647  0.00  0.00    +0.295 HD
ENDBRANCH  12  14
ENDBRANCH  10  12
TORSDOF 2
