REMARK  Name = ZINC13780823
REMARK                            x       y       z     vdW  Elec       q    Type
REMARK                         _______ _______ _______ _____ _____    ______ ____
ROOT
ATOM      1  C   LIG    1       -0.231  -3.175   0.364  0.00  0.00    +0.068 C 
ATOM      2  C   LIG    1       -1.341  -2.157   0.312  0.00  0.00    +0.069 C 
ATOM      3  N   LIG    1       -2.612  -2.406   0.372  0.00  0.00    -0.174 NA
ATOM      4  N   LIG    1       -3.366  -1.235   0.296  0.00  0.00    -0.119 N 
ATOM      5  C   LIG    1       -4.712  -1.179   0.333  0.00  0.00    +0.277 C 
ATOM      6  O   LIG    1       -5.281  -0.118   0.168  0.00  0.00    -0.268 OA
ATOM      7  C   LIG    1       -2.551  -0.166   0.186  0.00  0.00    +0.275 C 
ATOM      8  O   LIG    1       -2.883   1.003   0.102  0.00  0.00    -0.268 OA
ATOM      9  C   LIG    1       -1.179  -0.700   0.183  0.00  0.00    +0.062 C 
ATOM     10  C   LIG    1        0.003   0.012   0.086  0.00  0.00    +0.023 C 
ENDROOT
BRANCH   5  11
ATOM     11  C   LIG    1       -5.494  -2.405   0.574  0.00  0.00    +0.080 A 
ATOM     12  C   LIG    1       -4.855  -3.647   0.629  0.00  0.00    +0.017 A 
ATOM     13  C   LIG    1       -5.591  -4.789   0.859  0.00  0.00    +0.001 A 
ATOM     14  C   LIG    1       -6.965  -4.713   1.025  0.00  0.00    +0.004 A 
ATOM     15  C   LIG    1       -7.609  -3.494   0.968  0.00  0.00    +0.046 A 
ATOM     16  C   LIG    1       -6.884  -2.333   0.742  0.00  0.00    +0.129 A 
BRANCH  16  17
ATOM     17  O   LIG    1       -7.516  -1.135   0.685  0.00  0.00    -0.506 OA
ATOM     18  H   LIG    1       -7.810  -0.887  -0.202  0.00  0.00    +0.292 HD
ENDBRANCH  16  17
ENDBRANCH   5  11
BRANCH  10  19
ATOM     19  C   LIG    1       -0.027   1.442  -0.216  0.00  0.00    -0.024 A 
ATOM     20  C   LIG    1       -0.929   1.942  -1.168  0.00  0.00    +0.011 A 
ATOM     21  C   LIG    1       -0.957   3.280  -1.442  0.00  0.00    +0.046 A 
ATOM     22  C   LIG    1       -0.085   4.145  -0.788  0.00  0.00    +0.120 A 
ATOM     23  C   LIG    1        0.816   3.655   0.153  0.00  0.00    +0.046 A 
ATOM     24  C   LIG    1        0.849   2.320   0.440  0.00  0.00    +0.011 A 
BRANCH  22  25
ATOM     25  O   LIG    1       -0.113   5.471  -1.069  0.00  0.00    -0.495 OA
ATOM     26  C   LIG    1       -1.061   5.908  -2.045  0.00  0.00    +0.277 C 
ENDBRANCH  22  25
ENDBRANCH  10  19
TORSDOF 4
