REMARK  Name = ZINC16636899
REMARK                            x       y       z     vdW  Elec       q    Type
REMARK                         _______ _______ _______ _____ _____    ______ ____
ROOT
ATOM      1  N   LIG    1        4.831   1.749  -0.035  0.00  0.00    -0.303 N 
ATOM      2  H   LIG    1        5.021   0.798  -0.042  0.00  0.00    +0.150 HD
ATOM      3  C   LIG    1        3.554   2.181  -0.020  0.00  0.00    +0.231 C 
ATOM      4  O   LIG    1        3.316   3.370  -0.011  0.00  0.00    -0.274 OA
ENDROOT
BRANCH   1   5
ATOM      5  C   LIG    1        5.931   2.716  -0.040  0.00  0.00    +0.134 C 
BRANCH   5   9
ATOM      6  C   LIG    1        9.426   0.905   1.619  0.00  0.00    +0.000 A 
ATOM      7  C   LIG    1        9.118   2.218   1.922  0.00  0.00    +0.000 A 
ATOM      8  C   LIG    1        7.987   2.804   1.385  0.00  0.00    +0.006 A 
ATOM      9  C   LIG    1        7.164   2.077   0.545  0.00  0.00    -0.023 A 
ATOM     10  C   LIG    1        7.469   0.762   0.247  0.00  0.00    +0.006 A 
ATOM     11  C   LIG    1        8.603   0.178   0.780  0.00  0.00    +0.000 A 
ENDBRANCH   5   9
BRANCH   5  12
ATOM     12  C   LIG    1        6.213   3.148  -1.456  0.00  0.00    -0.023 A 
ATOM     13  C   LIG    1        6.183   2.221  -2.481  0.00  0.00    +0.006 A 
ATOM     14  C   LIG    1        6.437   2.618  -3.780  0.00  0.00    +0.000 A 
ATOM     15  C   LIG    1        6.731   3.941  -4.053  0.00  0.00    +0.000 A 
ATOM     16  C   LIG    1        6.766   4.867  -3.028  0.00  0.00    +0.000 A 
ATOM     17  C   LIG    1        6.507   4.471  -1.729  0.00  0.00    +0.006 A 
ENDBRANCH   5  12
ENDBRANCH   1   5
BRANCH   3  18
ATOM     18  C   LIG    1        2.422   1.186  -0.015  0.00  0.00    +0.200 C 
BRANCH  18  19
ATOM     19  N   LIG    1        1.143   1.901   0.001  0.00  0.00    -0.303 N 
ATOM     20  H   LIG    1        1.130   2.871   0.007  0.00  0.00    +0.150 HD
ATOM     21  C   LIG    1       -0.014   1.212   0.009  0.00  0.00    +0.244 C 
ATOM     22  O   LIG    1        0.002  -0.004   0.002  0.00  0.00    -0.270 OA
BRANCH  21  23
ATOM     23  C   LIG    1       -1.304   1.933   0.019  0.00  0.00    +0.037 A 
ATOM     24  C   LIG    1       -1.325   3.329   0.032  0.00  0.00    +0.016 A 
ATOM     25  C   LIG    1       -2.531   3.997   0.035  0.00  0.00    +0.039 A 
ATOM     26  C   LIG    1       -3.721   3.285   0.037  0.00  0.00    +0.123 A 
ATOM     27  F   LIG    1       -4.900   3.944   0.046  0.00  0.00    -0.205 F 
ATOM     28  C   LIG    1       -3.705   1.898   0.030  0.00  0.00    +0.039 A 
ATOM     29  C   LIG    1       -2.505   1.220   0.021  0.00  0.00    +0.016 A 
ENDBRANCH  21  23
ENDBRANCH  18  19
ENDBRANCH   3  18
TORSDOF 6
