REMARK  Name = ZINC34603838
REMARK                            x       y       z     vdW  Elec       q    Type
REMARK                         _______ _______ _______ _____ _____    ______ ____
ROOT
ATOM      1  C   LIG    1        1.199  -0.679  -0.238  0.00  0.00    +0.046 A 
ATOM      2  C   LIG    1        2.367  -0.009  -0.464  0.00  0.00    +0.017 A 
ATOM      3  C   LIG    1        2.344   1.370  -0.677  0.00  0.00    +0.047 A 
ATOM      4  C   LIG    1        1.110   2.064  -0.657  0.00  0.00    -0.008 A 
ATOM      5  C   LIG    1       -0.072   1.364  -0.424  0.00  0.00    +0.054 A 
ATOM      6  C   LIG    1        1.122   3.511  -0.883  0.00  0.00    +0.026 A 
ATOM      7  C   LIG    1        2.291   4.134  -1.102  0.00  0.00    +0.086 A 
ATOM      8  N   LIG    1        3.483   3.467  -1.122  0.00  0.00    -0.329 N 
ATOM      9  H   LIG    1        4.297   3.969  -1.285  0.00  0.00    +0.168 HD
ATOM     10  C   LIG    1        3.568   2.137  -0.923  0.00  0.00    +0.256 A 
ATOM     11  O   LIG    1        4.650   1.578  -0.948  0.00  0.00    -0.267 OA
ATOM     12  C   LIG    1       -0.021  -0.003  -0.216  0.00  0.00    +0.122 A 
ENDROOT
BRANCH  12  13
ATOM     13  O   LIG    1       -1.168  -0.693   0.010  0.00  0.00    -0.489 OA
BRANCH  13  14
ATOM     14  C   LIG    1       -2.369   0.071   0.137  0.00  0.00    +0.170 C 
ATOM     15  C   LIG    1       -2.951   0.346  -1.253  0.00  0.00    +0.025 C 
ATOM     16  C   LIG    1       -4.277   1.094  -1.106  0.00  0.00    -0.079 C 
ATOM     17  N   LIG    1       -5.220   0.278  -0.332  0.00  0.00    +0.379 N 
ATOM     18  H   LIG    1       -5.341  -0.615  -0.785  0.00  0.00    -0.086 HD
ATOM     19  H   LIG    1       -6.110   0.751  -0.282  0.00  0.00    -0.086 HD
ATOM     20  C   LIG    1       -4.702   0.071   1.026  0.00  0.00    -0.079 C 
ATOM     21  C   LIG    1       -3.392  -0.717   0.961  0.00  0.00    +0.025 C 
ENDBRANCH  13  14
ENDBRANCH  12  13
TORSDOF 2
