REMARK  Name = ZINC27632825
REMARK                            x       y       z     vdW  Elec       q    Type
REMARK                         _______ _______ _______ _____ _____    ______ ____
ROOT
ATOM      1  C   LIG    1       -0.227  -0.321  -2.517  0.00  0.00    +0.084 A 
ATOM      2  C   LIG    1       -1.217  -0.812  -3.321  0.00  0.00    +0.078 A 
ATOM      3  S   LIG    1       -0.912   0.105  -4.826  0.00  0.00    -0.038 S 
ATOM      4  C   LIG    1        0.492   1.041  -4.236  0.00  0.00    +0.272 A 
ATOM      5  N   LIG    1        0.601   0.597  -2.990  0.00  0.00    -0.206 NA
ENDROOT
BRANCH   1   8
ATOM      6  C   LIG    1        0.162   1.456   0.002  0.00  0.00    +0.064 C 
ATOM      7  C   LIG    1        0.085  -0.049  -0.015  0.00  0.00    +0.023 A 
ATOM      8  C   LIG    1       -0.085  -0.809  -1.123  0.00  0.00    +0.029 A 
ATOM      9  C   LIG    1       -0.103  -2.211  -0.678  0.00  0.00    +0.009 A 
ATOM     10  C   LIG    1       -0.242  -3.433  -1.334  0.00  0.00    +0.010 A 
ATOM     11  C   LIG    1       -0.216  -4.596  -0.616  0.00  0.00    +0.001 A 
ATOM     12  C   LIG    1       -0.051  -4.570   0.761  0.00  0.00    +0.002 A 
ATOM     13  C   LIG    1        0.089  -3.373   1.429  0.00  0.00    +0.026 A 
ATOM     14  C   LIG    1        0.065  -2.177   0.717  0.00  0.00    +0.047 A 
ATOM     15  N   LIG    1        0.181  -0.855   1.086  0.00  0.00    -0.358 N 
ATOM     16  H   LIG    1        0.310  -0.541   1.995  0.00  0.00    +0.166 HD
ENDBRANCH   1   8
BRANCH   4  17
ATOM     17  N   LIG    1        1.244   1.966  -4.889  0.00  0.00    -0.045 NA
ATOM     18  C   LIG    1        2.260   1.582  -5.632  0.00  0.00    +0.384 C 
BRANCH  18  19
ATOM     19  N   LIG    1        2.948   2.502  -6.381  0.00  0.00    -0.289 N 
ATOM     20  H   LIG    1        3.697   2.219  -6.928  0.00  0.00    +0.255 HD
ATOM     21  H   LIG    1        2.686   3.436  -6.363  0.00  0.00    +0.255 HD
ENDBRANCH  18  19
BRANCH  18  22
ATOM     22  N   LIG    1        2.631   0.263  -5.658  0.00  0.00    -0.289 N 
ATOM     23  H   LIG    1        3.425  -0.009  -6.144  0.00  0.00    +0.255 HD
ATOM     24  H   LIG    1        2.099  -0.399  -5.189  0.00  0.00    +0.255 HD
ENDBRANCH  18  22
ENDBRANCH   4  17
TORSDOF 4
