REMARK  Name = ZINC19287602
REMARK                            x       y       z     vdW  Elec       q    Type
REMARK                         _______ _______ _______ _____ _____    ______ ____
ROOT
ATOM      1  C   LIG    1       -1.258  -0.756   0.011  0.00  0.00    +0.026 C 
ATOM      2  C   LIG    1       -2.411  -0.177  -0.480  0.00  0.00    +0.096 C 
ATOM      3  C   LIG    1       -2.393   1.149  -1.125  0.00  0.00    +0.218 C 
ATOM      4  N   LIG    1       -3.532   1.646  -1.572  0.00  0.00    -0.127 NA
ATOM      5  C   LIG    1       -4.685   0.988  -1.459  0.00  0.00    +0.333 C 
ATOM      6  N   LIG    1       -4.799  -0.220  -0.889  0.00  0.00    -0.234 N 
ATOM      7  H   LIG    1       -5.670  -0.644  -0.839  0.00  0.00    +0.159 HD
ATOM      8  O   LIG    1       -5.692   1.514  -1.897  0.00  0.00    -0.250 OA
ATOM      9  C   LIG    1       -3.720  -0.860  -0.389  0.00  0.00    +0.256 C 
ATOM     10  O   LIG    1       -3.821  -1.959   0.123  0.00  0.00    -0.270 OA
ENDROOT
BRANCH   1  16
ATOM     11  C   LIG    1       -0.069   1.320   0.682  0.00  0.00    +0.009 A 
ATOM     12  C   LIG    1        1.086   2.062   0.786  0.00  0.00    +0.015 A 
ATOM     13  C   LIG    1        2.298   1.536   0.332  0.00  0.00    +0.059 A 
ATOM     14  C   LIG    1        2.341   0.257  -0.228  0.00  0.00    +0.015 A 
ATOM     15  C   LIG    1        1.189  -0.489  -0.333  0.00  0.00    +0.009 A 
ATOM     16  C   LIG    1       -0.028   0.037   0.121  0.00  0.00    -0.024 A 
BRANCH  13  17
ATOM     17  C   LIG    1        3.537   2.335   0.443  0.00  0.00    +0.337 C 
ATOM     18  O   LIG    1        3.500   3.455   0.932  0.00  0.00    -0.245 OA
BRANCH  17  19
ATOM     19  O   LIG    1        4.598   1.876   0.046  0.00  0.00    -0.477 OA
ATOM     20  H   LIG    1        4.626   1.017  -0.329  0.00  0.00    +0.295 HD
ENDBRANCH  17  19
ENDBRANCH  13  17
ENDBRANCH   1  16
BRANCH   3  21
ATOM     21  O   LIG    1       -1.241   1.839  -1.255  0.00  0.00    -0.493 OA
ATOM     22  H   LIG    1       -0.439   1.476  -0.933  0.00  0.00    +0.294 HD
ENDBRANCH   3  21
TORSDOF 4
