REMARK  Name = ZINC20326116
REMARK                            x       y       z     vdW  Elec       q    Type
REMARK                         _______ _______ _______ _____ _____    ______ ____
ROOT
ATOM      1  C   LIG    1        2.626  -6.447   1.125  0.00  0.00    +0.165 C 
ENDROOT
BRANCH   1   2
ATOM      2  C   LIG    1        3.614  -7.528   1.483  0.00  0.00    +0.232 C 
ATOM      3  N   LIG    1        4.491  -7.333   2.487  0.00  0.00    -0.310 N 
ATOM      4  H   LIG    1        4.438  -6.530   3.028  0.00  0.00    +0.149 HD
ATOM      5  O   LIG    1        3.619  -8.573   0.867  0.00  0.00    -0.274 OA
BRANCH   3   6
ATOM      6  C   LIG    1        5.525  -8.335   2.761  0.00  0.00    +0.139 C 
BRANCH   6   7
ATOM      7  C   LIG    1        6.369  -7.880   3.924  0.00  0.00    -0.030 A 
ATOM      8  C   LIG    1        7.494  -7.108   3.700  0.00  0.00    +0.009 A 
ATOM      9  C   LIG    1        8.269  -6.691   4.765  0.00  0.00    +0.046 A 
ATOM     10  C   LIG    1        7.918  -7.046   6.059  0.00  0.00    +0.120 A 
ATOM     11  C   LIG    1        6.788  -7.821   6.280  0.00  0.00    +0.046 A 
ATOM     12  C   LIG    1        6.013  -8.231   5.213  0.00  0.00    +0.009 A 
BRANCH  10  13
ATOM     13  O   LIG    1        8.679  -6.638   7.107  0.00  0.00    -0.495 OA
ATOM     14  C   LIG    1        8.258  -7.041   8.412  0.00  0.00    +0.277 C 
ENDBRANCH  10  13
ENDBRANCH   6   7
ENDBRANCH   3   6
ENDBRANCH   1   2
BRANCH   1  15
ATOM     15  C   LIG    1        3.351  -5.317   0.392  0.00  0.00    +0.010 C 
ATOM     16  C   LIG    1        2.363  -4.188   0.092  0.00  0.00    +0.009 C 
ATOM     17  C   LIG    1        3.932  -5.849  -0.919  0.00  0.00    +0.009 C 
ENDBRANCH   1  15
BRANCH   1  18
ATOM     18  N   LIG    1        1.586  -7.004   0.256  0.00  0.00    -0.178 NA
ATOM     19  H   LIG    1        1.723  -7.039  -0.704  0.00  0.00    +0.149 HD
BRANCH  18  20
ATOM     20  S   LIG    1        0.177  -7.574   0.912  0.00  0.00    +0.059 S 
ATOM     21  O   LIG    1       -0.647  -7.969  -0.176  0.00  0.00    -0.153 OA
ATOM     22  O   LIG    1        0.546  -8.470   1.952  0.00  0.00    -0.153 OA
BRANCH  20  29
ATOM     23  C   LIG    1       -2.748  -1.893   5.860  0.00  0.00    +0.073 C 
ATOM     24  C   LIG    1       -2.222  -2.936   4.907  0.00  0.00    +0.076 A 
ATOM     25  N   LIG    1       -2.460  -3.044   3.633  0.00  0.00    -0.244 NA
ATOM     26  C   LIG    1       -1.925  -4.030   2.883  0.00  0.00    +0.079 A 
ATOM     27  C   LIG    1       -2.070  -4.300   1.506  0.00  0.00    +0.031 A 
ATOM     28  C   LIG    1       -1.435  -5.361   0.938  0.00  0.00    +0.030 A 
ATOM     29  C   LIG    1       -0.628  -6.210   1.684  0.00  0.00    +0.106 A 
ATOM     30  C   LIG    1       -0.461  -5.977   3.036  0.00  0.00    +0.045 A 
ATOM     31  C   LIG    1       -1.098  -4.908   3.619  0.00  0.00    +0.041 A 
ATOM     32  S   LIG    1       -1.188  -4.219   5.250  0.00  0.00    -0.072 S 
ENDBRANCH  20  29
ENDBRANCH  18  20
ENDBRANCH   1  18
TORSDOF 8
