REMARK  Name = ZINC19796155
REMARK                            x       y       z     vdW  Elec       q    Type
REMARK                         _______ _______ _______ _____ _____    ______ ____
ROOT
ATOM      1  C   LIG    1        2.083  -3.525  -0.045  0.00  0.00    +0.271 C 
ATOM      2  C   LIG    1        2.611  -3.909   1.207  0.00  0.00    +0.083 A 
ATOM      3  C   LIG    1        2.050  -3.193   2.273  0.00  0.00    +0.017 A 
ATOM      4  C   LIG    1        2.460  -3.453   3.548  0.00  0.00    +0.001 A 
ATOM      5  C   LIG    1        3.426  -4.415   3.821  0.00  0.00    +0.002 A 
ATOM      6  C   LIG    1        4.010  -5.144   2.828  0.00  0.00    +0.026 A 
ATOM      7  C   LIG    1        3.630  -4.923   1.492  0.00  0.00    +0.054 A 
ATOM      8  N   LIG    1        4.287  -5.711   0.636  0.00  0.00    -0.351 N 
ATOM      9  H   LIG    1        4.928  -6.320   1.033  0.00  0.00    +0.166 HD
ATOM     10  C   LIG    1        4.177  -5.773  -0.727  0.00  0.00    +0.085 A 
ATOM     11  C   LIG    1        5.041  -6.732  -1.256  0.00  0.00    +0.031 A 
ATOM     12  C   LIG    1        5.080  -6.948  -2.622  0.00  0.00    +0.022 A 
ATOM     13  C   LIG    1        4.264  -6.215  -3.464  0.00  0.00    +0.045 A 
ATOM     14 CL   LIG    1        4.319  -6.493  -5.177  0.00  0.00    -0.083 Cl
ATOM     15  C   LIG    1        3.402  -5.258  -2.947  0.00  0.00    +0.071 A 
ATOM     16  C   LIG    1        3.352  -5.032  -1.585  0.00  0.00    +0.143 A 
ATOM     17  N   LIG    1        2.412  -4.029  -1.272  0.00  0.00    -0.203 N 
ATOM     18  H   LIG    1        1.939  -3.643  -2.026  0.00  0.00    +0.298 HD
ENDROOT
BRANCH   1  24
ATOM     19  C   LIG    1       -1.570  -0.002  -1.930  0.00  0.00    -0.096 C 
ATOM     20  N   LIG    1       -0.753  -0.717  -0.941  0.00  0.00    +0.383 N 
ATOM     21  H   LIG    1       -0.970  -0.375  -0.017  0.00  0.00    -0.082 HD
ATOM     22  C   LIG    1       -1.050  -2.154  -1.010  0.00  0.00    -0.035 C 
ATOM     23  C   LIG    1       -0.284  -2.886   0.096  0.00  0.00    +0.207 C 
ATOM     24  N   LIG    1        1.144  -2.555  -0.027  0.00  0.00    -0.228 N 
ATOM     25  C   LIG    1        1.520  -1.136  -0.130  0.00  0.00    +0.207 C 
ATOM     26  C   LIG    1        0.669  -0.486  -1.226  0.00  0.00    -0.035 C 
ENDBRANCH   1  24
TORSDOF 1
