REMARK  Name = ZINC48773709
REMARK                            x       y       z     vdW  Elec       q    Type
REMARK                         _______ _______ _______ _____ _____    ______ ____
ROOT
ATOM      1  N   LIG    1        1.231  -4.036  -0.039  0.00  0.00    -0.305 N 
ATOM      2  H   LIG    1        0.497  -4.466  -0.505  0.00  0.00    +0.149 HD
ATOM      3  C   LIG    1        2.146  -4.783   0.610  0.00  0.00    +0.300 C 
ATOM      4  O   LIG    1        3.064  -4.245   1.194  0.00  0.00    -0.265 OA
ENDROOT
BRANCH   1  10
ATOM      5  C   LIG    1        0.004   1.469  -0.011  0.00  0.00    -0.096 C 
ATOM      6  N   LIG    1        0.018   0.000  -0.012  0.00  0.00    +0.378 N 
ATOM      7  H   LIG    1       -0.929  -0.345   0.004  0.00  0.00    -0.082 HD
ATOM      8  C   LIG    1        0.690  -0.479  -1.226  0.00  0.00    -0.077 C 
ATOM      9  C   LIG    1        0.637  -2.008  -1.273  0.00  0.00    +0.003 C 
ATOM     10  C   LIG    1        1.344  -2.576  -0.039  0.00  0.00    +0.070 C 
ATOM     11  C   LIG    1        0.682  -2.010   1.221  0.00  0.00    +0.003 C 
ATOM     12  C   LIG    1        0.734  -0.482   1.175  0.00  0.00    -0.077 C 
ENDBRANCH   1  10
BRANCH   3  13
ATOM     13  C   LIG    1        2.031  -6.272   0.611  0.00  0.00    +0.303 C 
ATOM     14  N   LIG    1        2.946  -7.018   1.259  0.00  0.00    -0.278 N 
ATOM     15  H   LIG    1        3.716  -6.594   1.669  0.00  0.00    +0.155 HD
ATOM     16  O   LIG    1        1.113  -6.810   0.027  0.00  0.00    -0.265 OA
BRANCH  14  17
ATOM     17  C   LIG    1        2.786  -8.404   1.342  0.00  0.00    +0.037 A 
ATOM     18  C   LIG    1        3.183  -9.084   2.487  0.00  0.00    +0.025 A 
ATOM     19  C   LIG    1        3.024 -10.453   2.568  0.00  0.00    +0.025 A 
ATOM     20  C   LIG    1        2.470 -11.150   1.509  0.00  0.00    +0.076 A 
ATOM     21 CL   LIG    1        2.273 -12.872   1.613  0.00  0.00    -0.081 Cl
ATOM     22  C   LIG    1        2.073 -10.476   0.364  0.00  0.00    +0.143 A 
ATOM     23  F   LIG    1        1.533 -11.159  -0.668  0.00  0.00    -0.204 F 
ATOM     24  C   LIG    1        2.225  -9.104   0.282  0.00  0.00    +0.063 A 
ENDBRANCH  14  17
ENDBRANCH   3  13
TORSDOF 3
