REMARK  Name = ZINC13820954
REMARK                            x       y       z     vdW  Elec       q    Type
REMARK                         _______ _______ _______ _____ _____    ______ ____
ROOT
ATOM      1  N   LIG    1        0.386   3.921   1.282  0.00  0.00    +0.383 N 
ATOM      2  H   LIG    1        0.996   3.652   2.064  0.00  0.00    -0.085 HD
ATOM      3  H   LIG    1       -0.515   3.437   1.369  0.00  0.00    -0.085 HD
ENDROOT
BRANCH   1   5
ATOM      4  C   LIG    1        1.427   6.079   1.818  0.00  0.00    -0.013 C 
ATOM      5  C   LIG    1        0.161   5.378   1.320  0.00  0.00    -0.071 C 
BRANCH   5   6
ATOM      6  C   LIG    1       -0.998   5.683   2.272  0.00  0.00    +0.019 C 
BRANCH   6   7
ATOM      7  C   LIG    1       -2.271   5.096   1.718  0.00  0.00    -0.049 A 
ATOM      8  C   LIG    1       -3.072   5.850   0.881  0.00  0.00    +0.003 A 
ATOM      9  C   LIG    1       -4.237   5.310   0.369  0.00  0.00    +0.000 A 
ATOM     10  C   LIG    1       -4.606   4.020   0.702  0.00  0.00    +0.000 A 
ATOM     11  C   LIG    1       -3.807   3.268   1.544  0.00  0.00    +0.000 A 
ATOM     12  C   LIG    1       -2.640   3.807   2.052  0.00  0.00    +0.003 A 
ENDBRANCH   6   7
ENDBRANCH   5   6
ENDBRANCH   1   5
BRANCH   1  13
ATOM     13  C   LIG    1        1.027   3.535   0.011  0.00  0.00    -0.041 C 
BRANCH  13  14
ATOM     14  C   LIG    1        1.248   2.021   0.001  0.00  0.00    +0.210 C 
BRANCH  14  15
ATOM     15  O   LIG    1       -0.016   1.355   0.009  0.00  0.00    -0.494 OA
BRANCH  15  16
ATOM     16  C   LIG    1        0.002  -0.004   0.002  0.00  0.00    +0.120 A 
ATOM     17  C   LIG    1        1.212  -0.682  -0.019  0.00  0.00    +0.045 A 
ATOM     18  C   LIG    1        1.228  -2.064  -0.020  0.00  0.00    +0.004 A 
ATOM     19  C   LIG    1        0.040  -2.770  -0.013  0.00  0.00    +0.000 A 
ATOM     20  C   LIG    1       -1.168  -2.096   0.002  0.00  0.00    +0.004 A 
ATOM     21  C   LIG    1       -1.189  -0.715   0.010  0.00  0.00    +0.045 A 
ENDBRANCH  15  16
ENDBRANCH  14  15
ENDBRANCH  13  14
ENDBRANCH   1  13
TORSDOF 7
