REMARK  Name = ZINC28098985
REMARK                            x       y       z     vdW  Elec       q    Type
REMARK                         _______ _______ _______ _____ _____    ______ ____
ROOT
ATOM      1  N   LIG    1       -3.598   0.478   0.366  0.00  0.00    -0.285 N 
ATOM      2  H   LIG    1       -3.962  -0.530   0.612  0.00  0.00    +0.155 HD
ATOM      3  C   LIG    1       -2.289   0.680   0.118  0.00  0.00    +0.224 C 
ATOM      4  O   LIG    1       -1.875   1.804  -0.074  0.00  0.00    -0.275 OA
ENDROOT
BRANCH   3   5
ATOM      5  C   LIG    1       -1.341  -0.490   0.078  0.00  0.00    +0.120 C 
ATOM      6  C   LIG    1        0.104  -0.048   0.476  0.00  0.00    +0.131 C 
ATOM      7  C   LIG    1        0.899  -1.373   0.673  0.00  0.00    +0.035 C 
ATOM      8  C   LIG    1        1.085  -1.880  -0.780  0.00  0.00    +0.035 C 
ATOM      9  C   LIG    1        0.373  -0.780  -1.623  0.00  0.00    +0.133 C 
ATOM     10  O   LIG    1        0.629   0.412  -0.812  0.00  0.00    -0.372 OA
ATOM     11  C   LIG    1       -1.151  -0.994  -1.375  0.00  0.00    +0.140 C 
BRANCH  11  12
ATOM     12  C   LIG    1       -1.969  -0.171  -2.337  0.00  0.00    +0.311 C 
ATOM     13  O   LIG    1       -1.573   0.914  -2.691  0.00  0.00    -0.251 OA
BRANCH  12  14
ATOM     14  O   LIG    1       -3.139  -0.642  -2.796  0.00  0.00    -0.480 OA
ATOM     15  H   LIG    1       -3.445  -1.484  -2.522  0.00  0.00    +0.295 HD
ENDBRANCH  12  14
ENDBRANCH  11  12
ENDBRANCH   3   5
BRANCH   1  20
ATOM     16  C   LIG    1       -4.989   3.879   0.671  0.00  0.00    +0.061 A 
ATOM     17  C   LIG    1       -6.287   3.670   0.199  0.00  0.00    +0.015 A 
ATOM     18  C   LIG    1       -6.677   2.412  -0.211  0.00  0.00    +0.003 A 
ATOM     19  C   LIG    1       -5.786   1.356  -0.161  0.00  0.00    +0.023 A 
ATOM     20  C   LIG    1       -4.495   1.552   0.312  0.00  0.00    +0.034 A 
ATOM     21  C   LIG    1       -4.092   2.812   0.726  0.00  0.00    +0.038 A 
BRANCH  16  22
ATOM     22  C   LIG    1       -4.568   5.226   1.110  0.00  0.00    +0.339 C 
ATOM     23  O   LIG    1       -3.438   5.405   1.520  0.00  0.00    -0.245 OA
BRANCH  22  25
ATOM     24  C   LIG    1       -4.953   7.548   1.502  0.00  0.00    +0.280 C 
ATOM     25  O   LIG    1       -5.436   6.254   1.055  0.00  0.00    -0.464 OA
ENDBRANCH  22  25
ENDBRANCH  16  22
ENDBRANCH   1  20
TORSDOF 6
