REMARK  Name = ZINC26181491
REMARK                            x       y       z     vdW  Elec       q    Type
REMARK                         _______ _______ _______ _____ _____    ______ ____
ROOT
ATOM      1  CA  TRP A  1       -0.600   0.105  -4.886  0.00  0.00    +0.186 C 
ENDROOT
BRANCH   1   3
ATOM      2  C   UNK A  0       -0.251   0.042  -2.475  0.00  0.00    +0.245 C 
ATOM      3  N   TRP A  1       -0.461  -0.629  -3.625  0.00  0.00    -0.298 N 
ATOM      4  H   TRP A  1       -0.528  -1.727  -3.618  0.00  0.00    +0.150 HD
ATOM      5  O   UNK A  0       -0.177   1.255  -2.484  0.00  0.00    -0.270 OA
BRANCH   2  12
ATOM      6  C   UNK A  0       -0.061   1.502   0.015  0.00  0.00    +0.044 C 
ATOM      7  C   UNK A  0       -0.018  -0.004   0.004  0.00  0.00    -0.038 A 
ATOM      8  C   UNK A  0        0.106  -0.701   1.189  0.00  0.00    +0.004 A 
ATOM      9  C   UNK A  0        0.146  -2.084   1.181  0.00  0.00    +0.000 A 
ATOM     10  C   UNK A  0        0.060  -2.778  -0.014  0.00  0.00    +0.001 A 
ATOM     11  C   UNK A  0       -0.065  -2.093  -1.205  0.00  0.00    +0.013 A 
ATOM     12  C   UNK A  0       -0.111  -0.698  -1.203  0.00  0.00    +0.040 A 
ENDBRANCH   2  12
ENDBRANCH   1   3
BRANCH   1  13
ATOM     13  C   TRP A  1       -2.030   0.550  -5.053  0.00  0.00    +0.326 C 
ATOM     14  O   TRP A  1       -2.849   0.282  -4.206  0.00  0.00    -0.249 OA
BRANCH  13  15
ATOM     15  OXT TRP A  1       -2.393   1.244  -6.143  0.00  0.00    -0.479 OA
ATOM     16  HXT TRP A  1       -1.758   1.451  -6.800  0.00  0.00    +0.295 HD
ENDBRANCH  13  15
ENDBRANCH   1  13
BRANCH   1  17
ATOM     17  CB  TRP A  1       -0.210  -0.807  -6.052  0.00  0.00    +0.071 C 
BRANCH  17  18
ATOM     18  CG  TRP A  1        1.254  -1.153  -5.951  0.00  0.00    -0.020 A 
ATOM     19  CD1 TRP A  1        2.266  -0.529  -6.573  0.00  0.00    +0.087 A 
ATOM     20  NE1 TRP A  1        3.454  -1.120  -6.239  0.00  0.00    -0.360 N 
ATOM     21  CE2 TRP A  1        3.228  -2.171  -5.379  0.00  0.00    +0.047 A 
ATOM     22  CZ2 TRP A  1        4.062  -3.090  -4.749  0.00  0.00    +0.026 A 
ATOM     23  CH2 TRP A  1        3.521  -4.051  -3.923  0.00  0.00    +0.002 A 
ATOM     24  CZ3 TRP A  1        2.151  -4.112  -3.711  0.00  0.00    +0.001 A 
ATOM     25  CE3 TRP A  1        1.313  -3.219  -4.319  0.00  0.00    +0.010 A 
ATOM     26  HE1 TRP A  1        4.397  -0.733  -6.653  0.00  0.00    +0.165 HD
ATOM     27  CD2 TRP A  1        1.840  -2.238  -5.160  0.00  0.00    +0.003 A 
ENDBRANCH  17  18
ENDBRANCH   1  17
TORSDOF 6
