REMARK  Name = ZINC14975990
REMARK                            x       y       z     vdW  Elec       q    Type
REMARK                         _______ _______ _______ _____ _____    ______ ____
ROOT
ATOM      1  N   LIG    1        2.899  -2.207   1.678  0.00  0.00    -0.333 N 
ATOM      2  C   LIG    1        2.050  -3.361   1.346  0.00  0.00    +0.086 C 
ATOM      3  C   LIG    1        0.584  -2.952   1.519  0.00  0.00    -0.060 C 
ATOM      4  N   LIG    1        0.382  -2.420   2.873  0.00  0.00    +0.382 N 
ATOM      5  H   LIG    1        0.682  -3.105   3.550  0.00  0.00    -0.082 HD
ATOM      6  C   LIG    1        1.160  -1.187   3.047  0.00  0.00    -0.060 C 
ATOM      7  C   LIG    1        2.658  -1.513   2.953  0.00  0.00    +0.086 C 
ENDROOT
BRANCH   1  13
ATOM      8  C   LIG    1        5.162  -2.408   0.839  0.00  0.00    +0.003 A 
ATOM      9  C   LIG    1        6.161  -1.983  -0.034  0.00  0.00    +0.010 A 
ATOM     10  C   LIG    1        5.913  -0.950  -0.915  0.00  0.00    +0.001 A 
ATOM     11  C   LIG    1        4.674  -0.333  -0.936  0.00  0.00    +0.002 A 
ATOM     12  C   LIG    1        3.675  -0.745  -0.075  0.00  0.00    +0.024 A 
ATOM     13  C   LIG    1        3.908  -1.786   0.812  0.00  0.00    +0.037 A 
BRANCH   8  17
ATOM     14  C   LIG    1        5.912  -5.589   3.558  0.00  0.00    +0.000 A 
ATOM     15  C   LIG    1        6.095  -5.785   2.201  0.00  0.00    +0.001 A 
ATOM     16  C   LIG    1        5.853  -4.756   1.313  0.00  0.00    +0.008 A 
ATOM     17  C   LIG    1        5.423  -3.518   1.787  0.00  0.00    -0.016 A 
ATOM     18  C   LIG    1        5.241  -3.326   3.155  0.00  0.00    +0.008 A 
ATOM     19  C   LIG    1        5.486  -4.362   4.034  0.00  0.00    +0.001 A 
ENDBRANCH   8  17
ENDBRANCH   1  13
BRANCH   4  20
ATOM     20  C   LIG    1       -1.044  -2.130   3.075  0.00  0.00    -0.079 C 
BRANCH  20  21
ATOM     21  C   LIG    1       -1.276  -1.695   4.523  0.00  0.00    -0.019 C 
BRANCH  21  22
ATOM     22  C   LIG    1       -2.761  -1.393   4.734  0.00  0.00    -0.001 C 
BRANCH  22  23
ATOM     23  C   LIG    1       -2.992  -0.958   6.182  0.00  0.00    +0.009 C 
BRANCH  23  24
ATOM     24  C   LIG    1       -4.477  -0.655   6.393  0.00  0.00    +0.096 C 
BRANCH  24  25
ATOM     25  C   LIG    1       -4.705  -0.227   7.820  0.00  0.00    +0.213 C 
ATOM     26  N   LIG    1       -5.946   0.092   8.238  0.00  0.00    -0.308 N 
ATOM     27  H   LIG    1       -6.693   0.046   7.620  0.00  0.00    +0.149 HD
ATOM     28  O   LIG    1       -3.772  -0.168   8.592  0.00  0.00    -0.276 OA
BRANCH  26  29
ATOM     29  C   LIG    1       -6.168   0.509   9.624  0.00  0.00    +0.103 C 
ATOM     30  C   LIG    1       -7.416   1.386   9.693  0.00  0.00    +0.027 C 
ATOM     31  C   LIG    1       -7.755   1.630  11.169  0.00  0.00    +0.007 C 
ATOM     32  C   LIG    1       -8.251   0.318  11.772  0.00  0.00    +0.035 C 
ATOM     33  C   LIG    1       -7.284  -0.799  11.479  0.00  0.00    -0.042 A 
ATOM     34  C   LIG    1       -7.376  -1.952  12.247  0.00  0.00    +0.004 A 
ATOM     35  C   LIG    1       -6.525  -3.013  12.025  0.00  0.00    +0.000 A 
ATOM     36  C   LIG    1       -5.569  -2.929  11.030  0.00  0.00    +0.000 A 
ATOM     37  C   LIG    1       -5.474  -1.783  10.267  0.00  0.00    +0.006 A 
ATOM     38  C   LIG    1       -6.331  -0.713  10.490  0.00  0.00    -0.024 A 
ENDBRANCH  26  29
ENDBRANCH  24  25
ENDBRANCH  23  24
ENDBRANCH  22  23
ENDBRANCH  21  22
ENDBRANCH  20  21
ENDBRANCH   4  20
TORSDOF 9
