REMARK  Name = ZINC71318764
REMARK                            x       y       z     vdW  Elec       q    Type
REMARK                         _______ _______ _______ _____ _____    ______ ____
ROOT
ATOM      1  C   LIG    1       -0.200  -3.314  -1.429  0.00  0.00    +0.222 C 
ATOM      2  N   LIG    1       -1.244  -4.132  -1.668  0.00  0.00    -0.279 N 
ATOM      3  H   LIG    1       -1.685  -4.584  -0.931  0.00  0.00    +0.155 HD
ATOM      4  O   LIG    1        0.351  -2.749  -2.349  0.00  0.00    -0.275 OA
ENDROOT
BRANCH   2   5
ATOM      5  C   LIG    1       -1.687  -4.329  -2.967  0.00  0.00    +0.084 A 
ATOM      6  C   LIG    1       -2.740  -5.123  -3.398  0.00  0.00    +0.065 A 
ATOM      7  C   LIG    1       -2.990  -5.148  -4.821  0.00  0.00    +0.022 A 
ATOM      8  C   LIG    1       -2.168  -4.394  -5.574  0.00  0.00    +0.048 A 
ATOM      9  S   LIG    1       -1.078  -3.655  -4.378  0.00  0.00    -0.081 S 
BRANCH   6  10
ATOM     10  C   LIG    1       -3.557  -5.897  -2.458  0.00  0.00    +0.244 C 
ATOM     11  N   LIG    1       -4.571  -6.657  -2.915  0.00  0.00    -0.325 N 
ATOM     12  H   LIG    1       -5.112  -7.169  -2.293  0.00  0.00    +0.145 HD
ATOM     13  H   LIG    1       -4.761  -6.692  -3.865  0.00  0.00    +0.145 HD
ATOM     14  O   LIG    1       -3.318  -5.853  -1.265  0.00  0.00    -0.270 OA
ENDBRANCH   6  10
ENDBRANCH   2   5
BRANCH   1  15
ATOM     15  C   LIG    1        0.282  -3.100  -0.017  0.00  0.00    +0.132 C 
BRANCH  15  21
ATOM     16  C   LIG    1       -0.016   1.355   0.009  0.00  0.00    +0.001 A 
ATOM     17  C   LIG    1        1.157   2.097   0.002  0.00  0.00    +0.001 A 
ATOM     18  C   LIG    1        2.374   1.445  -0.013  0.00  0.00    +0.015 A 
ATOM     19  C   LIG    1        2.406   0.067  -0.020  0.00  0.00    +0.020 A 
ATOM     20  C   LIG    1        1.228  -0.711  -0.013  0.00  0.00    -0.007 A 
ATOM     21  C   LIG    1        1.451  -2.149  -0.023  0.00  0.00    -0.024 A 
ATOM     22  C   LIG    1        2.706  -2.619  -0.038  0.00  0.00    +0.050 A 
ATOM     23  S   LIG    1        3.704  -1.142  -0.039  0.00  0.00    -0.096 S 
ATOM     24  C   LIG    1        0.002  -0.004   0.002  0.00  0.00    +0.009 A 
ENDBRANCH  15  21
ENDBRANCH   1  15
TORSDOF 4
