REMARK  Name = ZINC13808031
REMARK                            x       y       z     vdW  Elec       q    Type
REMARK                         _______ _______ _______ _____ _____    ______ ____
ROOT
ATOM      1  S   LIG    1       -0.095   5.961  -1.676  0.00  0.00    +0.129 S 
ATOM      2  O   LIG    1       -1.331   5.634  -2.296  0.00  0.00    -0.137 OA
ATOM      3  O   LIG    1        1.138   5.668  -2.319  0.00  0.00    -0.137 OA
ENDROOT
BRANCH   1   4
ATOM      4  N   LIG    1       -0.116   7.611  -1.534  0.00  0.00    +0.057 NA
ATOM      5  C   LIG    1       -0.137   8.356  -2.603  0.00  0.00    +0.403 C 
BRANCH   5   6
ATOM      6  N   LIG    1       -0.154   9.726  -2.486  0.00  0.00    -0.288 N 
ATOM      7  H   LIG    1       -0.169  10.281  -3.281  0.00  0.00    +0.255 HD
ATOM      8  H   LIG    1       -0.151  10.137  -1.608  0.00  0.00    +0.255 HD
ENDBRANCH   5   6
BRANCH   5   9
ATOM      9  N   LIG    1       -0.140   7.773  -3.848  0.00  0.00    -0.288 N 
ATOM     10  H   LIG    1       -0.155   8.328  -4.644  0.00  0.00    +0.255 HD
ATOM     11  H   LIG    1       -0.128   6.806  -3.931  0.00  0.00    +0.255 HD
ENDBRANCH   5   9
ENDBRANCH   1   4
BRANCH   1  12
ATOM     12  C   LIG    1       -0.070   5.347   0.031  0.00  0.00    +0.244 C 
BRANCH  12  16
ATOM     13  C   LIG    1       -0.013   1.076   0.008  0.00  0.00    +0.000 A 
ATOM     14  C   LIG    1       -1.219   1.751   0.017  0.00  0.00    +0.000 A 
ATOM     15  C   LIG    1       -1.238   3.133   0.030  0.00  0.00    +0.005 A 
ATOM     16  C   LIG    1       -0.050   3.840   0.023  0.00  0.00    -0.023 A 
ATOM     17  C   LIG    1        1.156   3.165   0.008  0.00  0.00    +0.005 A 
ATOM     18  C   LIG    1        1.175   1.783   0.000  0.00  0.00    +0.000 A 
ENDBRANCH  12  16
ENDBRANCH   1  12
TORSDOF 5
