REMARK  Name = ZINC22443609
REMARK                            x       y       z     vdW  Elec       q    Type
REMARK                         _______ _______ _______ _____ _____    ______ ____
ROOT
ATOM      1  C   LIG    1       -0.017   1.378   0.010  0.00  0.00    +0.005 A 
ATOM      2  C   LIG    1        1.171   2.086   0.002  0.00  0.00    +0.002 A 
ATOM      3  C   LIG    1        2.377   1.411  -0.013  0.00  0.00    -0.064 A 
ATOM      4  C   LIG    1        2.396   0.029  -0.020  0.00  0.00    +0.002 A 
ATOM      5  C   LIG    1        1.208  -0.679  -0.012  0.00  0.00    +0.005 A 
ATOM      6  C   LIG    1        0.002  -0.004   0.002  0.00  0.00    -0.033 A 
ENDROOT
BRANCH   3   7
ATOM      7  C   LIG    1        3.672   2.182  -0.022  0.00  0.00    -0.043 C 
BRANCH   7   8
ATOM      8  N   LIG    1        4.106   2.426   1.360  0.00  0.00    +0.383 N 
ATOM      9  H   LIG    1        3.367   2.887   1.868  0.00  0.00    -0.081 HD
ATOM     10  C   LIG    1        5.302   3.279   1.354  0.00  0.00    -0.077 C 
ATOM     11  C   LIG    1        4.902   4.721   1.672  0.00  0.00    -0.003 C 
ATOM     12  C   LIG    1        5.865   5.300   2.710  0.00  0.00    +0.079 C 
ATOM     13  N   LIG    1        5.096   5.895   3.812  0.00  0.00    -0.318 NA
ATOM     14  H   LIG    1        5.066   6.900   3.730  0.00  0.00    +0.122 HD
ATOM     15  C   LIG    1        5.643   5.489   5.114  0.00  0.00    +0.062 C 
ATOM     16  C   LIG    1        4.495   5.143   6.064  0.00  0.00    -0.067 C 
ATOM     17  N   LIG    1        4.790   3.877   6.748  0.00  0.00    +0.380 N 
ATOM     18  H   LIG    1        5.052   4.064   7.704  0.00  0.00    -0.086 HD
ATOM     19  H   LIG    1        5.550   3.409   6.277  0.00  0.00    -0.086 HD
ATOM     20  C   LIG    1        3.598   3.019   6.727  0.00  0.00    -0.081 C 
ATOM     21  C   LIG    1        4.000   1.597   6.331  0.00  0.00    -0.004 C 
ATOM     22  C   LIG    1        3.018   1.061   5.288  0.00  0.00    +0.079 C 
ATOM     23  N   LIG    1        3.760   0.361   4.231  0.00  0.00    -0.318 NA
ATOM     24  H   LIG    1        4.750   0.543   4.303  0.00  0.00    +0.122 HD
ATOM     25  C   LIG    1        3.253   0.725   2.901  0.00  0.00    +0.062 C 
ATOM     26  C   LIG    1        4.421   1.146   2.007  0.00  0.00    -0.063 C 
ENDBRANCH   7   8
ENDBRANCH   3   7
BRANCH   6  27
ATOM     27  C   LIG    1       -1.293  -0.775   0.011  0.00  0.00    +0.119 C 
BRANCH  27  28
ATOM     28  N   LIG    1       -1.727  -1.018  -1.371  0.00  0.00    -0.297 NA
ATOM     29  C   LIG    1       -3.094  -1.555  -1.407  0.00  0.00    +0.083 C 
ATOM     30  C   LIG    1       -4.083  -0.415  -1.658  0.00  0.00    -0.004 C 
ATOM     31  C   LIG    1       -5.054  -0.818  -2.770  0.00  0.00    -0.081 C 
ATOM     32  N   LIG    1       -5.133   0.260  -3.766  0.00  0.00    +0.380 N 
ATOM     33  H   LIG    1       -4.363   0.898  -3.632  0.00  0.00    -0.086 HD
ATOM     34  H   LIG    1       -6.004   0.755  -3.656  0.00  0.00    -0.086 HD
ATOM     35  C   LIG    1       -5.062  -0.315  -5.116  0.00  0.00    -0.067 C 
ATOM     36  C   LIG    1       -4.155   0.551  -5.992  0.00  0.00    +0.062 C 
ATOM     37  N   LIG    1       -3.219  -0.310  -6.728  0.00  0.00    -0.318 NA
ATOM     38  H   LIG    1       -3.261  -1.260  -6.392  0.00  0.00    +0.122 HD
ATOM     39  C   LIG    1       -1.849   0.216  -6.651  0.00  0.00    +0.082 C 
ATOM     40  C   LIG    1       -0.882  -0.926  -6.334  0.00  0.00    +0.030 C 
ATOM     41  C   LIG    1        0.078  -0.488  -5.226  0.00  0.00    +0.082 C 
ATOM     42  N   LIG    1        0.245  -1.583  -4.261  0.00  0.00    -0.315 NA
ATOM     43  H   LIG    1       -0.448  -2.302  -4.407  0.00  0.00    +0.122 HD
ATOM     44  C   LIG    1        0.200  -1.080  -2.882  0.00  0.00    +0.096 C 
ATOM     45  C   LIG    1       -0.792  -1.913  -2.067  0.00  0.00    +0.100 C 
ENDBRANCH  27  28
ENDBRANCH   6  27
TORSDOF 4
