REMARK  Name = ZINC42840507
REMARK                            x       y       z     vdW  Elec       q    Type
REMARK                         _______ _______ _______ _____ _____    ______ ____
ROOT
ATOM      1  N   LIG    1        2.868  -1.809  -2.493  0.00  0.00    -0.297 N 
ATOM      2  H   LIG    1        3.183  -1.345  -1.702  0.00  0.00    +0.150 HD
ATOM      3  C   LIG    1        3.708  -2.033  -3.523  0.00  0.00    +0.300 C 
ATOM      4  N   LIG    1        4.987  -1.613  -3.453  0.00  0.00    -0.294 N 
ATOM      5  H   LIG    1        5.302  -1.149  -2.661  0.00  0.00    +0.151 HD
ATOM      6  O   LIG    1        3.313  -2.614  -4.515  0.00  0.00    -0.253 OA
ENDROOT
BRANCH   4   7
ATOM      7  C   LIG    1        5.900  -1.857  -4.572  0.00  0.00    +0.037 C 
ATOM      8  C   LIG    1        6.019  -3.362  -4.815  0.00  0.00    +0.029 C 
ATOM      9  C   LIG    1        6.972  -3.617  -5.984  0.00  0.00    -0.008 C 
ATOM     10  C   LIG    1        8.351  -3.044  -5.651  0.00  0.00    +0.007 C 
ATOM     11  C   LIG    1        8.233  -1.538  -5.407  0.00  0.00    -0.008 C 
ATOM     12  C   LIG    1        7.690  -0.860  -6.666  0.00  0.00    +0.007 C 
ATOM     13  C   LIG    1        6.311  -1.432  -7.000  0.00  0.00    -0.008 C 
ATOM     14  C   LIG    1        6.429  -2.938  -7.243  0.00  0.00    +0.007 C 
ATOM     15  C   LIG    1        5.357  -1.178  -5.831  0.00  0.00    +0.029 C 
ATOM     16  C   LIG    1        7.279  -1.284  -4.239  0.00  0.00    +0.029 C 
ENDBRANCH   4   7
BRANCH   1  17
ATOM     17  C   LIG    1        1.478  -2.265  -2.569  0.00  0.00    +0.133 C 
BRANCH  17  18
ATOM     18  C   LIG    1        0.746  -1.888  -1.280  0.00  0.00    +0.178 C 
BRANCH  18  19
ATOM     19  O   LIG    1        0.671  -0.465  -1.174  0.00  0.00    -0.378 OA
BRANCH  19  21
ATOM     20  C   LIG    1       -0.019   1.526   0.010  0.00  0.00    +0.034 C 
ATOM     21  C   LIG    1        0.002  -0.004   0.002  0.00  0.00    +0.156 C 
ENDBRANCH  19  21
ENDBRANCH  18  19
ENDBRANCH  17  18
ENDBRANCH   1  17
TORSDOF 5
