REMARK  Name = ZINC19796039
REMARK                            x       y       z     vdW  Elec       q    Type
REMARK                         _______ _______ _______ _____ _____    ______ ____
ROOT
ATOM      1  C   LIG    1        1.566  -2.364   2.370  0.00  0.00    +0.068 C 
ATOM      2  C   LIG    1        1.489  -3.684   2.608  0.00  0.00    +0.045 C 
ATOM      3  N   LIG    1        2.042  -4.227   3.736  0.00  0.00    -0.319 N 
ATOM      4  H   LIG    1        1.770  -5.111   4.029  0.00  0.00    +0.152 HD
ATOM      5  C   LIG    1        2.975  -3.529   4.452  0.00  0.00    +0.016 C 
ATOM      6  C   LIG    1        3.859  -4.257   5.432  0.00  0.00    +0.061 C 
ATOM      7  C   LIG    1        3.113  -2.201   4.292  0.00  0.00    +0.065 C 
ATOM      8  C   LIG    1        2.255  -1.434   3.330  0.00  0.00    +0.097 C 
ENDROOT
BRANCH   8   9
ATOM      9  C   LIG    1        1.217  -0.663   4.104  0.00  0.00    -0.017 A 
ATOM     10  C   LIG    1        0.301  -1.335   4.891  0.00  0.00    +0.006 A 
ATOM     11  C   LIG    1       -0.651  -0.628   5.602  0.00  0.00    +0.000 A 
ATOM     12  C   LIG    1       -0.687   0.752   5.526  0.00  0.00    +0.001 A 
ATOM     13  C   LIG    1        0.228   1.425   4.739  0.00  0.00    +0.020 A 
ATOM     14  C   LIG    1        1.185   0.718   4.032  0.00  0.00    +0.045 A 
ATOM     15 CL   LIG    1        2.339   1.563   3.049  0.00  0.00    -0.083 Cl
ENDBRANCH   8   9
BRANCH   1  16
ATOM     16  C   LIG    1        0.992  -1.838   1.190  0.00  0.00    +0.338 C 
ATOM     17  O   LIG    1        1.698  -1.578   0.234  0.00  0.00    -0.245 OA
BRANCH  16  18
ATOM     18  O   LIG    1       -0.339  -1.625   1.124  0.00  0.00    -0.462 OA
BRANCH  18  20
ATOM     19  C   LIG    1       -2.367  -0.920   0.014  0.00  0.00    +0.048 C 
ATOM     20  C   LIG    1       -0.851  -1.092  -0.099  0.00  0.00    +0.229 C 
ENDBRANCH  18  20
ENDBRANCH  16  18
ENDBRANCH   1  16
BRANCH   7  21
ATOM     21  C   LIG    1        4.093  -1.513   5.044  0.00  0.00    +0.337 C 
ATOM     22  O   LIG    1        4.801  -2.122   5.825  0.00  0.00    -0.245 OA
BRANCH  21  23
ATOM     23  O   LIG    1        4.245  -0.180   4.895  0.00  0.00    -0.465 OA
ATOM     24  C   LIG    1        5.254   0.451   5.686  0.00  0.00    +0.280 C 
ENDBRANCH  21  23
ENDBRANCH   7  21
BRANCH   2  25
ATOM     25  C   LIG    1        0.786  -4.578   1.619  0.00  0.00    +0.210 C 
BRANCH  25  26
ATOM     26  O   LIG    1        1.732  -5.475   1.031  0.00  0.00    -0.376 OA
BRANCH  26  27
ATOM     27  C   LIG    1        1.165  -6.371   0.073  0.00  0.00    +0.141 C 
BRANCH  27  28
ATOM     28  C   LIG    1        2.262  -7.279  -0.487  0.00  0.00    -0.058 C 
BRANCH  28  29
ATOM     29  N   LIG    1        2.784  -8.136   0.586  0.00  0.00    +0.380 N 
ATOM     30  H   LIG    1        3.508  -8.734   0.216  0.00  0.00    -0.090 HD
ATOM     31  H   LIG    1        2.037  -8.702   0.958  0.00  0.00    -0.090 HD
ATOM     32  H   LIG    1        3.167  -7.559   1.320  0.00  0.00    -0.090 HD
ENDBRANCH  28  29
ENDBRANCH  27  28
ENDBRANCH  26  27
ENDBRANCH  25  26
ENDBRANCH   2  25
TORSDOF 11
