REMARK  Name = ZINC15834349
REMARK                            x       y       z     vdW  Elec       q    Type
REMARK                         _______ _______ _______ _____ _____    ______ ____
ROOT
ATOM      1  C   LIG    1       -4.425   1.623   3.110  0.00  0.00    +0.069 A 
ATOM      2  C   LIG    1       -3.682   0.560   3.559  0.00  0.00    +0.089 A 
ATOM      3  C   LIG    1       -2.850   0.113   2.413  0.00  0.00    +0.082 A 
ATOM      4  N   LIG    1       -1.983  -0.975   2.592  0.00  0.00    -0.294 N 
ATOM      5  C   LIG    1       -1.140  -1.466   1.499  0.00  0.00    +0.154 C 
ATOM      6  C   LIG    1       -1.958  -1.553   3.813  0.00  0.00    +0.332 A 
ATOM      7  N   LIG    1       -2.691  -1.176   4.865  0.00  0.00    -0.263 N 
ATOM      8  C   LIG    1       -2.534  -1.920   6.118  0.00  0.00    +0.157 C 
ATOM      9  O   LIG    1       -1.206  -2.496   3.968  0.00  0.00    -0.246 OA
ATOM     10  C   LIG    1       -3.139   0.915   1.399  0.00  0.00    +0.073 A 
ATOM     11  C   LIG    1       -2.573   0.930  -0.004  0.00  0.00    +0.150 C 
ATOM     12  N   LIG    1       -3.567   1.560  -0.887  0.00  0.00    -0.330 N 
ATOM     13  H   LIG    1       -3.712   1.211  -1.781  0.00  0.00    +0.147 HD
ATOM     14  C   LIG    1       -4.304   2.662  -0.439  0.00  0.00    +0.052 A 
ATOM     15  C   LIG    1       -4.740   3.629  -1.331  0.00  0.00    +0.025 A 
ATOM     16  C   LIG    1       -5.483   4.702  -0.875  0.00  0.00    +0.002 A 
ATOM     17  C   LIG    1       -5.798   4.816   0.467  0.00  0.00    +0.002 A 
ATOM     18  C   LIG    1       -5.362   3.860   1.367  0.00  0.00    +0.028 A 
ATOM     19  C   LIG    1       -4.610   2.790   0.920  0.00  0.00    +0.068 A 
ATOM     20  C   LIG    1       -3.573  -0.144   4.841  0.00  0.00    +0.266 A 
ATOM     21  O   LIG    1       -4.227   0.176   5.815  0.00  0.00    -0.267 OA
ATOM     22  N   LIG    1       -4.106   1.825   1.804  0.00  0.00    -0.306 N 
ENDROOT
BRANCH   1  29
ATOM     23  C   LIG    1       -3.525   3.949   4.578  0.00  0.00    +0.044 C 
ATOM     24  C   LIG    1       -4.972   3.530   4.616  0.00  0.00    -0.041 A 
ATOM     25  C   LIG    1       -5.884   4.259   5.350  0.00  0.00    +0.004 A 
ATOM     26  C   LIG    1       -7.212   3.873   5.390  0.00  0.00    +0.000 A 
ATOM     27  C   LIG    1       -7.636   2.757   4.689  0.00  0.00    +0.001 A 
ATOM     28  C   LIG    1       -6.737   2.022   3.947  0.00  0.00    +0.010 A 
ATOM     29  C   LIG    1       -5.394   2.406   3.902  0.00  0.00    +0.003 A 
ENDBRANCH   1  29
BRANCH  11  30
ATOM     30  C   LIG    1       -1.293   1.726  -0.029  0.00  0.00    -0.019 A 
ATOM     31  C   LIG    1       -1.338   3.108  -0.037  0.00  0.00    +0.006 A 
ATOM     32  C   LIG    1       -0.165   3.837  -0.065  0.00  0.00    +0.003 A 
ATOM     33  C   LIG    1        1.054   3.186  -0.080  0.00  0.00    +0.032 A 
ATOM     34  C   LIG    1        1.099   1.804  -0.067  0.00  0.00    +0.122 A 
ATOM     35  C   LIG    1       -0.074   1.074  -0.039  0.00  0.00    +0.038 A 
BRANCH  34  36
ATOM     36  N   LIG    1        2.405   1.106  -0.084  0.00  0.00    +0.006 N 
ATOM     37  O   LIG    1        2.445  -0.111  -0.072  0.00  0.00    -0.130 OA
BRANCH  36  38
ATOM     38  O   LIG    1        3.439   1.749  -0.109  0.00  0.00    -0.396 OA
ATOM     39  H   LIG    1        3.408   2.686  -0.118  0.00  0.00    +0.329 HD
ENDBRANCH  36  38
ENDBRANCH  34  36
ENDBRANCH  11  30
TORSDOF 4
