REMARK  Name = ZINC19118456
REMARK                            x       y       z     vdW  Elec       q    Type
REMARK                         _______ _______ _______ _____ _____    ______ ____
ROOT
ATOM      1  C   LIG    1        2.505   1.083  -0.015  0.00  0.00    +0.044 C 
ATOM      2  C   LIG    1        1.176   1.794   0.001  0.00  0.00    -0.046 A 
ATOM      3  C   LIG    1       -0.013   1.076   0.008  0.00  0.00    +0.026 A 
ATOM      4  C   LIG    1       -1.213   1.757   0.017  0.00  0.00    +0.041 A 
ATOM      5  C   LIG    1       -2.507   0.983   0.020  0.00  0.00    +0.065 C 
ATOM      6  N   LIG    1       -1.243   3.076   0.030  0.00  0.00    -0.238 NA
ATOM      7  C   LIG    1       -0.132   3.796   0.023  0.00  0.00    +0.117 A 
ATOM      8  C   LIG    1        1.113   3.175   0.008  0.00  0.00    +0.046 A 
ENDROOT
BRANCH   7   9
ATOM      9  N   LIG    1       -0.210   5.183   0.030  0.00  0.00    -0.343 N 
ATOM     10  H   LIG    1       -1.076   5.620   0.041  0.00  0.00    +0.144 HD
ATOM     11  H   LIG    1        0.602   5.715   0.025  0.00  0.00    +0.144 HD
ENDBRANCH   7   9
TORSDOF 1
