REMARK  Name = ZINC29411711
REMARK                            x       y       z     vdW  Elec       q    Type
REMARK                         _______ _______ _______ _____ _____    ______ ____
ROOT
ATOM      1  C   LIG    1       -0.160  -0.386   0.118  0.00  0.00    +0.225 A 
ATOM      2  N   LIG    1       -0.344   0.919   0.037  0.00  0.00    -0.219 NA
ATOM      3  C   LIG    1        0.683   1.752  -0.098  0.00  0.00    +0.147 A 
ATOM      4  C   LIG    1        1.980   1.213  -0.153  0.00  0.00    +0.147 A 
ATOM      5  C   LIG    1        2.123  -0.182  -0.063  0.00  0.00    +0.166 A 
ATOM      6  N   LIG    1        3.470  -0.430  -0.143  0.00  0.00    -0.311 N 
ATOM      7  C   LIG    1        4.099   0.772  -0.276  0.00  0.00    +0.202 A 
ATOM      8  N   LIG    1        3.223   1.734  -0.281  0.00  0.00    -0.231 NA
ATOM      9  N   LIG    1        1.036  -0.935   0.071  0.00  0.00    -0.216 NA
ENDROOT
BRANCH   3  10
ATOM     10  N   LIG    1        0.480   3.118  -0.183  0.00  0.00    -0.341 N 
ATOM     11  H   LIG    1       -0.541   3.526  -0.139  0.00  0.00    +0.144 HD
ATOM     12  H   LIG    1        1.339   3.796  -0.295  0.00  0.00    +0.144 HD
ENDBRANCH   3  10
BRANCH   6  13
ATOM     13  C   LIG    1        4.113  -1.745  -0.095  0.00  0.00    +0.152 C 
BRANCH  13  14
ATOM     14  C   LIG    1        4.120  -2.352  -1.474  0.00  0.00    -0.007 C 
ATOM     15  C   LIG    1        5.242  -2.788  -1.992  0.00  0.00    +0.004 C 
BRANCH  15  16
ATOM     16  C   LIG    1        6.487  -2.853  -1.146  0.00  0.00    +0.162 C 
BRANCH  16  17
ATOM     17  O   LIG    1        7.038  -4.170  -1.209  0.00  0.00    -0.385 OA
ATOM     18  H   LIG    1        7.955  -4.410  -0.651  0.00  0.00    +0.210 HD
ENDBRANCH  16  17
BRANCH  16  19
ATOM     19  C   LIG    1        7.513  -1.846  -1.670  0.00  0.00    +0.191 C 
BRANCH  19  20
ATOM     20  O   LIG    1        8.647  -1.824  -0.800  0.00  0.00    -0.392 OA
ATOM     21  H   LIG    1        9.493  -1.156  -1.016  0.00  0.00    +0.210 HD
ENDBRANCH  19  20
ENDBRANCH  16  19
ENDBRANCH  15  16
ENDBRANCH  13  14
ENDBRANCH   6  13
TORSDOF 7
