REMARK  Name = ZINC53022004
REMARK                            x       y       z     vdW  Elec       q    Type
REMARK                         _______ _______ _______ _____ _____    ______ ____
ROOT
ATOM      1  C   LIG    1       -7.227  -4.022  -2.035  0.00  0.00    +0.134 A 
ATOM      2  C   LIG    1       -6.347  -4.315  -3.066  0.00  0.00    +0.048 A 
ATOM      3  C   LIG    1       -6.755  -5.100  -4.123  0.00  0.00    +0.027 A 
ATOM      4  C   LIG    1       -8.051  -5.613  -4.162  0.00  0.00    +0.035 A 
ATOM      5  C   LIG    1       -8.928  -5.311  -3.128  0.00  0.00    -0.014 A 
ATOM      6  C   LIG    1      -10.253  -5.976  -3.422  0.00  0.00    +0.028 C 
ATOM      7  C   LIG    1      -11.363  -4.991  -3.767  0.00  0.00    +0.019 C 
ATOM      8  C   LIG    1      -10.618  -6.919  -2.250  0.00  0.00    +0.030 C 
ATOM      9  C   LIG    1       -9.656  -8.108  -2.523  0.00  0.00    +0.087 C 
ATOM     10  N   LIG    1       -9.771  -8.280  -3.994  0.00  0.00    -0.287 NA
ATOM     11  C   LIG    1       -8.674  -9.079  -4.529  0.00  0.00    +0.106 C 
ATOM     12  C   LIG    1       -9.921  -6.948  -4.588  0.00  0.00    +0.154 C 
ATOM     13  N   LIG    1       -8.678  -6.406  -5.132  0.00  0.00    -0.316 N 
ATOM     14  C   LIG    1       -8.177  -6.597  -6.496  0.00  0.00    +0.131 C 
ATOM     15  C   LIG    1       -8.520  -4.522  -2.071  0.00  0.00    +0.052 A 
ENDROOT
BRANCH   1  16
ATOM     16  O   LIG    1       -6.824  -3.246  -0.993  0.00  0.00    -0.411 OA
BRANCH  16  19
ATOM     17  N   LIG    1       -6.461  -3.059   1.305  0.00  0.00    -0.251 N 
ATOM     18  H   LIG    1       -6.385  -2.096   1.217  0.00  0.00    +0.158 HD
ATOM     19  C   LIG    1       -6.756  -3.813   0.227  0.00  0.00    +0.410 C 
ATOM     20  O   LIG    1       -6.960  -5.004   0.357  0.00  0.00    -0.226 OA
BRANCH  17  24
ATOM     21  C   LIG    1       -5.877  -4.863   5.014  0.00  0.00    -0.045 A 
ATOM     22  C   LIG    1       -5.641  -5.578   3.854  0.00  0.00    +0.006 A 
ATOM     23  C   LIG    1       -5.834  -4.983   2.623  0.00  0.00    +0.024 A 
ATOM     24  C   LIG    1       -6.265  -3.665   2.551  0.00  0.00    +0.036 A 
ATOM     25  C   LIG    1       -6.501  -2.950   3.717  0.00  0.00    +0.024 A 
ATOM     26  C   LIG    1       -6.312  -3.553   4.946  0.00  0.00    +0.006 A 
BRANCH  21  28
ATOM     27  C   LIG    1       -6.576  -6.740   6.477  0.00  0.00    +0.012 C 
ATOM     28  C   LIG    1       -5.665  -5.516   6.356  0.00  0.00    +0.013 C 
ATOM     29  C   LIG    1       -4.205  -5.952   6.486  0.00  0.00    +0.012 C 
ENDBRANCH  21  28
ENDBRANCH  17  24
ENDBRANCH  16  19
ENDBRANCH   1  16
TORSDOF 4
