REMARK  Name = ZINC18115268
REMARK                            x       y       z     vdW  Elec       q    Type
REMARK                         _______ _______ _______ _____ _____    ______ ____
ROOT
ATOM      1  C   LIG    1        3.324   0.113  -3.992  0.00  0.00    +0.110 C 
ENDROOT
BRANCH   1   2
ATOM      2  S   LIG    1        1.554   0.124  -3.594  0.00  0.00    -0.151 S 
BRANCH   2   3
ATOM      3  C   LIG    1        1.210   1.856  -3.175  0.00  0.00    +0.124 C 
BRANCH   3   6
ATOM      4  C   LIG    1       -0.046   1.564  -0.323  0.00  0.00    +0.067 C 
ATOM      5  C   LIG    1       -0.790   1.882  -1.594  0.00  0.00    +0.060 A 
ATOM      6  C   LIG    1       -0.246   2.006  -2.820  0.00  0.00    +0.048 A 
ATOM      7  N   LIG    1       -1.271   2.296  -3.680  0.00  0.00    -0.347 N 
ATOM      8  H   LIG    1       -1.195   2.444  -4.636  0.00  0.00    +0.167 HD
ATOM      9  C   LIG    1       -2.406   2.340  -2.950  0.00  0.00    +0.196 A 
ATOM     10  N   LIG    1       -2.112   2.086  -1.704  0.00  0.00    -0.241 NA
ENDBRANCH   3   6
ENDBRANCH   2   3
ENDBRANCH   1   2
BRANCH   1  11
ATOM     11  C   LIG    1        3.753  -1.307  -4.368  0.00  0.00    +0.254 C 
BRANCH  11  12
ATOM     12  N   LIG    1        5.182  -1.317  -4.690  0.00  0.00    -0.112 NA
ATOM     13  C   LIG    1        6.009  -2.009  -3.960  0.00  0.00    +0.395 C 
BRANCH  13  14
ATOM     14  N   LIG    1        5.528  -2.832  -2.969  0.00  0.00    -0.278 N 
ATOM     15  H   LIG    1        4.572  -2.945  -2.855  0.00  0.00    +0.258 HD
ATOM     16  C   LIG    1        6.460  -3.538  -2.087  0.00  0.00    +0.239 C 
ENDBRANCH  13  14
BRANCH  13  17
ATOM     17  N   LIG    1        7.368  -1.917  -4.181  0.00  0.00    -0.178 N 
ATOM     18  H   LIG    1        7.707  -1.336  -4.880  0.00  0.00    +0.278 HD
BRANCH  17  19
ATOM     19  C   LIG    1        8.228  -2.637  -3.422  0.00  0.00    +0.255 C 
ATOM     20  N   LIG    1        8.950  -3.241  -2.785  0.00  0.00    -0.154 NA
ENDBRANCH  17  19
ENDBRANCH  13  17
ENDBRANCH  11  12
ENDBRANCH   1  11
TORSDOF 8
