REMARK  Name = ZINC28889190
REMARK                            x       y       z     vdW  Elec       q    Type
REMARK                         _______ _______ _______ _____ _____    ______ ____
ROOT
ATOM      1  C   LIG    1       -2.402   1.885   0.535  0.00  0.00    +0.150 C 
ATOM      2  N   LIG    1       -1.097   2.162  -0.071  0.00  0.00    -0.328 N 
ATOM      3  C   LIG    1       -0.573   3.375  -0.322  0.00  0.00    +0.201 A 
ATOM      4  N   LIG    1        0.605   3.241  -0.873  0.00  0.00    -0.220 NA
ATOM      5  C   LIG    1        0.903   1.942  -0.999  0.00  0.00    +0.150 A 
ATOM      6  C   LIG    1       -0.166   1.220  -0.490  0.00  0.00    +0.146 A 
ENDROOT
BRANCH   6   7
ATOM      7  C   LIG    1       -0.287  -0.189  -0.419  0.00  0.00    +0.268 C 
ATOM      8  N   LIG    1       -1.321  -0.744   0.244  0.00  0.00    -0.280 N 
ATOM      9  H   LIG    1       -2.117  -0.106   0.655  0.00  0.00    +0.155 HD
ATOM     10  O   LIG    1        0.544  -0.900  -0.957  0.00  0.00    -0.268 OA
BRANCH   8  11
ATOM     11  C   LIG    1       -1.381  -2.132   0.410  0.00  0.00    +0.034 A 
ATOM     12  C   LIG    1       -0.212  -2.866   0.561  0.00  0.00    +0.025 A 
ATOM     13  C   LIG    1       -0.275  -4.235   0.732  0.00  0.00    +0.022 A 
ATOM     14  C   LIG    1       -1.501  -4.877   0.738  0.00  0.00    +0.041 A 
ATOM     15 CL   LIG    1       -1.576  -6.599   0.944  0.00  0.00    -0.084 Cl
ATOM     16  C   LIG    1       -2.667  -4.149   0.581  0.00  0.00    +0.022 A 
ATOM     17  C   LIG    1       -2.610  -2.779   0.417  0.00  0.00    +0.025 A 
ENDBRANCH   8  11
ENDBRANCH   6   7
BRANCH   5  18
ATOM     18  N   LIG    1        2.068   1.416  -1.540  0.00  0.00    -0.323 N 
ATOM     19  H   LIG    1        2.206   0.326  -1.593  0.00  0.00    +0.148 HD
BRANCH  18  20
ATOM     20  C   LIG    1        3.114   2.312  -2.039  0.00  0.00    +0.138 C 
BRANCH  20  21
ATOM     21  C   LIG    1        4.264   1.495  -2.570  0.00  0.00    -0.028 A 
ATOM     22  C   LIG    1        5.314   1.126  -1.743  0.00  0.00    +0.025 A 
ATOM     23  C   LIG    1        6.349   0.373  -2.264  0.00  0.00    +0.111 A 
ATOM     24  N   LIG    1        6.350   0.015  -3.533  0.00  0.00    -0.263 NA
ATOM     25  C   LIG    1        5.371   0.351  -4.349  0.00  0.00    +0.111 A 
ATOM     26  C   LIG    1        4.300   1.099  -3.898  0.00  0.00    +0.025 A 
ENDBRANCH  20  21
ENDBRANCH  18  20
ENDBRANCH   5  18
TORSDOF 5
