REMARK  Name = ZINC49018631
REMARK                            x       y       z     vdW  Elec       q    Type
REMARK                         _______ _______ _______ _____ _____    ______ ____
ROOT
ATOM      1  C   LIG    1       -0.270   1.537   0.169  0.00  0.00    +0.045 C 
ATOM      2  C   LIG    1        0.169   0.129  -0.139  0.00  0.00    -0.029 A 
ATOM      3  C   LIG    1        0.118  -0.342  -1.437  0.00  0.00    +0.007 A 
ATOM      4  C   LIG    1        0.519  -1.632  -1.724  0.00  0.00    +0.024 A 
ATOM      5  C   LIG    1        0.975  -2.462  -0.707  0.00  0.00    +0.035 A 
ATOM      6  C   LIG    1        1.028  -1.992   0.598  0.00  0.00    +0.047 A 
ATOM      7  C   LIG    1        0.630  -0.694   0.882  0.00  0.00    +0.038 A 
ENDROOT
BRANCH   5   8
ATOM      8  N   LIG    1        1.380  -3.768  -0.998  0.00  0.00    -0.281 N 
ATOM      9  H   LIG    1        1.171  -4.489  -0.383  0.00  0.00    +0.155 HD
ATOM     10  C   LIG    1        2.062  -4.026  -2.131  0.00  0.00    +0.248 C 
ATOM     11  O   LIG    1        2.249  -3.140  -2.943  0.00  0.00    -0.270 OA
BRANCH  10  12
ATOM     12  C   LIG    1        2.582  -5.385  -2.388  0.00  0.00    +0.037 A 
ATOM     13  C   LIG    1        2.364  -6.406  -1.462  0.00  0.00    +0.013 A 
ATOM     14  C   LIG    1        2.852  -7.673  -1.708  0.00  0.00    +0.005 A 
ATOM     15  C   LIG    1        3.555  -7.933  -2.870  0.00  0.00    -0.033 A 
ATOM     16  C   LIG    1        3.775  -6.925  -3.793  0.00  0.00    +0.005 A 
ATOM     17  C   LIG    1        3.288  -5.655  -3.562  0.00  0.00    +0.013 A 
BRANCH  15  18
ATOM     18  C   LIG    1        4.086  -9.319  -3.132  0.00  0.00    +0.119 C 
BRANCH  18  19
ATOM     19  N   LIG    1        3.076 -10.100  -3.859  0.00  0.00    -0.296 NA
ATOM     20  C   LIG    1        1.890 -10.335  -3.024  0.00  0.00    +0.100 C 
ATOM     21  C   LIG    1        0.833 -11.081  -3.841  0.00  0.00    +0.099 C 
ATOM     22  N   LIG    1        1.395 -12.351  -4.322  0.00  0.00    -0.303 NA
ATOM     23  C   LIG    1        0.385 -13.132  -5.049  0.00  0.00    +0.105 C 
ATOM     24  C   LIG    1        2.581 -12.116  -5.157  0.00  0.00    +0.099 C 
ATOM     25  C   LIG    1        3.638 -11.370  -4.340  0.00  0.00    +0.100 C 
ENDBRANCH  18  19
ENDBRANCH  15  18
ENDBRANCH  10  12
ENDBRANCH   5   8
BRANCH   7  26
ATOM     26  N   LIG    1        0.686  -0.215   2.194  0.00  0.00    -0.283 N 
ATOM     27  H   LIG    1        0.804   0.733   2.360  0.00  0.00    +0.155 HD
BRANCH  26  28
ATOM     28  C   LIG    1        0.575  -1.096   3.258  0.00  0.00    +0.220 A 
ATOM     29  N   LIG    1        0.299  -2.369   3.016  0.00  0.00    -0.223 NA
ATOM     30  C   LIG    1        0.185  -3.241   4.005  0.00  0.00    +0.116 A 
ATOM     31  C   LIG    1        0.358  -2.812   5.309  0.00  0.00    +0.048 A 
ATOM     32  C   LIG    1        0.648  -1.464   5.533  0.00  0.00    +0.077 A 
ATOM     33  N   LIG    1        0.753  -0.645   4.489  0.00  0.00    -0.214 NA
BRANCH  32  34
ATOM     34  C   LIG    1        0.842  -0.955   6.913  0.00  0.00    +0.019 A 
ATOM     35  C   LIG    1        1.023   0.411   7.147  0.00  0.00    +0.013 A 
ATOM     36  C   LIG    1        1.200   0.836   8.452  0.00  0.00    +0.024 A 
ATOM     37  C   LIG    1        1.192  -0.097   9.474  0.00  0.00    +0.038 A 
ATOM     38  C   LIG    1        1.384   0.360  10.897  0.00  0.00    +0.065 C 
ATOM     39  N   LIG    1        1.018  -1.380   9.222  0.00  0.00    -0.260 NA
ATOM     40  C   LIG    1        0.841  -1.830   7.997  0.00  0.00    +0.121 A 
ENDBRANCH  32  34
ENDBRANCH  26  28
ENDBRANCH   7  26
TORSDOF 7
