REMARK  Name = ZINC00001464
REMARK                            x       y       z     vdW  Elec       q    Type
REMARK                         _______ _______ _______ _____ _____    ______ ____
ROOT
ATOM      1  C   LIG    1       -2.849  -2.418   0.016  0.00  0.00    +0.170 A 
ATOM      2  C   LIG    1       -3.157  -3.744   0.018  0.00  0.00    +0.075 A 
ATOM      3  N   LIG    1       -4.509  -3.842   0.000  0.00  0.00    -0.300 N 
ATOM      4  C   LIG    1       -5.244  -5.028  -0.070  0.00  0.00    +0.060 A 
ATOM      5  C   LIG    1       -6.418  -5.024  -0.818  0.00  0.00    +0.030 A 
ATOM      6  C   LIG    1       -7.168  -6.173  -0.950  0.00  0.00    +0.040 A 
ATOM      7  C   LIG    1       -6.753  -7.347  -0.338  0.00  0.00    +0.124 A 
ATOM      8  F   LIG    1       -7.481  -8.476  -0.481  0.00  0.00    -0.205 F 
ATOM      9  C   LIG    1       -5.601  -7.364   0.416  0.00  0.00    +0.053 A 
ATOM     10  C   LIG    1       -4.834  -6.197   0.575  0.00  0.00    +0.063 A 
ATOM     11  C   LIG    1       -3.662  -6.264   1.450  0.00  0.00    +0.249 C 
ATOM     12  N   LIG    1       -2.476  -5.689   1.251  0.00  0.00    -0.295 N 
ATOM     13  C   LIG    1       -1.427  -5.847   2.261  0.00  0.00    +0.132 C 
ATOM     14  O   LIG    1       -3.784  -6.915   2.470  0.00  0.00    -0.270 OA
ATOM     15  C   LIG    1       -5.012  -2.576   0.028  0.00  0.00    +0.205 A 
ATOM     16  C   LIG    1       -2.195  -4.903   0.045  0.00  0.00    +0.163 C 
ATOM     17  N   LIG    1       -4.022  -1.730   0.032  0.00  0.00    -0.228 NA
ENDROOT
BRANCH   1  18
ATOM     18  C   LIG    1       -1.497  -1.837   0.006  0.00  0.00    +0.360 C 
ATOM     19  O   LIG    1       -0.523  -2.564  -0.007  0.00  0.00    -0.243 OA
BRANCH  18  20
ATOM     20  O   LIG    1       -1.339  -0.499   0.012  0.00  0.00    -0.460 OA
BRANCH  20  22
ATOM     21  C   LIG    1       -0.019   1.526   0.010  0.00  0.00    +0.048 C 
ATOM     22  C   LIG    1        0.002  -0.004   0.002  0.00  0.00    +0.229 C 
ENDBRANCH  20  22
ENDBRANCH  18  20
ENDBRANCH   1  18
TORSDOF 3
