REMARK  Name = ZINC43201585
REMARK                            x       y       z     vdW  Elec       q    Type
REMARK                         _______ _______ _______ _____ _____    ______ ____
ROOT
ATOM      1  C   LIG    1        0.626  -0.618   1.042  0.00  0.00    +0.121 A 
ATOM      2  C   LIG    1        1.203   0.154   2.054  0.00  0.00    +0.046 A 
ATOM      3  C   LIG    1        1.834  -0.432   3.107  0.00  0.00    +0.012 A 
ATOM      4  C   LIG    1        1.909  -1.833   3.183  0.00  0.00    -0.014 A 
ATOM      5  C   LIG    1        2.554  -2.469   4.260  0.00  0.00    +0.056 A 
ATOM      6  C   LIG    1        2.610  -3.830   4.306  0.00  0.00    +0.140 A 
ATOM      7  C   LIG    1        2.031  -4.609   3.291  0.00  0.00    +0.095 A 
ATOM      8  C   LIG    1        1.398  -4.021   2.233  0.00  0.00    +0.037 A 
ATOM      9  C   LIG    1        1.324  -2.619   2.158  0.00  0.00    -0.012 A 
ATOM     10  C   LIG    1        0.675  -1.983   1.087  0.00  0.00    +0.054 A 
ENDROOT
BRANCH   7  11
ATOM     11  N   LIG    1        2.104  -6.003   3.364  0.00  0.00    -0.178 N 
ATOM     12  C   LIG    1        3.098  -6.891   2.747  0.00  0.00    +0.230 C 
ATOM     13  C   LIG    1        2.824  -8.325   3.067  0.00  0.00    +0.252 C 
ATOM     14  N   LIG    1        1.749  -8.536   3.840  0.00  0.00    -0.171 N 
ATOM     15  H   LIG    1        1.420  -9.396   4.147  0.00  0.00    +0.178 HD
ATOM     16  O   LIG    1        3.522  -9.229   2.659  0.00  0.00    -0.272 OA
ATOM     17  S   LIG    1        1.086  -7.046   4.179  0.00  0.00    +0.129 S 
ATOM     18  O   LIG    1       -0.179  -6.992   3.534  0.00  0.00    -0.135 OA
ATOM     19  O   LIG    1        1.262  -6.809   5.569  0.00  0.00    -0.135 OA
ENDBRANCH   7  11
BRANCH   1  21
ATOM     20  C   LIG    1       -0.017   1.425   0.010  0.00  0.00    +0.277 C 
ATOM     21  O   LIG    1        0.002  -0.004   0.002  0.00  0.00    -0.495 OA
ENDBRANCH   1  21
BRANCH   6  22
ATOM     22  O   LIG    1        3.234  -4.441   5.349  0.00  0.00    -0.505 OA
ATOM     23  H   LIG    1        3.622  -3.927   6.029  0.00  0.00    +0.292 HD
ENDBRANCH   6  22
TORSDOF 3
