REMARK  Name = ZINC00001763
REMARK                            x       y       z     vdW  Elec       q    Type
REMARK                         _______ _______ _______ _____ _____    ______ ____
ROOT
ATOM      1  O   LIG    1       -1.168  -2.409   0.033  0.00  0.00    -0.422 OA
ENDROOT
BRANCH   1   2
ATOM      2  C   LIG    1       -2.392  -2.983  -0.098  0.00  0.00    +0.133 A 
ATOM      3  C   LIG    1       -3.422  -2.278  -0.731  0.00  0.00    +0.047 A 
ATOM      4  C   LIG    1       -4.657  -2.827  -0.876  0.00  0.00    +0.012 A 
ATOM      5  C   LIG    1       -4.911  -4.121  -0.386  0.00  0.00    -0.017 A 
ATOM      6  C   LIG    1       -6.176  -4.710  -0.523  0.00  0.00    +0.024 A 
ATOM      7  C   LIG    1       -6.392  -5.986  -0.029  0.00  0.00    +0.061 A 
ATOM      8  C   LIG    1       -5.354  -6.690   0.607  0.00  0.00    +0.016 A 
ATOM      9  C   LIG    1       -4.123  -6.136   0.750  0.00  0.00    +0.009 A 
ATOM     10  C   LIG    1       -3.872  -4.842   0.258  0.00  0.00    -0.014 A 
ATOM     11  C   LIG    1       -2.605  -4.253   0.389  0.00  0.00    +0.055 A 
BRANCH   7  12
ATOM     12  C   LIG    1       -7.724  -6.612  -0.171  0.00  0.00    +0.266 C 
ATOM     13  N   LIG    1       -7.937  -7.838   0.302  0.00  0.00    -0.288 N 
ATOM     14  H   LIG    1       -8.811  -8.249   0.209  0.00  0.00    +0.301 HD
ATOM     15  H   LIG    1       -7.218  -8.321   0.740  0.00  0.00    +0.301 HD
BRANCH  12  16
ATOM     16  N   LIG    1       -8.710  -5.949  -0.772  0.00  0.00    -0.250 N 
ATOM     17  H   LIG    1       -9.584  -6.360  -0.866  0.00  0.00    +0.288 HD
ATOM     18  H   LIG    1       -8.555  -5.056  -1.117  0.00  0.00    +0.288 HD
ENDBRANCH  12  16
ENDBRANCH   7  12
ENDBRANCH   1   2
BRANCH   1  19
ATOM     19  C   LIG    1       -1.010  -1.464   0.981  0.00  0.00    +0.344 C 
ATOM     20  O   LIG    1       -1.918  -1.217   1.750  0.00  0.00    -0.245 OA
BRANCH  19  26
ATOM     21  C   LIG    1        0.431   0.250   2.068  0.00  0.00    +0.018 A 
ATOM     22  C   LIG    1        1.622   0.933   2.162  0.00  0.00    +0.043 A 
ATOM     23  C   LIG    1        2.660   0.649   1.280  0.00  0.00    +0.100 A 
ATOM     24  C   LIG    1        2.499  -0.327   0.301  0.00  0.00    +0.043 A 
ATOM     25  C   LIG    1        1.311  -1.014   0.201  0.00  0.00    +0.018 A 
ATOM     26  C   LIG    1        0.265  -0.731   1.085  0.00  0.00    +0.060 A 
BRANCH  23  27
ATOM     27  N   LIG    1        3.865   1.343   1.378  0.00  0.00    -0.246 N 
ATOM     28  H   LIG    1        3.862   2.300   1.535  0.00  0.00    +0.265 HD
BRANCH  27  29
ATOM     29  C   LIG    1        5.054   0.673   1.252  0.00  0.00    +0.346 C 
ATOM     30  N   LIG    1        6.200   1.351   1.220  0.00  0.00    -0.292 N 
ATOM     31  H   LIG    1        7.042   0.877   1.131  0.00  0.00    +0.255 HD
ATOM     32  H   LIG    1        6.193   2.319   1.286  0.00  0.00    +0.255 HD
BRANCH  29  33
ATOM     33  N   LIG    1        5.064  -0.655   1.160  0.00  0.00    -0.292 N 
ATOM     34  H   LIG    1        5.907  -1.134   1.137  0.00  0.00    +0.255 HD
ATOM     35  H   LIG    1        4.227  -1.145   1.118  0.00  0.00    +0.255 HD
ENDBRANCH  29  33
ENDBRANCH  27  29
ENDBRANCH  23  27
ENDBRANCH  19  26
ENDBRANCH   1  19
TORSDOF 8
