REMARK  Name = ZINC26831593
REMARK                            x       y       z     vdW  Elec       q    Type
REMARK                         _______ _______ _______ _____ _____    ______ ____
ROOT
ATOM      1  C   LIG    1       -0.044   1.500   0.089  0.00  0.00    +0.068 C 
ATOM      2  C   LIG    1       -0.011  -0.006   0.038  0.00  0.00    +0.065 C 
ATOM      3  C   LIG    1       -1.164  -0.667  -0.046  0.00  0.00    +0.132 C 
ATOM      4  C   LIG    1       -1.113  -2.182  -0.097  0.00  0.00    +0.113 C 
ATOM      5  C   LIG    1        0.272  -2.803  -0.046  0.00  0.00    +0.066 C 
ATOM      6  C   LIG    1        1.363  -1.918   0.042  0.00  0.00    +0.049 C 
ATOM      7  C   LIG    1        2.763  -2.473   0.096  0.00  0.00    +0.066 C 
ATOM      8  C   LIG    1        0.450  -4.150  -0.085  0.00  0.00    +0.285 C 
ATOM      9  N   LIG    1        1.185  -0.625   0.074  0.00  0.00    -0.255 NA
ENDROOT
BRANCH   4  10
ATOM     10  C   LIG    1       -1.907  -2.719   1.066  0.00  0.00    -0.022 A 
ATOM     11  C   LIG    1       -1.545  -2.392   2.360  0.00  0.00    +0.005 A 
ATOM     12  C   LIG    1       -2.273  -2.885   3.426  0.00  0.00    +0.000 A 
ATOM     13  C   LIG    1       -3.364  -3.704   3.200  0.00  0.00    +0.001 A 
ATOM     14  C   LIG    1       -3.726  -4.029   1.906  0.00  0.00    +0.012 A 
ATOM     15  C   LIG    1       -3.000  -3.534   0.839  0.00  0.00    +0.059 A 
BRANCH  15  16
ATOM     16  C   LIG    1       -3.398  -3.885  -0.571  0.00  0.00    +0.418 C 
ATOM     17  F   LIG    1       -2.343  -4.552  -1.201  0.00  0.00    -0.166 F 
ATOM     18  F   LIG    1       -3.697  -2.714  -1.277  0.00  0.00    -0.166 F 
ATOM     19  F   LIG    1       -4.525  -4.713  -0.545  0.00  0.00    -0.166 F 
ENDBRANCH  15  16
ENDBRANCH   4  10
BRANCH   3  20
ATOM     20  N   LIG    1       -2.462   0.058  -0.087  0.00  0.00    +0.004 N 
ATOM     21  O   LIG    1       -2.481   1.266  -0.045  0.00  0.00    -0.130 OA
BRANCH  20  22
ATOM     22  O   LIG    1       -3.498  -0.560  -0.163  0.00  0.00    -0.396 OA
ATOM     23  H   LIG    1       -3.483  -1.497  -0.196  0.00  0.00    +0.329 HD
ENDBRANCH  20  22
ENDBRANCH   3  20
BRANCH   8  24
ATOM     24  O   LIG    1       -0.616  -4.974  -0.012  0.00  0.00    -0.467 OA
ATOM     25  C   LIG    1       -0.355  -6.379  -0.059  0.00  0.00    +0.280 C 
ENDBRANCH   8  24
BRANCH   8  26
ATOM     26  O   LIG    1        1.694  -4.664  -0.198  0.00  0.00    -0.480 OA
ATOM     27  H   LIG    1        2.434  -4.092  -0.249  0.00  0.00    +0.295 HD
ENDBRANCH   8  26
TORSDOF 6
