REMARK  Name = ZINC19838123
REMARK                            x       y       z     vdW  Elec       q    Type
REMARK                         _______ _______ _______ _____ _____    ______ ____
ROOT
ATOM      1  C   LIG    1        2.478   1.077  -0.010  0.00  0.00    +0.252 C 
ATOM      2  N   LIG    1        2.501  -0.270  -0.021  0.00  0.00    -0.280 N 
ATOM      3  H   LIG    1        1.563  -0.838   0.063  0.00  0.00    +0.155 HD
ATOM      4  O   LIG    1        3.520   1.704  -0.020  0.00  0.00    -0.270 OA
ENDROOT
BRANCH   2   5
ATOM      5  C   LIG    1        3.717  -0.946  -0.141  0.00  0.00    +0.060 A 
ATOM      6  C   LIG    1        4.857  -0.432   0.436  0.00  0.00    +0.025 A 
ATOM      7  C   LIG    1        6.075  -1.096   0.325  0.00  0.00    +0.003 A 
ATOM      8  C   LIG    1        6.173  -2.271  -0.357  0.00  0.00    +0.010 A 
ATOM      9  C   LIG    1        5.034  -2.828  -0.959  0.00  0.00    +0.002 A 
ATOM     10  C   LIG    1        5.101  -4.041  -1.671  0.00  0.00    +0.011 A 
ATOM     11  C   LIG    1        3.954  -4.524  -2.231  0.00  0.00    +0.020 A 
ATOM     12  C   LIG    1        2.760  -3.819  -2.089  0.00  0.00    +0.111 A 
ATOM     13  N   LIG    1        2.701  -2.690  -1.425  0.00  0.00    -0.253 NA
ATOM     14  C   LIG    1        3.786  -2.166  -0.850  0.00  0.00    +0.092 A 
ENDBRANCH   2   5
BRANCH   1  19
ATOM     15  C   LIG    1       -2.558   3.861   0.093  0.00  0.00    +0.044 C 
ATOM     16  C   LIG    1       -1.238   3.136   0.066  0.00  0.00    -0.047 A 
ATOM     17  C   LIG    1       -1.214   1.750   0.048  0.00  0.00    +0.004 A 
ATOM     18  C   LIG    1       -0.012   1.077   0.029  0.00  0.00    +0.017 A 
ATOM     19  C   LIG    1        1.188   1.792   0.016  0.00  0.00    +0.078 A 
ATOM     20  C   LIG    1        1.159   3.193   0.029  0.00  0.00    +0.129 A 
ATOM     21  C   LIG    1       -0.060   3.855   0.054  0.00  0.00    +0.049 A 
BRANCH  20  22
ATOM     22  O   LIG    1        2.317   3.899   0.018  0.00  0.00    -0.506 OA
ATOM     23  H   LIG    1        2.292   4.999   0.028  0.00  0.00    +0.292 HD
ENDBRANCH  20  22
ENDBRANCH   1  19
TORSDOF 3
