REMARK  Name = ZINC27888908
REMARK                            x       y       z     vdW  Elec       q    Type
REMARK                         _______ _______ _______ _____ _____    ______ ____
ROOT
ATOM      1  N   LIG    1       -1.245   2.195   1.274  0.00  0.00    -0.260 N 
ATOM      2  C   LIG    1       -0.370   3.014   1.890  0.00  0.00    +0.233 C 
ATOM      3  O   LIG    1       -0.644   3.492   2.970  0.00  0.00    -0.274 OA
ENDROOT
BRANCH   1   8
ATOM      4  C   LIG    1       -6.407   1.382   3.482  0.00  0.00    +0.044 C 
ATOM      5  C   LIG    1       -5.036   1.598   2.896  0.00  0.00    -0.050 A 
ATOM      6  C   LIG    1       -4.265   2.666   3.317  0.00  0.00    +0.005 A 
ATOM      7  C   LIG    1       -3.008   2.867   2.782  0.00  0.00    +0.024 A 
ATOM      8  C   LIG    1       -2.518   1.994   1.819  0.00  0.00    +0.037 A 
ATOM      9  C   LIG    1       -3.296   0.925   1.394  0.00  0.00    +0.024 A 
ATOM     10  C   LIG    1       -4.551   0.728   1.937  0.00  0.00    +0.005 A 
ENDBRANCH   1   8
BRANCH   2  11
ATOM     11  C   LIG    1        0.950   3.334   1.237  0.00  0.00    +0.126 C 
ATOM     12  C   LIG    1        0.724   3.648  -0.243  0.00  0.00    +0.028 C 
BRANCH  11  13
ATOM     13  S   LIG    1        2.063   1.910   1.390  0.00  0.00    -0.166 S 
ATOM     14  H   LIG    1        3.078   1.958   0.971  0.00  0.00    +0.102 HD
ENDBRANCH  11  13
ENDBRANCH   2  11
BRANCH   1  15
ATOM     15  C   LIG    1       -0.864   1.515   0.033  0.00  0.00    +0.234 C 
BRANCH  15  16
ATOM     16  C   LIG    1       -1.338   2.323  -1.148  0.00  0.00    +0.323 C 
ATOM     17  O   LIG    1       -1.933   3.359  -0.971  0.00  0.00    -0.249 OA
BRANCH  16  18
ATOM     18  O   LIG    1       -1.099   1.890  -2.396  0.00  0.00    -0.480 OA
ATOM     19  H   LIG    1       -0.637   1.086  -2.533  0.00  0.00    +0.295 HD
ENDBRANCH  16  18
ENDBRANCH  15  16
ENDBRANCH   1  15
TORSDOF 6
