REMARK  Name = ZINC22448889
REMARK                            x       y       z     vdW  Elec       q    Type
REMARK                         _______ _______ _______ _____ _____    ______ ____
ROOT
ATOM      1  C   LIG    1       -0.274   1.495  -0.125  0.00  0.00    +0.056 C 
ATOM      2  C   LIG    1        0.002  -0.004   0.002  0.00  0.00    +0.186 C 
ATOM      3  C   LIG    1       -1.304  -0.742   0.141  0.00  0.00    -0.004 A 
ATOM      4  C   LIG    1       -2.090  -0.923  -0.988  0.00  0.00    +0.012 A 
ATOM      5  C   LIG    1       -3.294  -1.589  -0.900  0.00  0.00    -0.022 A 
ATOM      6  C   LIG    1       -3.723  -2.082   0.324  0.00  0.00    +0.122 A 
ATOM      7  C   LIG    1       -2.937  -1.903   1.451  0.00  0.00    +0.050 A 
ATOM      8  C   LIG    1       -1.727  -1.235   1.358  0.00  0.00    -0.036 A 
ATOM      9  C   LIG    1       -0.893  -1.071   2.603  0.00  0.00    +0.063 C 
ATOM     10  C   LIG    1        0.156   0.020   2.383  0.00  0.00    +0.166 C 
ATOM     11  O   LIG    1        0.826  -0.238   1.144  0.00  0.00    -0.360 OA
ENDROOT
BRANCH   2  12
ATOM     12  C   LIG    1        0.726  -0.494  -1.254  0.00  0.00    +0.422 C 
ATOM     13  F   LIG    1       -0.006  -0.126  -2.388  0.00  0.00    -0.167 F 
ATOM     14  F   LIG    1        0.847  -1.887  -1.209  0.00  0.00    -0.167 F 
ATOM     15  F   LIG    1        1.999   0.083  -1.313  0.00  0.00    -0.167 F 
ENDBRANCH   2  12
BRANCH   6  16
ATOM     16  O   LIG    1       -4.910  -2.737   0.418  0.00  0.00    -0.495 OA
ATOM     17  C   LIG    1       -5.287  -3.216   1.710  0.00  0.00    +0.277 C 
ENDBRANCH   6  16
BRANCH   5  18
ATOM     18  C   LIG    1       -4.142  -1.782  -2.131  0.00  0.00    -0.043 C 
BRANCH  18  19
ATOM     19  N   LIG    1       -4.040  -3.176  -2.583  0.00  0.00    +0.385 N 
ATOM     20  H   LIG    1       -4.364  -3.791  -1.852  0.00  0.00    -0.085 HD
ATOM     21  H   LIG    1       -3.078  -3.389  -2.801  0.00  0.00    -0.085 HD
BRANCH  19  22
ATOM     22  C   LIG    1       -4.867  -3.363  -3.783  0.00  0.00    -0.050 C 
ATOM     23  C   LIG    1       -4.299  -2.524  -4.931  0.00  0.00    -0.013 C 
ATOM     24  C   LIG    1       -2.885  -3.012  -5.258  0.00  0.00    +0.014 C 
ATOM     25  C   LIG    1       -2.933  -4.499  -5.616  0.00  0.00    +0.081 C 
ATOM     26  N   LIG    1       -3.483  -5.258  -4.486  0.00  0.00    -0.311 NA
ATOM     27  H   LIG    1       -3.437  -6.251  -4.661  0.00  0.00    +0.122 HD
ATOM     28  C   LIG    1       -4.859  -4.840  -4.183  0.00  0.00    +0.070 C 
BRANCH  28  29
ATOM     29  C   LIG    1       -5.399  -5.671  -3.048  0.00  0.00    -0.032 A 
ATOM     30  C   LIG    1       -4.586  -5.987  -1.975  0.00  0.00    +0.005 A 
ATOM     31  C   LIG    1       -5.082  -6.749  -0.934  0.00  0.00    +0.000 A 
ATOM     32  C   LIG    1       -6.390  -7.195  -0.965  0.00  0.00    +0.000 A 
ATOM     33  C   LIG    1       -7.203  -6.878  -2.037  0.00  0.00    +0.000 A 
ATOM     34  C   LIG    1       -6.709  -6.112  -3.076  0.00  0.00    +0.005 A 
ENDBRANCH  28  29
ENDBRANCH  19  22
ENDBRANCH  18  19
ENDBRANCH   5  18
TORSDOF 6
