REMARK  Name = ZINC66079020
REMARK                            x       y       z     vdW  Elec       q    Type
REMARK                         _______ _______ _______ _____ _____    ______ ____
ROOT
ATOM      1  C   LIG    1       -0.018   1.503   0.010  0.00  0.00    +0.111 C 
ATOM      2  C   LIG    1        0.002  -0.004   0.002  0.00  0.00    +0.232 C 
ATOM      3  N   LIG    1        0.000  -0.672  -1.169  0.00  0.00    -0.185 N 
ATOM      4  C   LIG    1        0.013  -2.135  -1.319  0.00  0.00    +0.137 C 
ATOM      5  C   LIG    1        0.003  -2.343  -2.846  0.00  0.00    +0.090 C 
ATOM      6  C   LIG    1       -0.014  -0.939  -3.406  0.00  0.00    +0.104 C 
ATOM      7  N   LIG    1       -0.020  -0.088  -2.434  0.00  0.00    -0.178 NA
ATOM      8  O   LIG    1        0.020  -0.616   1.049  0.00  0.00    -0.274 OA
ENDROOT
BRANCH   4   9
ATOM      9  C   LIG    1        1.260  -2.720  -0.709  0.00  0.00    -0.022 A 
ATOM     10  C   LIG    1        2.479  -2.069  -0.824  0.00  0.00    +0.025 A 
ATOM     11  C   LIG    1        3.602  -2.636  -0.251  0.00  0.00    +0.111 A 
ATOM     12  N   LIG    1        3.523  -3.781   0.397  0.00  0.00    -0.263 NA
ATOM     13  C   LIG    1        2.381  -4.428   0.526  0.00  0.00    +0.111 A 
ATOM     14  C   LIG    1        1.216  -3.920  -0.015  0.00  0.00    +0.025 A 
ENDBRANCH   4   9
BRANCH   6  15
ATOM     15  C   LIG    1       -0.027  -0.595  -4.831  0.00  0.00    +0.150 A 
ATOM     16  C   LIG    1       -0.037   0.666  -5.352  0.00  0.00    +0.051 A 
ATOM     17  C   LIG    1       -0.048   0.526  -6.752  0.00  0.00    +0.042 A 
ATOM     18  C   LIG    1       -0.044  -0.796  -7.018  0.00  0.00    +0.196 A 
ATOM     19  O   LIG    1       -0.025  -1.470  -5.857  0.00  0.00    -0.462 OA
ENDBRANCH   6  15
TORSDOF 2
