REMARK  Name = ZINC13779538
REMARK                            x       y       z     vdW  Elec       q    Type
REMARK                         _______ _______ _______ _____ _____    ______ ____
ROOT
ATOM      1  C   LIG    1        0.229   1.087   2.446  0.00  0.00    -0.008 C 
ATOM      2  C   LIG    1        0.134  -0.440   2.431  0.00  0.00    +0.004 C 
ATOM      3  C   LIG    1        0.827  -1.006   3.672  0.00  0.00    +0.006 C 
ATOM      4  C   LIG    1        0.145  -0.464   4.930  0.00  0.00    -0.035 C 
ATOM      5  C   LIG    1        0.240   1.063   4.944  0.00  0.00    +0.006 C 
ATOM      6  C   LIG    1       -0.454   1.629   3.703  0.00  0.00    +0.004 C 
ENDROOT
BRANCH   1   8
ATOM      7  C   LIG    1        0.218   1.112  -0.053  0.00  0.00    +0.007 C 
ATOM      8  C   LIG    1       -0.464   1.653   1.205  0.00  0.00    -0.014 C 
ATOM      9  C   LIG    1       -0.369   3.180   1.219  0.00  0.00    +0.007 C 
ENDBRANCH   1   8
BRANCH   4  10
ATOM     10  C   LIG    1        0.838  -1.030   6.170  0.00  0.00    -0.079 C 
BRANCH  10  11
ATOM     11  N   LIG    1        0.605  -2.484   6.227  0.00  0.00    +0.378 N 
ATOM     12  H   LIG    1       -0.406  -2.664   6.219  0.00  0.00    -0.090 HD
ATOM     13  H   LIG    1        1.005  -2.869   7.081  0.00  0.00    -0.090 HD
ATOM     14  H   LIG    1        1.030  -2.937   5.420  0.00  0.00    -0.090 HD
ENDBRANCH  10  11
ENDBRANCH   4  10
BRANCH   4  15
ATOM     15  C   LIG    1       -1.327  -0.883   4.932  0.00  0.00    +0.125 C 
BRANCH  15  16
ATOM     16  C   LIG    1       -2.011  -0.308   6.146  0.00  0.00    +0.305 C 
ATOM     17  O   LIG    1       -1.365   0.272   6.985  0.00  0.00    -0.251 OA
BRANCH  16  18
ATOM     18  O   LIG    1       -3.338  -0.442   6.294  0.00  0.00    -0.481 OA
ATOM     19  H   LIG    1       -3.840  -0.892   5.643  0.00  0.00    +0.295 HD
ENDBRANCH  16  18
ENDBRANCH  15  16
ENDBRANCH   4  15
TORSDOF 6
