REMARK  Name = ZINC18061856
REMARK                            x       y       z     vdW  Elec       q    Type
REMARK                         _______ _______ _______ _____ _____    ______ ____
ROOT
ATOM      1  C   LIG    1       -0.013   1.086   0.008  0.00  0.00    +0.181 C 
ATOM      2  C   LIG    1       -0.752   1.594  -1.234  0.00  0.00    +0.214 C 
ATOM      3  C   LIG    1        0.045   1.208  -2.460  0.00  0.00    +0.195 C 
ATOM      4  C   LIG    1        1.516   1.561  -2.499  0.00  0.00    +0.214 C 
ATOM      5  C   LIG    1        2.173   1.054  -1.211  0.00  0.00    +0.181 C 
ATOM      6  O   LIG    1       -0.478   0.633  -3.384  0.00  0.00    -0.292 OA
ATOM      7  C   LIG    1        1.422   1.615  -0.003  0.00  0.00    +0.177 C 
ENDROOT
BRANCH   1   8
ATOM      8  O   LIG    1       -0.682   1.547   1.183  0.00  0.00    -0.386 OA
ATOM      9  H   LIG    1       -1.599   1.249   1.256  0.00  0.00    +0.210 HD
ENDBRANCH   1   8
BRANCH   2  10
ATOM     10  O   LIG    1       -0.881   3.015  -1.169  0.00  0.00    -0.382 OA
ATOM     11  H   LIG    1       -1.340   3.404  -1.925  0.00  0.00    +0.210 HD
ENDBRANCH   2  10
BRANCH   4  12
ATOM     12  O   LIG    1        1.667   2.979  -2.594  0.00  0.00    -0.382 OA
ATOM     13  H   LIG    1        1.260   3.366  -3.382  0.00  0.00    +0.210 HD
ENDBRANCH   4  12
BRANCH   5  14
ATOM     14  O   LIG    1        2.125  -0.374  -1.182  0.00  0.00    -0.386 OA
ATOM     15  H   LIG    1        2.581  -0.798  -1.921  0.00  0.00    +0.210 HD
ENDBRANCH   5  14
BRANCH   7  16
ATOM     16  O   LIG    1        2.086   1.214   1.197  0.00  0.00    -0.386 OA
ATOM     17  H   LIG    1        3.003   1.515   1.259  0.00  0.00    +0.210 HD
ENDBRANCH   7  16
TORSDOF 5
