REMARK  Name = ZINC00005099
REMARK                            x       y       z     vdW  Elec       q    Type
REMARK                         _______ _______ _______ _____ _____    ______ ____
ROOT
ATOM      1  C   LIG    1       -0.018   1.503   0.010  0.00  0.00    +0.066 C 
ATOM      2  C   LIG    1        0.002  -0.004   0.002  0.00  0.00    +0.051 A 
ATOM      3  C   LIG    1        0.006  -0.705  -1.157  0.00  0.00    +0.012 A 
ATOM      4  S   LIG    1        0.032  -2.378  -0.535  0.00  0.00    -0.057 S 
ATOM      5  C   LIG    1        0.036  -2.016   1.109  0.00  0.00    +0.156 A 
ATOM      6  N   LIG    1        0.023  -0.700   1.125  0.00  0.00    -0.230 NA
ENDROOT
BRANCH   5   7
ATOM      7  N   LIG    1        0.053  -2.891   2.183  0.00  0.00    -0.338 N 
ATOM      8  H   LIG    1        0.053  -2.546   3.090  0.00  0.00    +0.144 HD
ATOM      9  H   LIG    1        0.066  -3.848   2.029  0.00  0.00    +0.144 HD
ENDBRANCH   5   7
BRANCH   3  10
ATOM     10  C   LIG    1       -0.009  -0.209  -2.580  0.00  0.00    +0.025 C 
BRANCH  10  11
ATOM     11  C   LIG    1        1.429  -0.021  -3.069  0.00  0.00    -0.081 C 
BRANCH  11  12
ATOM     12  N   LIG    1        1.414   0.463  -4.456  0.00  0.00    +0.378 N 
ATOM     13  H   LIG    1        2.362   0.587  -4.779  0.00  0.00    -0.090 HD
ATOM     14  H   LIG    1        0.926   1.345  -4.500  0.00  0.00    -0.090 HD
ATOM     15  H   LIG    1        0.945  -0.211  -5.043  0.00  0.00    -0.090 HD
ENDBRANCH  11  12
ENDBRANCH  10  11
ENDBRANCH   3  10
TORSDOF 4
