REMARK  Name = ZINC18137707
REMARK                            x       y       z     vdW  Elec       q    Type
REMARK                         _______ _______ _______ _____ _____    ______ ____
ROOT
ATOM      1  N   LIG    1       -1.377  -0.638  -0.154  0.00  0.00    -0.312 N 
ATOM      2  C   LIG    1       -2.210  -0.243   0.989  0.00  0.00    +0.125 C 
ATOM      3  C   LIG    1       -3.550  -0.983   0.921  0.00  0.00    +0.126 C 
ATOM      4  N   LIG    1       -3.282  -2.426   0.815  0.00  0.00    -0.298 N 
ATOM      5  C   LIG    1       -3.878  -3.303   1.648  0.00  0.00    +0.222 C 
ATOM      6  O   LIG    1       -3.720  -4.494   1.487  0.00  0.00    -0.275 OA
ATOM      7  C   LIG    1       -2.347  -2.885  -0.223  0.00  0.00    +0.126 C 
ATOM      8  C   LIG    1       -1.055  -2.070  -0.109  0.00  0.00    +0.125 C 
ENDROOT
BRANCH   5   9
ATOM      9  C   LIG    1       -4.739  -2.802   2.779  0.00  0.00    +0.048 C 
ATOM     10  C   LIG    1       -3.906  -1.902   3.694  0.00  0.00    +0.019 C 
ATOM     11  C   LIG    1       -4.781  -1.394   4.842  0.00  0.00    -0.009 C 
ATOM     12  C   LIG    1       -5.313  -2.584   5.643  0.00  0.00    +0.007 C 
ATOM     13  C   LIG    1       -6.145  -3.484   4.728  0.00  0.00    -0.009 C 
ATOM     14  C   LIG    1       -7.320  -2.686   4.160  0.00  0.00    +0.007 C 
ATOM     15  C   LIG    1       -6.788  -1.496   3.358  0.00  0.00    -0.009 C 
ATOM     16  C   LIG    1       -5.956  -0.596   4.274  0.00  0.00    +0.007 C 
ATOM     17  C   LIG    1       -5.914  -2.004   2.210  0.00  0.00    +0.019 C 
ATOM     18  C   LIG    1       -5.271  -3.992   3.580  0.00  0.00    +0.019 C 
ENDBRANCH   5   9
BRANCH   1  23
ATOM     19  C   LIG    1        0.840   2.272  -0.331  0.00  0.00    +0.005 A 
ATOM     20  C   LIG    1        2.061   1.610  -0.340  0.00  0.00    +0.020 A 
ATOM     21  C   LIG    1        2.083   0.231  -0.289  0.00  0.00    +0.113 A 
ATOM     22  N   LIG    1        0.962  -0.463  -0.230  0.00  0.00    -0.240 NA
ATOM     23  C   LIG    1       -0.221   0.131  -0.218  0.00  0.00    +0.121 A 
ATOM     24  C   LIG    1       -0.318   1.518  -0.268  0.00  0.00    +0.043 A 
ENDBRANCH   1  23
TORSDOF 2
