REMARK  Name = ZINC55662777
REMARK                            x       y       z     vdW  Elec       q    Type
REMARK                         _______ _______ _______ _____ _____    ______ ____
ROOT
ATOM      1  N   LIG    1       -0.203  -6.341   3.416  0.00  0.00    -0.291 NA
ATOM      2  C   LIG    1       -1.455  -6.669   2.722  0.00  0.00    +0.104 C 
ATOM      3  C   LIG    1       -1.424  -8.138   2.286  0.00  0.00    +0.120 C 
ATOM      4  N   LIG    1       -1.129  -8.968   3.464  0.00  0.00    -0.327 N 
ATOM      5  C   LIG    1        0.035  -8.616   4.290  0.00  0.00    +0.120 C 
ATOM      6  C   LIG    1       -0.054  -7.128   4.647  0.00  0.00    +0.104 C 
ENDROOT
BRANCH   4   7
ATOM      7  C   LIG    1       -1.935 -10.062   3.789  0.00  0.00    +0.033 A 
ATOM      8  C   LIG    1       -2.958 -10.452   2.933  0.00  0.00    +0.023 A 
ATOM      9  C   LIG    1       -3.753 -11.534   3.254  0.00  0.00    +0.005 A 
ATOM     10  C   LIG    1       -3.535 -12.232   4.427  0.00  0.00    +0.046 A 
ATOM     11  C   LIG    1       -2.514 -11.848   5.285  0.00  0.00    +0.122 A 
ATOM     12  C   LIG    1       -1.710 -10.765   4.964  0.00  0.00    +0.068 A 
BRANCH  11  13
ATOM     13  O   LIG    1       -2.301 -12.535   6.438  0.00  0.00    -0.495 OA
ATOM     14  C   LIG    1       -3.164 -13.643   6.703  0.00  0.00    +0.277 C 
ENDBRANCH  11  13
ENDBRANCH   4   7
BRANCH   1  15
ATOM     15  C   LIG    1       -0.119  -4.901   3.698  0.00  0.00    +0.180 C 
BRANCH  15  18
ATOM     16  N   LIG    1        0.057  -2.795   2.414  0.00  0.00    -0.284 N 
ATOM     17  H   LIG    1        0.126  -2.321   3.258  0.00  0.00    +0.155 HD
ATOM     18  C   LIG    1       -0.029  -4.140   2.401  0.00  0.00    +0.231 C 
ATOM     19  O   LIG    1       -0.034  -4.737   1.345  0.00  0.00    -0.274 OA
BRANCH  16  25
ATOM     20  C   LIG    1       -1.250   1.210  -0.121  0.00  0.00    +0.044 C 
ATOM     21  C   LIG    1       -0.580  -0.138  -0.047  0.00  0.00    -0.049 A 
ATOM     22  C   LIG    1        0.025  -0.671  -1.170  0.00  0.00    +0.003 A 
ATOM     23  C   LIG    1        0.642  -1.907  -1.106  0.00  0.00    +0.002 A 
ATOM     24  C   LIG    1        0.654  -2.614   0.081  0.00  0.00    +0.023 A 
ATOM     25  C   LIG    1        0.047  -2.081   1.210  0.00  0.00    +0.034 A 
ATOM     26  C   LIG    1       -0.567  -0.837   1.144  0.00  0.00    +0.026 A 
ENDBRANCH  16  25
ENDBRANCH  15  18
ENDBRANCH   1  15
TORSDOF 5
