REMARK  Name = ZINC29489673
REMARK                            x       y       z     vdW  Elec       q    Type
REMARK                         _______ _______ _______ _____ _____    ______ ____
ROOT
ATOM      1  C   LIG    1       -0.997  -2.253  -0.001  0.00  0.00    -0.035 A 
ATOM      2  C   LIG    1       -0.879  -2.925  -1.203  0.00  0.00    +0.004 A 
ATOM      3  C   LIG    1       -0.602  -4.279  -1.217  0.00  0.00    +0.004 A 
ATOM      4  C   LIG    1       -0.455  -4.967  -0.027  0.00  0.00    +0.045 A 
ATOM      5  C   LIG    1       -0.579  -4.297   1.180  0.00  0.00    +0.121 A 
ATOM      6  C   LIG    1       -0.851  -2.936   1.191  0.00  0.00    +0.049 A 
ENDROOT
BRANCH   1   7
ATOM      7  C   LIG    1       -1.293  -0.775   0.010  0.00  0.00    +0.133 C 
BRANCH   7  10
ATOM      8  C   LIG    1        1.242   2.093   0.001  0.00  0.00    +0.166 C 
ATOM      9  N   LIG    1       -0.016   1.344   0.009  0.00  0.00    -0.187 N 
ATOM     10  C   LIG    1        0.002  -0.004   0.002  0.00  0.00    +0.242 C 
ATOM     11  O   LIG    1        1.060  -0.596  -0.011  0.00  0.00    -0.273 OA
BRANCH   9  12
ATOM     12  O   LIG    1       -1.252   2.035   0.019  0.00  0.00    -0.293 OA
ATOM     13  H   LIG    1       -2.197   1.472   0.025  0.00  0.00    +0.242 HD
ENDBRANCH   9  12
ENDBRANCH   7  10
ENDBRANCH   1   7
BRANCH   5  14
ATOM     14  O   LIG    1       -0.434  -4.971   2.351  0.00  0.00    -0.486 OA
BRANCH  14  15
ATOM     15  C   LIG    1       -0.155  -6.370   2.264  0.00  0.00    +0.284 C 
BRANCH  15  16
ATOM     16  C   LIG    1       -0.029  -6.944   3.652  0.00  0.00    +0.079 A 
ATOM     17  C   LIG    1       -0.183  -6.102   4.751  0.00  0.00    +0.027 A 
ATOM     18  C   LIG    1       -0.077  -6.606   6.016  0.00  0.00    +0.012 A 
ATOM     19  C   LIG    1        0.199  -7.979   6.163  0.00  0.00    +0.000 A 
ATOM     20  C   LIG    1        0.328  -8.567   7.432  0.00  0.00    +0.010 A 
ATOM     21  C   LIG    1        0.595  -9.898   7.532  0.00  0.00    +0.001 A 
ATOM     22  C   LIG    1        0.743 -10.685   6.392  0.00  0.00    +0.002 A 
ATOM     23  C   LIG    1        0.625 -10.148   5.147  0.00  0.00    +0.028 A 
ATOM     24  C   LIG    1        0.349  -8.777   5.003  0.00  0.00    +0.071 A 
ATOM     25  N   LIG    1        0.228  -8.222   3.793  0.00  0.00    -0.248 NA
ENDBRANCH  15  16
ENDBRANCH  14  15
ENDBRANCH   5  14
TORSDOF 6
