REMARK  Name = ZINC29464408
REMARK                            x       y       z     vdW  Elec       q    Type
REMARK                         _______ _______ _______ _____ _____    ______ ____
ROOT
ATOM      1  N   LIG    1       -0.266   1.178  -0.052  0.00  0.00    -0.311 N 
ATOM      2  C   LIG    1        1.082   1.378  -0.036  0.00  0.00    +0.202 A 
ATOM      3  N   LIG    1        1.702   0.235  -0.100  0.00  0.00    -0.231 NA
ATOM      4  C   LIG    1        0.793  -0.768  -0.161  0.00  0.00    +0.147 A 
ATOM      5  C   LIG    1        0.871  -2.168  -0.241  0.00  0.00    +0.147 A 
ATOM      6  N   LIG    1       -0.261  -2.864  -0.286  0.00  0.00    -0.219 NA
ATOM      7  C   LIG    1       -1.435  -2.262  -0.255  0.00  0.00    +0.225 A 
ATOM      8  N   LIG    1       -1.557  -0.953  -0.179  0.00  0.00    -0.216 NA
ATOM      9  C   LIG    1       -0.480  -0.175  -0.131  0.00  0.00    +0.166 A 
ENDROOT
BRANCH   5  10
ATOM     10  N   LIG    1        2.097  -2.809  -0.275  0.00  0.00    -0.341 N 
ATOM     11  H   LIG    1        3.026  -2.220  -0.238  0.00  0.00    +0.144 HD
ATOM     12  H   LIG    1        2.143  -3.906  -0.338  0.00  0.00    +0.144 HD
ENDBRANCH   5  10
BRANCH   1  13
ATOM     13  C   LIG    1       -1.297   2.218  -0.002  0.00  0.00    +0.152 C 
BRANCH  13  16
ATOM     14  C   LIG    1       -2.035   3.772   3.428  0.00  0.00    +0.041 C 
ATOM     15  C   LIG    1       -1.747   3.603   1.958  0.00  0.00    -0.050 C 
ATOM     16  C   LIG    1       -1.750   2.407   1.423  0.00  0.00    -0.004 C 
BRANCH  15  17
ATOM     17  C   LIG    1       -1.455   4.809   1.104  0.00  0.00    +0.186 C 
BRANCH  17  18
ATOM     18  O   LIG    1       -2.506   5.766   1.256  0.00  0.00    -0.391 OA
ATOM     19  H   LIG    1       -2.468   6.718   0.706  0.00  0.00    +0.210 HD
ENDBRANCH  17  18
ENDBRANCH  15  17
ENDBRANCH  13  16
ENDBRANCH   1  13
TORSDOF 5
