REMARK  Name = ZINC26640862
REMARK                            x       y       z     vdW  Elec       q    Type
REMARK                         _______ _______ _______ _____ _____    ______ ____
ROOT
ATOM      1  S   LIG    1        4.124   0.505   3.670  0.00  0.00    +0.059 S 
ATOM      2  O   LIG    1        2.799   0.034   3.874  0.00  0.00    -0.153 OA
ATOM      3  O   LIG    1        4.524   1.825   4.013  0.00  0.00    -0.153 OA
ENDROOT
BRANCH   1   4
ATOM      4  C   LIG    1        5.189  -0.589   4.550  0.00  0.00    +0.105 A 
ATOM      5  C   LIG    1        4.777  -1.881   4.822  0.00  0.00    +0.029 A 
ATOM      6  C   LIG    1        5.607  -2.741   5.511  0.00  0.00    +0.010 A 
ATOM      7  C   LIG    1        6.862  -2.307   5.933  0.00  0.00    -0.018 A 
ATOM      8  C   LIG    1        7.272  -1.004   5.655  0.00  0.00    +0.010 A 
ATOM      9  C   LIG    1        6.436  -0.154   4.960  0.00  0.00    +0.029 A 
BRANCH   7  10
ATOM     10  C   LIG    1        7.759  -3.228   6.674  0.00  0.00    -0.018 A 
ATOM     11  C   LIG    1        7.351  -4.532   6.947  0.00  0.00    +0.010 A 
ATOM     12  C   LIG    1        8.188  -5.385   7.637  0.00  0.00    +0.020 A 
ATOM     13  C   LIG    1        9.432  -4.946   8.058  0.00  0.00    +0.041 A 
ATOM     14 CL   LIG    1       10.480  -6.023   8.926  0.00  0.00    -0.084 Cl
ATOM     15  C   LIG    1        9.842  -3.651   7.790  0.00  0.00    +0.020 A 
ATOM     16  C   LIG    1        9.014  -2.793   7.096  0.00  0.00    +0.010 A 
ENDBRANCH   7  10
ENDBRANCH   1   4
BRANCH   1  17
ATOM     17  N   LIG    1        4.451   0.315   2.057  0.00  0.00    -0.176 NA
ATOM     18  H   LIG    1        4.828   1.050   1.549  0.00  0.00    +0.149 HD
BRANCH  17  19
ATOM     19  C   LIG    1        4.171  -0.963   1.399  0.00  0.00    +0.189 C 
BRANCH  19  20
ATOM     20  C   LIG    1        5.422  -1.804   1.383  0.00  0.00    +0.324 C 
ATOM     21  O   LIG    1        6.516  -1.269   1.345  0.00  0.00    -0.249 OA
BRANCH  20  22
ATOM     22  O   LIG    1        5.338  -3.021   1.410  0.00  0.00    -0.479 OA
ATOM     23  H   LIG    1        4.497  -3.432   1.439  0.00  0.00    +0.295 HD
ENDBRANCH  20  22
ENDBRANCH  19  20
BRANCH  19  24
ATOM     24  C   LIG    1        3.711  -0.707  -0.038  0.00  0.00    +0.067 C 
BRANCH  24  28
ATOM     25  C   LIG    1       -0.017   1.378   0.010  0.00  0.00    +0.000 A 
ATOM     26  C   LIG    1        1.171   2.086   0.002  0.00  0.00    +0.000 A 
ATOM     27  C   LIG    1        2.377   1.411  -0.013  0.00  0.00    +0.004 A 
ATOM     28  C   LIG    1        2.396   0.029  -0.020  0.00  0.00    -0.045 A 
ATOM     29  C   LIG    1        1.208  -0.679  -0.012  0.00  0.00    +0.004 A 
ATOM     30  C   LIG    1        0.002  -0.004   0.002  0.00  0.00    +0.000 A 
ENDBRANCH  24  28
ENDBRANCH  19  24
ENDBRANCH  17  19
ENDBRANCH   1  17
TORSDOF 8
