REMARK  Name = ZINC18183490
REMARK                            x       y       z     vdW  Elec       q    Type
REMARK                         _______ _______ _______ _____ _____    ______ ____
ROOT
ATOM      1  C   LIG    1       -0.017   1.380   0.010  0.00  0.00    +0.001 A 
ATOM      2  C   LIG    1        1.149   2.126   0.003  0.00  0.00    +0.002 A 
ATOM      3  C   LIG    1        2.402   1.536  -0.020  0.00  0.00    +0.026 A 
ATOM      4  C   LIG    1        2.450   0.143  -0.032  0.00  0.00    +0.052 A 
ATOM      5  C   LIG    1        1.256  -0.618  -0.013  0.00  0.00    +0.008 A 
ATOM      6  C   LIG    1        1.651  -2.024   0.009  0.00  0.00    +0.023 A 
ATOM      7  C   LIG    1        0.972  -3.250   0.043  0.00  0.00    +0.062 A 
ATOM      8  C   LIG    1        1.692  -4.457   0.125  0.00  0.00    +0.062 A 
ATOM      9  C   LIG    1        0.681  -5.530   0.143  0.00  0.00    +0.260 A 
ATOM     10  N   LIG    1       -0.540  -4.970   0.078  0.00  0.00    -0.289 N 
ATOM     11  H   LIG    1       -1.373  -5.467   0.075  0.00  0.00    +0.172 HD
ATOM     12  O   LIG    1        0.912  -6.721   0.207  0.00  0.00    -0.267 OA
ATOM     13  C   LIG    1        3.093  -4.442   0.172  0.00  0.00    +0.023 A 
ATOM     14  C   LIG    1        4.138  -5.447   0.349  0.00  0.00    +0.008 A 
ATOM     15  C   LIG    1        4.077  -6.831   0.525  0.00  0.00    +0.010 A 
ATOM     16  C   LIG    1        5.282  -7.497   0.673  0.00  0.00    +0.001 A 
ATOM     17  C   LIG    1        6.493  -6.827   0.648  0.00  0.00    +0.002 A 
ATOM     18  C   LIG    1        6.575  -5.456   0.472  0.00  0.00    +0.026 A 
ATOM     19  C   LIG    1        5.376  -4.762   0.315  0.00  0.00    +0.052 A 
ATOM     20  N   LIG    1        5.137  -3.427   0.101  0.00  0.00    -0.312 N 
ATOM     21  C   LIG    1        6.133  -2.372  -0.112  0.00  0.00    +0.222 C 
ATOM     22  O   LIG    1        5.610  -1.363  -1.007  0.00  0.00    -0.333 OA
ATOM     23  C   LIG    1        4.933  -0.359  -0.249  0.00  0.00    +0.222 C 
ATOM     24  C   LIG    1        5.612  -0.330   1.135  0.00  0.00    +0.059 C 
ATOM     25  C   LIG    1        6.399  -1.653   1.225  0.00  0.00    +0.059 C 
ATOM     26  C   LIG    1        3.768  -3.218   0.061  0.00  0.00    +0.077 A 
ATOM     27  C   LIG    1       -0.452  -3.630   0.016  0.00  0.00    +0.260 A 
ATOM     28  O   LIG    1       -1.389  -2.860  -0.050  0.00  0.00    -0.267 OA
ATOM     29  C   LIG    1        3.053  -2.019  -0.012  0.00  0.00    +0.077 A 
ATOM     30  N   LIG    1        3.520  -0.716  -0.080  0.00  0.00    -0.312 N 
ATOM     31  C   LIG    1        0.002  -0.004   0.002  0.00  0.00    +0.010 A 
ENDROOT
TORSDOF 0
