REMARK  Name = ZINC20149036
REMARK                            x       y       z     vdW  Elec       q    Type
REMARK                         _______ _______ _______ _____ _____    ______ ____
ROOT
ATOM      1  C   LIG    1        2.403  -4.510  -0.049  0.00  0.00    +0.113 A 
ATOM      2  C   LIG    1        2.277  -5.193   1.147  0.00  0.00    +0.031 A 
ATOM      3  C   LIG    1        2.012  -6.548   1.145  0.00  0.00    +0.025 A 
ATOM      4  C   LIG    1        1.871  -7.225  -0.060  0.00  0.00    +0.031 A 
ATOM      5  C   LIG    1        1.998  -6.535  -1.259  0.00  0.00    +0.025 A 
ATOM      6  C   LIG    1        2.258  -5.179  -1.250  0.00  0.00    +0.031 A 
ENDROOT
BRANCH   1   7
ATOM      7  S   LIG    1        2.743  -2.780  -0.042  0.00  0.00    +0.101 S 
ATOM      8  O   LIG    1        3.374  -2.495   1.199  0.00  0.00    -0.146 OA
ATOM      9  O   LIG    1        3.348  -2.481  -1.292  0.00  0.00    -0.146 OA
BRANCH   7  16
ATOM     10  C   LIG    1       -0.016   1.354   0.009  0.00  0.00    +0.005 A 
ATOM     11  C   LIG    1        1.195   2.067   0.002  0.00  0.00    +0.018 A 
ATOM     12  C   LIG    1        2.374   1.409  -0.013  0.00  0.00    +0.084 A 
ATOM     13  N   LIG    1        2.412   0.047  -0.022  0.00  0.00    -0.345 N 
ATOM     14  H   LIG    1        3.266  -0.412  -0.033  0.00  0.00    +0.167 HD
ATOM     15  C   LIG    1        1.246  -0.679  -0.014  0.00  0.00    +0.153 A 
ATOM     16  N   LIG    1        1.285  -1.996  -0.022  0.00  0.00    -0.111 NA
ATOM     17  C   LIG    1        0.002  -0.004   0.002  0.00  0.00    +0.048 A 
ENDBRANCH   7  16
ENDBRANCH   1   7
BRANCH   4  18
ATOM     18  N   LIG    1        1.603  -8.596  -0.065  0.00  0.00    -0.320 N 
ATOM     19  H   LIG    1        1.515  -9.077   0.773  0.00  0.00    +0.152 HD
BRANCH  18  20
ATOM     20  C   LIG    1        1.465  -9.258  -1.247  0.00  0.00    +0.085 C 
ATOM     21  C   LIG    1        1.203 -10.598  -1.253  0.00  0.00    +0.061 C 
ATOM     22  C   LIG    1        1.029 -11.477  -2.433  0.00  0.00    +0.025 A 
ATOM     23  C   LIG    1        0.780 -12.761  -1.932  0.00  0.00    +0.043 A 
ATOM     24  N   LIG    1        0.791 -12.720  -0.543  0.00  0.00    -0.281 N 
ATOM     25  H   LIG    1        0.642 -13.490   0.028  0.00  0.00    +0.155 HD
ATOM     26  C   LIG    1        0.574 -13.806  -2.833  0.00  0.00    +0.026 A 
ATOM     27  C   LIG    1        0.610 -13.607  -4.178  0.00  0.00    +0.031 A 
ATOM     28  C   LIG    1        0.859 -12.326  -4.720  0.00  0.00    +0.079 A 
ATOM     29  N   LIG    1        0.932 -11.933  -6.009  0.00  0.00    -0.247 NA
ATOM     30  C   LIG    1        1.170 -10.699  -6.345  0.00  0.00    +0.157 A 
ATOM     31  S   LIG    1        1.332  -9.891  -4.877  0.00  0.00    -0.075 S 
ATOM     32  C   LIG    1        1.065 -11.275  -3.801  0.00  0.00    +0.049 A 
ATOM     33  C   LIG    1        1.040 -11.479  -0.091  0.00  0.00    +0.250 C 
ATOM     34  O   LIG    1        1.114 -11.144   1.078  0.00  0.00    -0.270 OA
ENDBRANCH  18  20
ENDBRANCH   4  18
TORSDOF 4
