REMARK  Name = ZINC13802060
REMARK                            x       y       z     vdW  Elec       q    Type
REMARK                         _______ _______ _______ _____ _____    ______ ____
ROOT
ATOM      1  C   LIG    1        0.630   3.575   3.707  0.00  0.00    -0.077 C 
ENDROOT
BRANCH   1   2
ATOM      2  N   LIG    1        1.245   3.090   2.454  0.00  0.00    +0.380 N 
ATOM      3  H   LIG    1        2.179   3.506   2.358  0.00  0.00    -0.082 HD
ATOM      4  C   LIG    1        1.377   1.618   2.493  0.00  0.00    -0.076 C 
ATOM      5  C   LIG    1        2.122   1.153   1.240  0.00  0.00    +0.021 C 
ATOM      6  C   LIG    1        1.328   1.567  -0.003  0.00  0.00    +0.088 C 
ATOM      7  C   LIG    1        1.135   3.086   0.008  0.00  0.00    +0.021 C 
ATOM      8  C   LIG    1        0.418   3.495   1.297  0.00  0.00    -0.076 C 
BRANCH   6   9
ATOM      9  C   LIG    1        2.085   1.164  -1.242  0.00  0.00    -0.016 A 
ATOM     10  C   LIG    1        2.988   2.040  -1.815  0.00  0.00    +0.008 A 
ATOM     11  C   LIG    1        3.686   1.669  -2.949  0.00  0.00    +0.020 A 
ATOM     12  C   LIG    1        3.473   0.425  -3.517  0.00  0.00    +0.041 A 
ATOM     13 CL   LIG    1        4.345  -0.039  -4.944  0.00  0.00    -0.084 Cl
ATOM     14  C   LIG    1        2.564  -0.449  -2.946  0.00  0.00    +0.020 A 
ATOM     15  C   LIG    1        1.871  -0.079  -1.809  0.00  0.00    +0.008 A 
ENDBRANCH   6   9
BRANCH   6  16
ATOM     16  O   LIG    1        0.053   0.922   0.009  0.00  0.00    -0.384 OA
ATOM     17  H   LIG    1        0.100  -0.043   0.003  0.00  0.00    +0.211 HD
ENDBRANCH   6  16
ENDBRANCH   1   2
BRANCH   1  18
ATOM     18  C   LIG    1        1.336   2.921   4.897  0.00  0.00    +0.013 C 
BRANCH  18  19
ATOM     19  C   LIG    1        0.826   3.545   6.198  0.00  0.00    +0.105 C 
BRANCH  19  23
ATOM     20  C   LIG    1        2.982   1.908   9.502  0.00  0.00    +0.000 A 
ATOM     21  C   LIG    1        1.932   2.779   9.725  0.00  0.00    +0.000 A 
ATOM     22  C   LIG    1        1.234   3.309   8.656  0.00  0.00    +0.005 A 
ATOM     23  C   LIG    1        1.587   2.967   7.364  0.00  0.00    -0.023 A 
ATOM     24  C   LIG    1        2.633   2.092   7.141  0.00  0.00    +0.005 A 
ATOM     25  C   LIG    1        3.334   1.566   8.210  0.00  0.00    +0.000 A 
ENDBRANCH  19  23
BRANCH  19  26
ATOM     26  C   LIG    1        1.032   5.037   6.154  0.00  0.00    -0.023 A 
ATOM     27  C   LIG    1       -0.060   5.885   6.144  0.00  0.00    +0.005 A 
ATOM     28  C   LIG    1        0.128   7.254   6.108  0.00  0.00    +0.000 A 
ATOM     29  C   LIG    1        1.408   7.775   6.072  0.00  0.00    +0.000 A 
ATOM     30  C   LIG    1        2.500   6.927   6.076  0.00  0.00    +0.000 A 
ATOM     31  C   LIG    1        2.312   5.558   6.117  0.00  0.00    +0.005 A 
ENDBRANCH  19  26
BRANCH  19  32
ATOM     32  C   LIG    1       -0.608   3.251   6.354  0.00  0.00    +0.079 C 
ATOM     33  N   LIG    1       -1.714   3.025   6.474  0.00  0.00    -0.195 NA
ENDBRANCH  19  32
ENDBRANCH  18  19
ENDBRANCH   1  18
TORSDOF 8
