REMARK  Name = ZINC14946463
REMARK                            x       y       z     vdW  Elec       q    Type
REMARK                         _______ _______ _______ _____ _____    ______ ____
ROOT
ATOM      1  C   LIG    1       -1.347   2.929   1.068  0.00  0.00    +0.119 C 
ATOM      2  C   LIG    1       -0.812   3.786   0.102  0.00  0.00    +0.032 C 
ATOM      3  C   LIG    1       -0.729   5.125   0.329  0.00  0.00    +0.009 C 
ATOM      4  C   LIG    1       -1.173   5.654   1.549  0.00  0.00    +0.023 C 
ATOM      5  C   LIG    1       -1.713   4.796   2.537  0.00  0.00    +0.061 C 
ATOM      6  N   LIG    1       -2.170   5.251   3.754  0.00  0.00    -0.310 NA
ATOM      7  H   LIG    1       -2.558   4.614   4.460  0.00  0.00    +0.122 HD
ATOM      8  C   LIG    1       -2.079   6.596   3.970  0.00  0.00    +0.061 C 
ATOM      9  C   LIG    1       -1.559   7.495   3.056  0.00  0.00    +0.051 C 
ATOM     10  C   LIG    1       -1.457   8.972   3.333  0.00  0.00    +0.121 C 
ATOM     11  C   LIG    1       -2.370   9.366   4.492  0.00  0.00    +0.032 C 
ATOM     12  C   LIG    1       -2.089   8.425   5.669  0.00  0.00    +0.004 C 
ATOM     13  C   LIG    1       -2.611   7.035   5.312  0.00  0.00    +0.019 C 
ATOM     14  C   LIG    1       -1.098   7.037   1.825  0.00  0.00    +0.062 C 
ATOM     15  C   LIG    1       -1.792   3.418   2.275  0.00  0.00    +0.050 C 
ENDROOT
BRANCH  14  16
ATOM     16  N   LIG    1       -0.576   7.919   0.891  0.00  0.00    -0.327 NA
ATOM     17  H   LIG    1       -0.459   7.637  -0.030  0.00  0.00    +0.118 HD
ATOM     18  H   LIG    1       -0.327   8.818   1.159  0.00  0.00    +0.118 HD
ENDBRANCH  14  16
BRANCH   1  20
ATOM     19  C   LIG    1       -0.947   1.149  -0.455  0.00  0.00    +0.194 C 
ATOM     20  O   LIG    1       -1.424   1.596   0.815  0.00  0.00    -0.380 OA
ENDBRANCH   1  20
BRANCH  10  21
ATOM     21  O   LIG    1       -1.840   9.697   2.163  0.00  0.00    -0.391 OA
ATOM     22  H   LIG    1       -1.799  10.658   2.265  0.00  0.00    +0.210 HD
ENDBRANCH  10  21
TORSDOF 3
