REMARK  Name = ZINC13823786
REMARK                            x       y       z     vdW  Elec       q    Type
REMARK                         _______ _______ _______ _____ _____    ______ ____
ROOT
ATOM      1  C   LIG    1        2.452   3.936   0.000  0.00  0.00    +0.013 C 
ENDROOT
BRANCH   1   7
ATOM      2  C   LIG    1       -0.013   1.076   0.008  0.00  0.00    +0.000 A 
ATOM      3  C   LIG    1       -1.219   1.750   0.017  0.00  0.00    +0.001 A 
ATOM      4  C   LIG    1       -1.239   3.132   0.031  0.00  0.00    +0.020 A 
ATOM      5  C   LIG    1       -0.050   3.841   0.023  0.00  0.00    +0.044 A 
ATOM      6 CL   LIG    1       -0.074   5.576   0.032  0.00  0.00    -0.083 Cl
ATOM      7  C   LIG    1        1.157   3.165   0.008  0.00  0.00    -0.027 A 
ATOM      8  C   LIG    1        1.175   1.783   0.000  0.00  0.00    +0.005 A 
ENDBRANCH   1   7
BRANCH   1   9
ATOM      9  C   LIG    1        3.248   3.584  -1.258  0.00  0.00    -0.078 C 
BRANCH   9  10
ATOM     10  N   LIG    1        2.494   4.029  -2.443  0.00  0.00    +0.379 N 
ATOM     11  H   LIG    1        1.595   3.534  -2.478  0.00  0.00    -0.090 HD
ATOM     12  H   LIG    1        3.020   3.822  -3.290  0.00  0.00    -0.090 HD
ATOM     13  H   LIG    1        2.319   5.031  -2.389  0.00  0.00    -0.090 HD
ENDBRANCH   9  10
ENDBRANCH   1   9
BRANCH   1  14
ATOM     14  C   LIG    1        3.271   3.570   1.240  0.00  0.00    +0.126 C 
BRANCH  14  15
ATOM     15  C   LIG    1        4.507   4.429   1.297  0.00  0.00    +0.305 C 
ATOM     16  O   LIG    1        4.713   5.250   0.434  0.00  0.00    -0.251 OA
BRANCH  15  17
ATOM     17  O   LIG    1        5.380   4.283   2.306  0.00  0.00    -0.481 OA
ATOM     18  H   LIG    1        5.221   3.647   2.975  0.00  0.00    +0.295 HD
ENDBRANCH  15  17
ENDBRANCH  14  15
ENDBRANCH   1  14
TORSDOF 6
