REMARK  Name = ZINC28570574
REMARK                            x       y       z     vdW  Elec       q    Type
REMARK                         _______ _______ _______ _____ _____    ______ ____
ROOT
ATOM      1  C   UNK    1       -4.577  -0.266   1.558  0.00  0.00    +0.068 C 
ENDROOT
BRANCH   1   2
ATOM      2  S   UNK    1       -3.025   0.658   1.730  0.00  0.00    -0.156 S 
BRANCH   2   3
ATOM      3  C   UNK    1       -2.513   0.978   0.019  0.00  0.00    +0.104 C 
BRANCH   3   6
ATOM      4  C   UNK    1        1.176   1.783   0.000  0.00  0.00    +0.003 A 
ATOM      5  C   UNK    1       -0.013   1.076   0.008  0.00  0.00    +0.004 A 
ATOM      6  C   UNK    1       -1.219   1.750   0.017  0.00  0.00    -0.035 A 
ATOM      7  C   UNK    1       -1.239   3.132   0.031  0.00  0.00    +0.042 A 
ATOM      8  C   UNK    1       -0.050   3.841   0.023  0.00  0.00    +0.124 A 
ATOM      9  F   UNK    1       -0.068   5.192   0.030  0.00  0.00    -0.205 F 
ATOM     10  C   UNK    1        1.158   3.164   0.008  0.00  0.00    +0.038 A 
ENDBRANCH   3   6
ENDBRANCH   2   3
ENDBRANCH   1   2
BRANCH   1  11
ATOM     11  C   UNK    1       -5.124  -0.604   2.946  0.00  0.00    +0.005 C 
BRANCH  11  12
ATOM     12  C   UNK    1       -6.433  -1.384   2.802  0.00  0.00    +0.036 C 
BRANCH  12  13
ATOM     13  N   UNK    1       -7.449  -0.523   2.182  0.00  0.00    +0.387 N 
ATOM     14  H   UNK    1       -7.617   0.361   2.815  0.00  0.00    -0.089 HD
ATOM     15  H   UNK    1       -7.102  -0.202   1.189  0.00  0.00    -0.089 HD
ATOM     16  H   UNK    1       -8.390  -1.083   2.078  0.00  0.00    -0.089 HD
ENDBRANCH  12  13
BRANCH  12  17
ATOM     17  C   UNK    1       -6.909  -1.823   4.163  0.00  0.00    +0.290 C 
ATOM     18  O   UNK    1       -7.777  -1.202   4.729  0.00  0.00    -0.253 OA
BRANCH  17  19
ATOM     19  O   UNK    1       -6.368  -2.905   4.746  0.00  0.00    -0.482 OA
ATOM     20  H   UNK    1       -5.695  -3.386   4.307  0.00  0.00    +0.295 HD
ENDBRANCH  17  19
ENDBRANCH  12  17
ENDBRANCH  11  12
ENDBRANCH   1  11
TORSDOF 8
