REMARK  Name = ZINC15924305
REMARK                            x       y       z     vdW  Elec       q    Type
REMARK                         _______ _______ _______ _____ _____    ______ ____
ROOT
ATOM      1  C   LIG    1        4.785   1.455   0.050  0.00  0.00    +0.393 C 
ATOM      2  N   LIG    1        4.808   0.152   0.036  0.00  0.00    -0.129 NA
ATOM      3  H   LIG    1        5.643  -0.319   0.179  0.00  0.00    +0.306 HD
ENDROOT
BRANCH   1   4
ATOM      4  N   LIG    1        3.585   2.123  -0.050  0.00  0.00    -0.243 N 
ATOM      5  H   LIG    1        3.573   3.091  -0.113  0.00  0.00    +0.265 HD
BRANCH   4   8
ATOM      6  C   LIG    1        0.068   1.226   0.536  0.00  0.00    +0.005 A 
ATOM      7  C   LIG    1        1.253   1.935   0.547  0.00  0.00    +0.042 A 
ATOM      8  C   LIG    1        2.384   1.406  -0.059  0.00  0.00    +0.101 A 
ATOM      9  C   LIG    1        2.321   0.163  -0.676  0.00  0.00    +0.062 A 
ATOM     10  C   LIG    1        1.132  -0.542  -0.685  0.00  0.00    +0.044 A 
ATOM     11 CL   LIG    1        1.051  -2.095  -1.456  0.00  0.00    -0.083 Cl
ATOM     12  C   LIG    1        0.007  -0.011  -0.079  0.00  0.00    +0.020 A 
ENDBRANCH   4   8
ENDBRANCH   1   4
BRANCH   1  13
ATOM     13  N   LIG    1        5.962   2.164   0.164  0.00  0.00    -0.186 N 
ATOM     14  H   LIG    1        6.798   1.696   0.312  0.00  0.00    +0.271 HD
BRANCH  13  15
ATOM     15  C   LIG    1        5.950   3.540   0.067  0.00  0.00    +0.385 C 
ATOM     16  N   LIG    1        4.817   4.177  -0.017  0.00  0.00    -0.129 NA
ATOM     17  H   LIG    1        4.809   5.145  -0.085  0.00  0.00    +0.306 HD
BRANCH  15  18
ATOM     18  N   LIG    1        7.134   4.239   0.059  0.00  0.00    -0.289 N 
ATOM     19  H   LIG    1        7.125   5.207  -0.009  0.00  0.00    +0.255 HD
ATOM     20  H   LIG    1        7.978   3.765   0.122  0.00  0.00    +0.255 HD
ENDBRANCH  15  18
ENDBRANCH  13  15
ENDBRANCH   1  13
TORSDOF 5
