REMARK  Name = ZINC13782937
REMARK                            x       y       z     vdW  Elec       q    Type
REMARK                         _______ _______ _______ _____ _____    ______ ____
ROOT
ATOM      1  O   LIG    1       -1.378  -2.457   3.344  0.00  0.00    -0.461 OA
ENDROOT
BRANCH   1   8
ATOM      2  N   LIG    1        0.713  -0.491   1.192  0.00  0.00    +0.384 N 
ATOM      3  C   LIG    1        2.110  -0.037   1.181  0.00  0.00    -0.091 C 
ATOM      4  C   LIG    1        0.023  -0.045   2.432  0.00  0.00    -0.062 C 
ATOM      5  C   LIG    1        0.538  -1.014   3.522  0.00  0.00    -0.016 C 
ATOM      6  C   LIG    1        0.948  -2.288   2.756  0.00  0.00    -0.016 C 
ATOM      7  C   LIG    1       -1.480  -0.295   2.233  0.00  0.00    +0.030 C 
ATOM      8  C   LIG    1       -1.703  -1.818   2.108  0.00  0.00    +0.173 C 
ATOM      9  C   LIG    1       -0.812  -2.379   0.995  0.00  0.00    +0.030 C 
ATOM     10  C   LIG    1        0.644  -1.974   1.273  0.00  0.00    -0.062 C 
BRANCH   2  12
ATOM     11  C   LIG    1        0.023   1.526  -0.015  0.00  0.00    -0.013 C 
ATOM     12  C   LIG    1        0.002  -0.004   0.002  0.00  0.00    -0.071 C 
ATOM     13  C   LIG    1        0.690  -0.537  -1.256  0.00  0.00    -0.013 C 
ENDBRANCH   2  12
ENDBRANCH   1   8
BRANCH   1  14
ATOM     14  C   LIG    1       -2.368  -2.588   4.241  0.00  0.00    +0.317 C 
ATOM     15  O   LIG    1       -3.474  -2.174   3.985  0.00  0.00    -0.250 OA
BRANCH  14  16
ATOM     16  C   LIG    1       -2.100  -3.251   5.568  0.00  0.00    +0.153 C 
BRANCH  16  17
ATOM     17  C   LIG    1       -3.366  -3.271   6.384  0.00  0.00    -0.032 A 
ATOM     18  C   LIG    1       -3.992  -2.085   6.719  0.00  0.00    +0.004 A 
ATOM     19  C   LIG    1       -5.154  -2.103   7.468  0.00  0.00    +0.000 A 
ATOM     20  C   LIG    1       -5.690  -3.308   7.882  0.00  0.00    +0.000 A 
ATOM     21  C   LIG    1       -5.065  -4.495   7.546  0.00  0.00    +0.000 A 
ATOM     22  C   LIG    1       -3.905  -4.476   6.794  0.00  0.00    +0.004 A 
ENDBRANCH  16  17
BRANCH  16  23
ATOM     23  C   LIG    1       -1.021  -2.469   6.320  0.00  0.00    +0.175 C 
BRANCH  23  24
ATOM     24  O   LIG    1       -0.683  -3.161   7.524  0.00  0.00    -0.394 OA
ATOM     25  H   LIG    1       -0.003  -2.721   8.052  0.00  0.00    +0.209 HD
ENDBRANCH  23  24
ENDBRANCH  16  23
ENDBRANCH  14  16
ENDBRANCH   1  14
TORSDOF 7
