REMARK  Name = ZINC71789371
REMARK                            x       y       z     vdW  Elec       q    Type
REMARK                         _______ _______ _______ _____ _____    ______ ____
ROOT
ATOM      1  C   LIG    1       -0.013   1.086   0.008  0.00  0.00    +0.178 C 
ATOM      2  C   LIG    1       -0.729   1.579   1.267  0.00  0.00    +0.193 C 
ATOM      3  C   LIG    1       -0.750   3.109   1.275  0.00  0.00    +0.193 C 
ATOM      4  C   LIG    1        0.686   3.639   1.264  0.00  0.00    +0.178 C 
ATOM      5  C   LIG    1        1.402   3.145   0.006  0.00  0.00    +0.193 C 
ATOM      6  C   LIG    1        1.423   1.615  -0.003  0.00  0.00    +0.193 C 
ENDROOT
BRANCH   4   7
ATOM      7  O   LIG    1        0.666   5.067   1.272  0.00  0.00    -0.386 OA
ATOM      8  H   LIG    1        1.544   5.473   1.266  0.00  0.00    +0.210 HD
ENDBRANCH   4   7
BRANCH   1   9
ATOM      9  O   LIG    1       -0.704   1.559  -1.150  0.00  0.00    -0.386 OA
ATOM     10  H   LIG    1       -0.304   1.284  -1.986  0.00  0.00    +0.210 HD
ENDBRANCH   1   9
BRANCH   5  11
ATOM     11  O   LIG    1        2.743   3.640  -0.005  0.00  0.00    -0.278 OA
BRANCH  11  12
ATOM     12  P   LIG    1        3.320   4.583  -1.175  0.00  0.00    +0.473 P 
ATOM     13  O   LIG    1        3.114   3.882  -2.560  0.00  0.00    -0.228 OA
BRANCH  12  14
ATOM     14  O   LIG    1        2.560   5.953  -1.164  0.00  0.00    -0.303 OA
ATOM     15  H   LIG    1        1.614   5.799  -1.311  0.00  0.00    +0.222 HD
ENDBRANCH  12  14
BRANCH  12  16
ATOM     16  O   LIG    1        4.849   4.832  -0.937  0.00  0.00    -0.303 OA
ATOM     17  H   LIG    1        5.319   3.984  -0.944  0.00  0.00    +0.222 HD
ENDBRANCH  12  16
ENDBRANCH  11  12
ENDBRANCH   5  11
BRANCH   3  18
ATOM     18  O   LIG    1       -1.419   3.570   2.451  0.00  0.00    -0.278 OA
BRANCH  18  19
ATOM     19  P   LIG    1       -2.745   4.481   2.405  0.00  0.00    +0.473 P 
ATOM     20  O   LIG    1       -2.471   5.760   1.542  0.00  0.00    -0.228 OA
BRANCH  19  21
ATOM     21  O   LIG    1       -3.919   3.663   1.767  0.00  0.00    -0.303 OA
ATOM     22  H   LIG    1       -3.677   3.398   0.866  0.00  0.00    +0.222 HD
ENDBRANCH  19  21
BRANCH  19  23
ATOM     23  O   LIG    1       -3.136   4.908   3.861  0.00  0.00    -0.303 OA
ATOM     24  H   LIG    1       -2.410   5.415   4.255  0.00  0.00    +0.222 HD
ENDBRANCH  19  23
ENDBRANCH  18  19
ENDBRANCH   3  18
BRANCH   6  25
ATOM     25  O   LIG    1        2.114   1.142   1.155  0.00  0.00    -0.278 OA
BRANCH  25  26
ATOM     26  P   LIG    1        3.439   0.232   1.074  0.00  0.00    +0.473 P 
ATOM     27  O   LIG    1        3.148  -1.038   0.202  0.00  0.00    -0.228 OA
BRANCH  26  28
ATOM     28  O   LIG    1        4.601   1.057   0.423  0.00  0.00    -0.303 OA
ATOM     29  H   LIG    1        4.341   1.331  -0.471  0.00  0.00    +0.222 HD
ENDBRANCH  26  28
BRANCH  26  30
ATOM     30  O   LIG    1        3.858  -0.211   2.517  0.00  0.00    -0.303 OA
ATOM     31  H   LIG    1        3.139  -0.722   2.920  0.00  0.00    +0.222 HD
ENDBRANCH  26  30
ENDBRANCH  25  26
ENDBRANCH   6  25
BRANCH   2  32
ATOM     32  O   LIG    1       -0.038   1.106   2.425  0.00  0.00    -0.278 OA
BRANCH  32  33
ATOM     33  P   LIG    1       -0.726   0.162   3.532  0.00  0.00    +0.473 P 
ATOM     34  O   LIG    1       -2.012   0.838   4.057  0.00  0.00    -0.228 OA
BRANCH  33  35
ATOM     35  O   LIG    1       -1.083  -1.201   2.897  0.00  0.00    -0.303 OA
ATOM     36  H   LIG    1       -1.700  -1.063   2.161  0.00  0.00    +0.222 HD
ENDBRANCH  33  35
BRANCH  33  37
ATOM     37  O   LIG    1        0.297  -0.067   4.753  0.00  0.00    -0.303 OA
ATOM     38  H   LIG    1       -0.052  -0.628   5.459  0.00  0.00    +0.222 HD
ENDBRANCH  33  37
ENDBRANCH  32  33
ENDBRANCH   2  32
TORSDOF 18
