REMARK  Name = ZINC18244306
REMARK                            x       y       z     vdW  Elec       q    Type
REMARK                         _______ _______ _______ _____ _____    ______ ____
ROOT
ATOM      1  C   LIG    1       -0.018   1.503   0.010  0.00  0.00    +0.064 C 
ATOM      2  C   LIG    1        0.002  -0.004   0.002  0.00  0.00    +0.033 A 
ATOM      3  C   LIG    1        0.006  -0.682  -1.190  0.00  0.00    +0.085 A 
ATOM      4  C   LIG    1        0.026  -2.152  -1.178  0.00  0.00    +0.075 A 
ATOM      5  N   LIG    1        0.025  -2.555  -2.491  0.00  0.00    -0.289 N 
ATOM      6  N   LIG    1        0.006  -1.438  -3.331  0.00  0.00    -0.219 N 
ATOM      7  H   LIG    1        0.036  -3.478  -2.790  0.00  0.00    +0.187 HD
ATOM      8  C   LIG    1        0.041  -2.795   0.041  0.00  0.00    +0.098 A 
ATOM      9  C   LIG    1        0.036  -2.026   1.211  0.00  0.00    +0.254 A 
ATOM     10  O   LIG    1        0.050  -2.587   2.295  0.00  0.00    -0.268 OA
ATOM     11  C   LIG    1       -0.006  -0.300  -2.609  0.00  0.00    +0.281 A 
ATOM     12  O   LIG    1       -0.024   0.834  -3.050  0.00  0.00    -0.265 OA
ATOM     13  N   LIG    1        0.022  -0.684   1.167  0.00  0.00    -0.311 N 
ENDROOT
BRANCH   6  14
ATOM     14  C   LIG    1        0.001  -1.494  -4.728  0.00  0.00    +0.067 A 
ATOM     15  C   LIG    1       -0.012  -0.321  -5.471  0.00  0.00    +0.028 A 
ATOM     16  C   LIG    1       -0.017  -0.379  -6.851  0.00  0.00    +0.002 A 
ATOM     17  C   LIG    1       -0.008  -1.604  -7.493  0.00  0.00    +0.000 A 
ATOM     18  C   LIG    1        0.005  -2.774  -6.756  0.00  0.00    +0.002 A 
ATOM     19  C   LIG    1        0.015  -2.722  -5.376  0.00  0.00    +0.028 A 
ENDBRANCH   6  14
BRANCH  13  20
ATOM     20  C   LIG    1        0.024   0.067   2.425  0.00  0.00    +0.130 C 
BRANCH  20  21
ATOM     21  C   LIG    1       -1.418   0.308   2.877  0.00  0.00    +0.057 C 
BRANCH  21  22
ATOM     22  C   LIG    1       -1.416   1.080   4.171  0.00  0.00    -0.046 A 
ATOM     23  C   LIG    1       -1.390   0.406   5.378  0.00  0.00    +0.004 A 
ATOM     24  C   LIG    1       -1.388   1.114   6.565  0.00  0.00    +0.000 A 
ATOM     25  C   LIG    1       -1.412   2.496   6.546  0.00  0.00    +0.000 A 
ATOM     26  C   LIG    1       -1.438   3.170   5.339  0.00  0.00    +0.000 A 
ATOM     27  C   LIG    1       -1.435   2.462   4.152  0.00  0.00    +0.004 A 
ENDBRANCH  21  22
ENDBRANCH  20  21
ENDBRANCH  13  20
TORSDOF 4
