REMARK  Name = ZINC13782473
REMARK                            x       y       z     vdW  Elec       q    Type
REMARK                         _______ _______ _______ _____ _____    ______ ____
ROOT
ATOM      1  C   LIG    1        4.708   1.468  -0.037  0.00  0.00    +0.142 A 
ATOM      2  N   LIG    1        4.811   0.102  -0.046  0.00  0.00    -0.306 N 
ATOM      3  C   LIG    1        3.699  -0.669  -0.038  0.00  0.00    +0.260 A 
ATOM      4  C   LIG    1        2.398   0.017  -0.021  0.00  0.00    +0.068 A 
ATOM      5  C   LIG    1        1.197  -0.690  -0.014  0.00  0.00    +0.015 A 
ATOM      6  C   LIG    1        0.002  -0.004   0.002  0.00  0.00    +0.004 A 
ATOM      7  C   LIG    1       -0.017   1.384   0.010  0.00  0.00    +0.048 A 
ATOM      8  C   LIG    1        1.160   2.107   0.002  0.00  0.00    +0.146 A 
ATOM      9  C   LIG    1        2.389   1.429  -0.013  0.00  0.00    +0.120 A 
ATOM     10  O   LIG    1        3.773  -1.884  -0.046  0.00  0.00    -0.267 OA
ATOM     11  H   LIG    1        5.687  -0.315  -0.057  0.00  0.00    +0.170 HD
ATOM     12  N   LIG    1        3.560   2.096  -0.021  0.00  0.00    -0.225 NA
ENDROOT
BRANCH   1  16
ATOM     13  C   LIG    1        8.277   3.770  -0.060  0.00  0.00    +0.120 A 
ATOM     14  C   LIG    1        7.042   4.406  -0.044  0.00  0.00    +0.046 A 
ATOM     15  C   LIG    1        5.882   3.663  -0.036  0.00  0.00    +0.015 A 
ATOM     16  C   LIG    1        5.949   2.268  -0.045  0.00  0.00    +0.018 A 
ATOM     17  C   LIG    1        7.192   1.632  -0.055  0.00  0.00    +0.015 A 
ATOM     18  C   LIG    1        8.348   2.382  -0.069  0.00  0.00    +0.046 A 
BRANCH  13  20
ATOM     19  C   LIG    1       10.653   3.788  -0.084  0.00  0.00    +0.277 C 
ATOM     20  O   LIG    1        9.418   4.506  -0.067  0.00  0.00    -0.495 OA
ENDBRANCH  13  20
ENDBRANCH   1  16
BRANCH   8  21
ATOM     21  O   LIG    1        1.128   3.465   0.009  0.00  0.00    -0.493 OA
ATOM     22  C   LIG    1       -0.160   4.084   0.025  0.00  0.00    +0.277 C 
ENDBRANCH   8  21
TORSDOF 3
