REMARK  Name = ZINC13827726
REMARK                            x       y       z     vdW  Elec       q    Type
REMARK                         _______ _______ _______ _____ _____    ______ ____
ROOT
ATOM      1  C   LIG    1       -0.018   1.510   0.010  0.00  0.00    +0.009 C 
ATOM      2  C   LIG    1        0.002  -0.004   0.002  0.00  0.00    +0.006 C 
ATOM      3  C   LIG    1       -1.425  -0.558  -0.040  0.00  0.00    +0.009 C 
ATOM      4  C   LIG    1       -2.291   0.179   0.965  0.00  0.00    -0.000 C 
ATOM      5  C   LIG    1       -2.009  -0.055   2.445  0.00  0.00    +0.013 C 
ATOM      6  C   LIG    1       -0.961  -0.995   2.923  0.00  0.00    +0.083 C 
ATOM      7  C   LIG    1       -0.270  -0.579   4.198  0.00  0.00    -0.012 C 
ATOM      8  C   LIG    1        0.590   0.442   4.160  0.00  0.00    -0.017 C 
ATOM      9  C   LIG    1        0.858   1.139   2.840  0.00  0.00    +0.178 C 
ATOM     10  C   LIG    1        1.645   0.171   2.016  0.00  0.00    +0.141 C 
ATOM     11  C   LIG    1        2.753   0.644   1.070  0.00  0.00    +0.176 C 
ATOM     12  C   LIG    1        3.021  -0.664   0.316  0.00  0.00    -0.045 C 
ATOM     13  C   LIG    1        4.331  -1.022  -0.337  0.00  0.00    +0.041 C 
ATOM     14  C   LIG    1        1.940  -1.425   0.323  0.00  0.00    -0.008 C 
ATOM     15  C   LIG    1       -0.026  -1.593   1.915  0.00  0.00    +0.153 C 
ATOM     16  O   LIG    1        0.051  -2.790   1.787  0.00  0.00    -0.296 OA
ATOM     17  C   LIG    1       -3.308  -0.566   1.822  0.00  0.00    -0.028 C 
ATOM     18  C   LIG    1       -4.598   0.192   2.169  0.00  0.00    +0.011 C 
ATOM     19  C   LIG    1       -3.494  -2.063   1.584  0.00  0.00    +0.011 C 
ATOM     20  C   LIG    1        0.825  -0.695   1.058  0.00  0.00    +0.085 C 
ENDROOT
BRANCH   9  21
ATOM     21  O   LIG    1        1.612   2.331   3.080  0.00  0.00    -0.384 OA
ATOM     22  H   LIG    1        1.168   2.968   3.656  0.00  0.00    +0.210 HD
ENDBRANCH   9  21
BRANCH  10  23
ATOM     23  O   LIG    1        2.293  -0.738   2.954  0.00  0.00    -0.381 OA
ATOM     24  H   LIG    1        2.882  -0.299   3.584  0.00  0.00    +0.210 HD
ENDBRANCH  10  23
BRANCH  11  25
ATOM     25  O   LIG    1        3.918   1.030   1.812  0.00  0.00    -0.385 OA
ATOM     26  H   LIG    1        4.650   1.339   1.261  0.00  0.00    +0.210 HD
ENDBRANCH  11  25
BRANCH   8  27
ATOM     27  C   LIG    1        1.278   0.911   5.412  0.00  0.00    +0.189 C 
BRANCH  27  28
ATOM     28  O   LIG    1        0.851   0.112   6.517  0.00  0.00    -0.391 OA
ATOM     29  H   LIG    1        1.255   0.359   7.360  0.00  0.00    +0.210 HD
ENDBRANCH  27  28
ENDBRANCH   8  27
TORSDOF 5
