REMARK  Name = ZINC28221927
REMARK                            x       y       z     vdW  Elec       q    Type
REMARK                         _______ _______ _______ _____ _____    ______ ____
ROOT
ATOM      1  C   LIG    1        5.981  -0.737  -0.058  0.00  0.00    +0.079 A 
ATOM      2  C   LIG    1        5.797  -2.118  -0.058  0.00  0.00    +0.027 A 
ATOM      3  C   LIG    1        6.881  -2.949  -0.077  0.00  0.00    +0.012 A 
ATOM      4  C   LIG    1        8.163  -2.369  -0.086  0.00  0.00    +0.000 A 
ATOM      5  C   LIG    1        9.323  -3.160  -0.100  0.00  0.00    +0.010 A 
ATOM      6  C   LIG    1       10.546  -2.561  -0.108  0.00  0.00    +0.001 A 
ATOM      7  C   LIG    1       10.662  -1.172  -0.103  0.00  0.00    +0.002 A 
ATOM      8  C   LIG    1        9.558  -0.375  -0.089  0.00  0.00    +0.028 A 
ATOM      9  C   LIG    1        8.278  -0.957  -0.081  0.00  0.00    +0.071 A 
ATOM     10  N   LIG    1        7.176  -0.200  -0.067  0.00  0.00    -0.248 NA
ENDROOT
BRANCH   1  11
ATOM     11  C   LIG    1        4.772   0.164  -0.042  0.00  0.00    +0.284 C 
BRANCH  11  12
ATOM     12  O   LIG    1        3.586  -0.632  -0.035  0.00  0.00    -0.486 OA
BRANCH  12  16
ATOM     13  C   LIG    1       -0.017   1.378   0.010  0.00  0.00    +0.000 A 
ATOM     14  C   LIG    1        1.170   2.088   0.002  0.00  0.00    +0.004 A 
ATOM     15  C   LIG    1        2.377   1.417  -0.013  0.00  0.00    +0.045 A 
ATOM     16  C   LIG    1        2.399   0.030  -0.021  0.00  0.00    +0.121 A 
ATOM     17  C   LIG    1        1.207  -0.680  -0.013  0.00  0.00    +0.045 A 
ATOM     18  C   LIG    1        0.002  -0.004   0.002  0.00  0.00    +0.004 A 
ENDBRANCH  12  16
ENDBRANCH  11  12
ENDBRANCH   1  11
TORSDOF 3
