REMARK  Name = ZINC25990984
REMARK                            x       y       z     vdW  Elec       q    Type
REMARK                         _______ _______ _______ _____ _____    ______ ____
ROOT
ATOM      1  C   LIG    1       -3.574   3.098   0.037  0.00  0.00    +0.104 C 
ENDROOT
BRANCH   1   3
ATOM      2  C   LIG    1       -1.173   2.688   0.022  0.00  0.00    +0.251 C 
ATOM      3  N   LIG    1       -2.425   2.190   0.027  0.00  0.00    -0.311 N 
ATOM      4  H   LIG    1       -2.583   1.101   0.022  0.00  0.00    +0.149 HD
ATOM      5  O   LIG    1       -0.997   3.893   0.028  0.00  0.00    -0.270 OA
BRANCH   2   8
ATOM      6  C   LIG    1        2.208   1.027  -0.013  0.00  0.00    +0.008 A 
ATOM      7  C   LIG    1        1.330   2.083   0.001  0.00  0.00    +0.021 A 
ATOM      8  C   LIG    1       -0.022   1.780   0.012  0.00  0.00    +0.074 A 
ATOM      9  S   LIG    1        0.002  -0.004   0.002  0.00  0.00    -0.092 S 
ATOM     10  C   LIG    1        1.719  -0.241  -0.016  0.00  0.00    +0.046 A 
ENDBRANCH   2   8
ENDBRANCH   1   3
BRANCH   1  11
ATOM     11  C   LIG    1       -4.869   2.282   0.040  0.00  0.00    +0.020 C 
BRANCH  11  12
ATOM     12  C   LIG    1       -6.069   3.230   0.051  0.00  0.00    +0.023 C 
BRANCH  12  13
ATOM     13  C   LIG    1       -7.364   2.414   0.054  0.00  0.00    +0.123 C 
BRANCH  13  14
ATOM     14  N   LIG    1       -8.513   3.322   0.065  0.00  0.00    -0.338 N 
ATOM     15  C   LIG    1       -9.148   3.815   1.172  0.00  0.00    +0.104 A 
ATOM     16  C   LIG    1      -10.143   4.608   0.730  0.00  0.00    +0.101 A 
ATOM     17  N   LIG    1      -10.122   4.592  -0.611  0.00  0.00    -0.352 N 
ATOM     18  H   LIG    1      -10.861   5.176  -1.179  0.00  0.00    +0.166 HD
ATOM     19  C   LIG    1       -9.148   3.823  -1.016  0.00  0.00    +0.173 A 
ENDBRANCH  13  14
ENDBRANCH  12  13
ENDBRANCH  11  12
ENDBRANCH   1  11
TORSDOF 6
