REMARK  Name = ZINC27408416
REMARK                            x       y       z     vdW  Elec       q    Type
REMARK                         _______ _______ _______ _____ _____    ______ ____
ROOT
ATOM      1  C   LIG    1        3.821   1.247  -0.690  0.00  0.00    +0.092 C 
ATOM      2  C   LIG    1        4.783   0.181  -1.238  0.00  0.00    -0.054 C 
ATOM      3  C   LIG    1        4.890  -0.946  -0.186  0.00  0.00    -0.016 C 
ATOM      4  C   LIG    1        6.040  -0.509   0.745  0.00  0.00    -0.017 C 
ATOM      5  C   LIG    1        6.524   0.842   0.170  0.00  0.00    -0.068 C 
ATOM      6  C   LIG    1        5.689   1.956   0.821  0.00  0.00    -0.007 C 
ATOM      7  N   LIG    1        6.141   0.786  -1.266  0.00  0.00    +0.382 N 
ATOM      8  H   LIG    1        6.170   1.767  -1.762  0.00  0.00    -0.081 HD
ATOM      9  C   LIG    1        7.076  -0.054  -2.027  0.00  0.00    -0.095 C 
ATOM     10  C   LIG    1        4.209   1.568   0.756  0.00  0.00    +0.030 C 
ENDROOT
BRANCH  10  11
ATOM     11  C   LIG    1        3.970   0.356   1.620  0.00  0.00    -0.044 A 
ATOM     12  C   LIG    1        2.965  -0.536   1.296  0.00  0.00    +0.005 A 
ATOM     13  C   LIG    1        2.749  -1.651   2.084  0.00  0.00    +0.014 A 
ATOM     14  C   LIG    1        3.533  -1.868   3.203  0.00  0.00    +0.013 A 
ATOM     15  I   LIG    1        3.202  -3.554   4.402  0.00  0.00    -0.044 I 
ATOM     16  C   LIG    1        4.535  -0.973   3.530  0.00  0.00    +0.014 A 
ATOM     17  C   LIG    1        4.753   0.139   2.738  0.00  0.00    +0.005 A 
ENDBRANCH  10  11
BRANCH   1  18
ATOM     18  C   LIG    1        2.409   0.721  -0.729  0.00  0.00    +0.309 C 
ATOM     19  O   LIG    1        2.140  -0.237  -1.415  0.00  0.00    -0.251 OA
BRANCH  18  20
ATOM     20  O   LIG    1        1.450   1.318  -0.003  0.00  0.00    -0.462 OA
BRANCH  20  22
ATOM     21  C   LIG    1       -0.651   1.436  -1.228  0.00  0.00    +0.052 C 
ATOM     22  C   LIG    1        0.114   0.757  -0.090  0.00  0.00    +0.170 C 
ATOM     23  C   LIG    1       -0.624   0.992   1.230  0.00  0.00    +0.052 C 
ENDBRANCH  20  22
ENDBRANCH  18  20
ENDBRANCH   1  18
TORSDOF 4
