REMARK  Name = ZINC13985862
REMARK                            x       y       z     vdW  Elec       q    Type
REMARK                         _______ _______ _______ _____ _____    ______ ____
ROOT
ATOM      1  C   LIG    1        3.573  -0.806  -0.037  0.00  0.00    +0.093 A 
ATOM      2  C   LIG    1        3.776  -2.093   0.427  0.00  0.00    +0.074 A 
ATOM      3  N   LIG    1        5.068  -2.397   0.216  0.00  0.00    -0.343 N 
ATOM      4  H   LIG    1        5.512  -3.292   0.454  0.00  0.00    +0.167 HD
ATOM      5  C   LIG    1        5.676  -1.376  -0.339  0.00  0.00    +0.088 A 
ATOM      6  C   LIG    1        7.042  -0.959  -0.850  0.00  0.00    +0.074 C 
ATOM      7  C   LIG    1        6.755   0.274  -1.737  0.00  0.00    +0.035 C 
ATOM      8  C   LIG    1        5.436   0.798  -1.130  0.00  0.00    +0.115 C 
ATOM      9  N   LIG    1        4.795  -0.372  -0.513  0.00  0.00    -0.322 N 
ENDROOT
BRANCH   2  10
ATOM     10  C   LIG    1        2.757  -2.976   1.039  0.00  0.00    +0.001 A 
ATOM     11  C   LIG    1        1.757  -2.435   1.847  0.00  0.00    +0.013 A 
ATOM     12  C   LIG    1        0.806  -3.261   2.410  0.00  0.00    +0.039 A 
ATOM     13  C   LIG    1        0.850  -4.627   2.183  0.00  0.00    +0.123 A 
ATOM     14  F   LIG    1       -0.080  -5.433   2.742  0.00  0.00    -0.205 F 
ATOM     15  C   LIG    1        1.845  -5.170   1.386  0.00  0.00    +0.039 A 
ATOM     16  C   LIG    1        2.796  -4.352   0.813  0.00  0.00    +0.013 A 
ENDBRANCH   2  10
BRANCH   1  21
ATOM     17  C   LIG    1        0.002  -0.004   0.002  0.00  0.00    +0.216 A 
ATOM     18  N   LIG    1       -0.016   1.321   0.009  0.00  0.00    -0.223 NA
ATOM     19  C   LIG    1        1.109   2.020   0.002  0.00  0.00    +0.116 A 
ATOM     20  C   LIG    1        2.320   1.354  -0.013  0.00  0.00    +0.050 A 
ATOM     21  C   LIG    1        2.309  -0.048  -0.020  0.00  0.00    +0.094 A 
ATOM     22  N   LIG    1        1.137  -0.684  -0.013  0.00  0.00    -0.213 NA
BRANCH  17  23
ATOM     23  N   LIG    1       -1.198  -0.694   0.010  0.00  0.00    -0.313 N 
ATOM     24  H   LIG    1       -1.199  -1.664   0.005  0.00  0.00    +0.149 HD
BRANCH  23  25
ATOM     25  C   LIG    1       -2.465   0.040   0.027  0.00  0.00    +0.104 C 
BRANCH  25  27
ATOM     26  C   LIG    1       -4.953  -0.186   0.050  0.00  0.00    +0.005 C 
ATOM     27  C   LIG    1       -3.630  -0.953   0.033  0.00  0.00    +0.015 C 
ENDBRANCH  25  27
ENDBRANCH  23  25
ENDBRANCH  17  23
ENDBRANCH   1  21
BRANCH   8  28
ATOM     28  C   LIG    1        4.541   1.375  -2.229  0.00  0.00    +0.185 C 
BRANCH  28  29
ATOM     29  O   LIG    1        5.124   2.576  -2.737  0.00  0.00    -0.373 OA
BRANCH  29  30
ATOM     30  C   LIG    1        4.362   3.198  -3.774  0.00  0.00    +0.195 C 
BRANCH  30  31
ATOM     31  C   LIG    1        5.066   4.449  -4.233  0.00  0.00    -0.022 A 
ATOM     32  C   LIG    1        4.787   5.660  -3.626  0.00  0.00    +0.009 A 
ATOM     33  C   LIG    1        5.435   6.807  -4.042  0.00  0.00    +0.046 A 
ATOM     34  C   LIG    1        6.357   6.746  -5.076  0.00  0.00    +0.120 A 
ATOM     35  C   LIG    1        6.631   5.530  -5.687  0.00  0.00    +0.046 A 
ATOM     36  C   LIG    1        5.985   4.385  -5.264  0.00  0.00    +0.009 A 
BRANCH  34  37
ATOM     37  O   LIG    1        6.992   7.874  -5.490  0.00  0.00    -0.495 OA
ATOM     38  C   LIG    1        6.660   9.089  -4.816  0.00  0.00    +0.277 C 
ENDBRANCH  34  37
ENDBRANCH  30  31
ENDBRANCH  29  30
ENDBRANCH  28  29
ENDBRANCH   8  28
TORSDOF 10
