REMARK  Name = ZINC19890380
REMARK                            x       y       z     vdW  Elec       q    Type
REMARK                         _______ _______ _______ _____ _____    ______ ____
ROOT
ATOM      1  C   LIG    1        3.675  -0.728  -0.009  0.00  0.00    +0.041 A 
ATOM      2  C   LIG    1        4.167  -1.642  -1.048  0.00  0.00    +0.088 A 
ATOM      3  C   LIG    1        3.647  -2.170  -2.237  0.00  0.00    +0.134 A 
ATOM      4  N   LIG    1        4.409  -2.999  -2.946  0.00  0.00    -0.220 NA
ATOM      5  C   LIG    1        5.625  -3.315  -2.541  0.00  0.00    +0.227 A 
ATOM      6  N   LIG    1        6.151  -2.841  -1.431  0.00  0.00    -0.200 NA
ATOM      7  C   LIG    1        5.466  -2.005  -0.654  0.00  0.00    +0.233 A 
ATOM      8  O   LIG    1        5.734  -1.377   0.503  0.00  0.00    -0.436 OA
ATOM      9  C   LIG    1        4.693  -0.616   0.897  0.00  0.00    +0.146 A 
ENDROOT
BRANCH   1  13
ATOM     10  C   LIG    1       -0.117   1.184   0.138  0.00  0.00    +0.000 A 
ATOM     11  C   LIG    1        1.027   1.937  -0.057  0.00  0.00    +0.001 A 
ATOM     12  C   LIG    1        2.261   1.322  -0.105  0.00  0.00    +0.008 A 
ATOM     13  C   LIG    1        2.354  -0.062   0.042  0.00  0.00    -0.014 A 
ATOM     14  C   LIG    1        1.197  -0.816   0.239  0.00  0.00    +0.008 A 
ATOM     15  C   LIG    1       -0.032  -0.189   0.286  0.00  0.00    +0.001 A 
ENDBRANCH   1  13
BRANCH   9  16
ATOM     16  C   LIG    1        4.657   0.209   2.120  0.00  0.00    +0.018 A 
ATOM     17  C   LIG    1        3.552   0.152   2.973  0.00  0.00    +0.011 A 
ATOM     18  C   LIG    1        3.525   0.926   4.114  0.00  0.00    +0.001 A 
ATOM     19  C   LIG    1        4.590   1.757   4.416  0.00  0.00    +0.000 A 
ATOM     20  C   LIG    1        5.688   1.819   3.576  0.00  0.00    +0.001 A 
ATOM     21  C   LIG    1        5.731   1.046   2.434  0.00  0.00    +0.011 A 
ENDBRANCH   9  16
BRANCH   3  22
ATOM     22  N   LIG    1        2.373  -1.840  -2.662  0.00  0.00    -0.327 N 
ATOM     23  H   LIG    1        1.827  -1.235  -2.135  0.00  0.00    +0.148 HD
BRANCH  22  24
ATOM     24  C   LIG    1        1.847  -2.403  -3.908  0.00  0.00    +0.118 C 
BRANCH  24  25
ATOM     25  C   LIG    1        0.429  -1.881  -4.146  0.00  0.00    +0.103 C 
BRANCH  25  26
ATOM     26  N   LIG    1       -0.098  -2.446  -5.395  0.00  0.00    -0.297 NA
ATOM     27  C   LIG    1        0.651  -1.945  -6.557  0.00  0.00    +0.112 C 
ATOM     28  C   LIG    1        0.109  -2.603  -7.829  0.00  0.00    +0.175 C 
ATOM     29  O   LIG    1       -1.293  -2.342  -7.935  0.00  0.00    -0.377 OA
ATOM     30  C   LIG    1       -2.053  -2.817  -6.820  0.00  0.00    +0.175 C 
ATOM     31  C   LIG    1       -1.533  -2.161  -5.538  0.00  0.00    +0.112 C 
ENDBRANCH  25  26
ENDBRANCH  24  25
ENDBRANCH  22  24
ENDBRANCH   3  22
TORSDOF 6
