REMARK  Name = ZINC19796041
REMARK                            x       y       z     vdW  Elec       q    Type
REMARK                         _______ _______ _______ _____ _____    ______ ____
ROOT
ATOM      1  C   LIG    1        1.571  -2.364   2.370  0.00  0.00    +0.068 C 
ATOM      2  C   LIG    1        1.489  -3.684   2.608  0.00  0.00    +0.045 C 
ATOM      3  N   LIG    1        2.023  -4.226   3.745  0.00  0.00    -0.319 N 
ATOM      4  H   LIG    1        2.190  -5.180   3.793  0.00  0.00    +0.152 HD
ATOM      5  C   LIG    1        2.322  -3.427   4.815  0.00  0.00    +0.016 C 
ATOM      6  C   LIG    1        2.523  -4.047   6.174  0.00  0.00    +0.061 C 
ATOM      7  C   LIG    1        2.438  -2.096   4.669  0.00  0.00    +0.065 C 
ATOM      8  C   LIG    1        2.260  -1.436   3.330  0.00  0.00    +0.097 C 
ENDROOT
BRANCH   8   9
ATOM      9  C   LIG    1        3.608  -1.058   2.773  0.00  0.00    -0.017 A 
ATOM     10  C   LIG    1        4.547  -2.038   2.511  0.00  0.00    +0.006 A 
ATOM     11  C   LIG    1        5.784  -1.691   2.001  0.00  0.00    +0.000 A 
ATOM     12  C   LIG    1        6.083  -0.364   1.752  0.00  0.00    +0.001 A 
ATOM     13  C   LIG    1        5.145   0.616   2.014  0.00  0.00    +0.020 A 
ATOM     14  C   LIG    1        3.904   0.269   2.520  0.00  0.00    +0.045 A 
ATOM     15 CL   LIG    1        2.723   1.500   2.843  0.00  0.00    -0.083 Cl
ENDBRANCH   8   9
BRANCH   1  16
ATOM     16  C   LIG    1        1.001  -1.837   1.188  0.00  0.00    +0.338 C 
ATOM     17  O   LIG    1       -0.083  -1.284   1.228  0.00  0.00    -0.245 OA
BRANCH  16  18
ATOM     18  O   LIG    1        1.658  -1.948   0.014  0.00  0.00    -0.462 OA
BRANCH  18  20
ATOM     19  C   LIG    1        1.911  -1.615  -2.366  0.00  0.00    +0.048 C 
ATOM     20  C   LIG    1        1.023  -1.394  -1.140  0.00  0.00    +0.229 C 
ENDBRANCH  18  20
ENDBRANCH  16  18
ENDBRANCH   1  16
BRANCH   7  21
ATOM     21  C   LIG    1        2.739  -1.300   5.799  0.00  0.00    +0.337 C 
ATOM     22  O   LIG    1        2.890  -1.821   6.888  0.00  0.00    -0.245 OA
BRANCH  21  23
ATOM     23  O   LIG    1        2.859   0.038   5.669  0.00  0.00    -0.465 OA
ATOM     24  C   LIG    1        3.164   0.780   6.851  0.00  0.00    +0.280 C 
ENDBRANCH  21  23
ENDBRANCH   7  21
BRANCH   2  25
ATOM     25  C   LIG    1        0.801  -4.579   1.609  0.00  0.00    +0.210 C 
BRANCH  25  26
ATOM     26  O   LIG    1        1.756  -5.474   1.034  0.00  0.00    -0.376 OA
BRANCH  26  27
ATOM     27  C   LIG    1        1.204  -6.371   0.069  0.00  0.00    +0.141 C 
BRANCH  27  28
ATOM     28  C   LIG    1        2.310  -7.277  -0.477  0.00  0.00    -0.058 C 
BRANCH  28  29
ATOM     29  N   LIG    1        2.819  -8.133   0.603  0.00  0.00    +0.380 N 
ATOM     30  H   LIG    1        3.549  -8.730   0.243  0.00  0.00    -0.090 HD
ATOM     31  H   LIG    1        2.068  -8.700   0.965  0.00  0.00    -0.090 HD
ATOM     32  H   LIG    1        3.191  -7.556   1.342  0.00  0.00    -0.090 HD
ENDBRANCH  28  29
ENDBRANCH  27  28
ENDBRANCH  26  27
ENDBRANCH  25  26
ENDBRANCH   2  25
TORSDOF 11
