REMARK  Name = ZINC19670937
REMARK                            x       y       z     vdW  Elec       q    Type
REMARK                         _______ _______ _______ _____ _____    ______ ____
ROOT
ATOM      1  C   LIG    1        3.671   2.177  -0.030  0.00  0.00    +0.186 C 
ENDROOT
BRANCH   1   5
ATOM      2  C   LIG    1        0.122  -0.183  -0.326  0.00  0.00    +0.000 A 
ATOM      3  C   LIG    1        0.035   1.197  -0.300  0.00  0.00    +0.000 A 
ATOM      4  C   LIG    1        1.183   1.960  -0.203  0.00  0.00    +0.007 A 
ATOM      5  C   LIG    1        2.419   1.345  -0.135  0.00  0.00    -0.009 A 
ATOM      6  C   LIG    1        2.506  -0.035  -0.161  0.00  0.00    +0.007 A 
ATOM      7  C   LIG    1        1.358  -0.798  -0.256  0.00  0.00    +0.000 A 
ENDBRANCH   1   5
BRANCH   1   8
ATOM      8  O   LIG    1        3.509   3.378  -0.788  0.00  0.00    -0.485 OA
BRANCH   8   9
ATOM      9  C   LIG    1        4.630   3.915  -1.339  0.00  0.00    +0.141 A 
ATOM     10  C   LIG    1        5.842   3.250  -1.235  0.00  0.00    +0.067 A 
ATOM     11  C   LIG    1        6.981   3.798  -1.797  0.00  0.00    +0.045 A 
ATOM     12 CL   LIG    1        8.499   2.966  -1.668  0.00  0.00    -0.083 Cl
ATOM     13  C   LIG    1        6.910   5.010  -2.462  0.00  0.00    +0.021 A 
ATOM     14  C   LIG    1        5.703   5.675  -2.567  0.00  0.00    +0.025 A 
ATOM     15  C   LIG    1        4.561   5.127  -2.012  0.00  0.00    +0.083 A 
ATOM     16 CL   LIG    1        3.043   5.960  -2.150  0.00  0.00    -0.080 Cl
ENDBRANCH   8   9
ENDBRANCH   1   8
BRANCH   1  17
ATOM     17  C   LIG    1        3.927   2.530   1.436  0.00  0.00    -0.036 C 
BRANCH  17  18
ATOM     18  N   LIG    1        5.147   3.342   1.539  0.00  0.00    +0.381 N 
ATOM     19  H   LIG    1        6.001   2.771   1.145  0.00  0.00    -0.090 HD
ATOM     20  H   LIG    1        5.023   4.266   0.955  0.00  0.00    -0.090 HD
ATOM     21  H   LIG    1        5.331   3.596   2.593  0.00  0.00    -0.090 HD
ENDBRANCH  17  18
ENDBRANCH   1  17
TORSDOF 5
