REMARK  Name = ZINC28570371
REMARK                            x       y       z     vdW  Elec       q    Type
REMARK                         _______ _______ _______ _____ _____    ______ ____
ROOT
ATOM      1  C   UNK    1       -4.670   5.053  -1.466  0.00  0.00    +0.068 C 
ENDROOT
BRANCH   1   2
ATOM      2  S   UNK    1       -3.096   4.173  -1.658  0.00  0.00    -0.156 S 
BRANCH   2   3
ATOM      3  C   UNK    1       -2.553   3.869   0.046  0.00  0.00    +0.104 C 
BRANCH   3   8
ATOM      4  C   UNK    1        2.490   1.048  -0.016  0.00  0.00    +0.044 C 
ATOM      5  C   UNK    1        1.175   1.783   0.000  0.00  0.00    -0.048 A 
ATOM      6  C   UNK    1       -0.013   1.076   0.008  0.00  0.00    +0.004 A 
ATOM      7  C   UNK    1       -1.219   1.750   0.017  0.00  0.00    +0.005 A 
ATOM      8  C   UNK    1       -1.238   3.133   0.030  0.00  0.00    -0.037 A 
ATOM      9  C   UNK    1       -0.050   3.840   0.023  0.00  0.00    +0.008 A 
ATOM     10  C   UNK    1        1.157   3.165   0.008  0.00  0.00    -0.047 A 
ATOM     11  C   UNK    1        2.451   3.937  -0.001  0.00  0.00    +0.044 C 
ENDBRANCH   3   8
ENDBRANCH   2   3
ENDBRANCH   1   2
BRANCH   1  12
ATOM     12  C   UNK    1       -5.246   5.376  -2.846  0.00  0.00    +0.005 C 
BRANCH  12  13
ATOM     13  C   UNK    1       -6.574   6.119  -2.684  0.00  0.00    +0.036 C 
BRANCH  13  14
ATOM     14  N   UNK    1       -7.558   5.231  -2.050  0.00  0.00    +0.387 N 
ATOM     15  H   UNK    1       -7.709   4.342  -2.681  0.00  0.00    -0.089 HD
ATOM     16  H   UNK    1       -7.188   4.920  -1.062  0.00  0.00    -0.089 HD
ATOM     17  H   UNK    1       -8.512   5.764  -1.934  0.00  0.00    -0.089 HD
ENDBRANCH  13  14
BRANCH  13  18
ATOM     18  C   UNK    1       -7.080   6.544  -4.038  0.00  0.00    +0.290 C 
ATOM     19  O   UNK    1       -7.938   5.899  -4.592  0.00  0.00    -0.253 OA
BRANCH  18  20
ATOM     20  O   UNK    1       -6.578   7.640  -4.629  0.00  0.00    -0.482 OA
ATOM     21  H   UNK    1       -5.912   8.140  -4.199  0.00  0.00    +0.295 HD
ENDBRANCH  18  20
ENDBRANCH  13  18
ENDBRANCH  12  13
ENDBRANCH   1  12
TORSDOF 8
