REMARK  Name = ZINC29414525
REMARK                            x       y       z     vdW  Elec       q    Type
REMARK                         _______ _______ _______ _____ _____    ______ ____
ROOT
ATOM      1  C   LIG    1        1.423   1.615  -0.003  0.00  0.00    +0.073 C 
ENDROOT
BRANCH   1   2
ATOM      2  C   LIG    1        2.199   1.009   1.168  0.00  0.00    +0.260 C 
ATOM      3  F   LIG    1        2.215  -0.384   1.046  0.00  0.00    -0.204 F 
ATOM      4  F   LIG    1        1.580   1.365   2.372  0.00  0.00    -0.204 F 
BRANCH   2   5
ATOM      5  C   LIG    1        3.634   1.539   1.157  0.00  0.00    +0.153 C 
BRANCH   5   6
ATOM      6  N   LIG    1        4.379   0.957   2.282  0.00  0.00    -0.325 NA
ATOM      7  H   LIG    1        3.893   1.236   3.228  0.00  0.00    +0.118 HD
ATOM      8  H   LIG    1        5.411   1.338   2.274  0.00  0.00    +0.118 HD
ENDBRANCH   5   6
ENDBRANCH   2   5
ENDBRANCH   1   2
BRANCH   1   9
ATOM      9  C   LIG    1       -0.013   1.086   0.008  0.00  0.00    +0.008 C 
BRANCH   9  10
ATOM     10  N   LIG    1       -0.700   1.560   1.217  0.00  0.00    +0.387 N 
ATOM     11  H   LIG    1       -0.715   2.659   1.223  0.00  0.00    -0.088 HD
ATOM     12  H   LIG    1       -1.732   1.179   1.224  0.00  0.00    -0.088 HD
ATOM     13  H   LIG    1       -0.168   1.195   2.108  0.00  0.00    -0.088 HD
ENDBRANCH   9  10
BRANCH   9  15
ATOM     14  C   LIG    1       -1.292   1.962  -2.136  0.00  0.00    +0.002 C 
ATOM     15  C   LIG    1       -0.725   1.573  -1.185  0.00  0.00    -0.122 C 
ENDBRANCH   9  15
ENDBRANCH   1   9
TORSDOF 6
