REMARK  Name = ZINC13833593
REMARK                            x       y       z     vdW  Elec       q    Type
REMARK                         _______ _______ _______ _____ _____    ______ ____
ROOT
ATOM      1  C   LIG    1        2.446   1.629  -0.012  0.00  0.00    +0.270 C 
ENDROOT
BRANCH   1  11
ATOM      2  C   LIG    1        0.622   3.354   0.014  0.00  0.00    +0.292 C 
ATOM      3  N   LIG    1       -0.663   3.469   0.027  0.00  0.00    -0.069 NA
ATOM      4  C   LIG    1       -1.219   2.116   0.018  0.00  0.00    +0.249 C 
ATOM      5  C   LIG    1       -0.014   1.208   0.009  0.00  0.00    +0.356 C 
ATOM      6  O   LIG    1        0.002  -0.004   0.002  0.00  0.00    -0.242 OA
ATOM      7  C   LIG    1       -2.084   1.867   1.261  0.00  0.00    +0.069 C 
ATOM      8  C   LIG    1       -3.535   2.079   0.757  0.00  0.00    +0.005 C 
ATOM      9  C   LIG    1       -3.494   1.481  -0.672  0.00  0.00    +0.005 C 
ATOM     10  C   LIG    1       -2.101   1.878  -1.210  0.00  0.00    +0.069 C 
ATOM     11  N   LIG    1        1.044   2.051   0.003  0.00  0.00    -0.153 N 
BRANCH   2  12
ATOM     12  C   LIG    1        1.561   4.532   0.011  0.00  0.00    +0.128 C 
BRANCH  12  13
ATOM     13  C   LIG    1        0.752   5.830   0.025  0.00  0.00    +0.012 C 
BRANCH  13  15
ATOM     14  C   LIG    1        0.896   8.325   0.037  0.00  0.00    +0.004 C 
ATOM     15  C   LIG    1        1.706   7.026   0.023  0.00  0.00    -0.003 C 
ENDBRANCH  13  15
ENDBRANCH  12  13
ENDBRANCH   2  12
ENDBRANCH   1  11
BRANCH   1  16
ATOM     16  C   LIG    1        2.914   1.491  -1.438  0.00  0.00    -0.008 A 
ATOM     17  C   LIG    1        2.787   0.278  -2.091  0.00  0.00    +0.008 A 
ATOM     18  C   LIG    1        3.208   0.147  -3.398  0.00  0.00    +0.009 A 
ATOM     19  C   LIG    1        3.772   1.238  -4.059  0.00  0.00    -0.017 A 
ATOM     20  C   LIG    1        3.903   2.457  -3.394  0.00  0.00    +0.009 A 
ATOM     21  C   LIG    1        3.473   2.577  -2.088  0.00  0.00    +0.008 A 
BRANCH  19  22
ATOM     22  C   LIG    1        4.231   1.103  -5.461  0.00  0.00    -0.001 A 
ATOM     23  C   LIG    1        3.835   2.031  -6.420  0.00  0.00    +0.010 A 
ATOM     24  C   LIG    1        4.265   1.901  -7.725  0.00  0.00    +0.001 A 
ATOM     25  C   LIG    1        5.090   0.851  -8.091  0.00  0.00    +0.001 A 
ATOM     26  C   LIG    1        5.494  -0.079  -7.156  0.00  0.00    +0.019 A 
ATOM     27  C   LIG    1        5.074   0.039  -5.830  0.00  0.00    +0.059 A 
BRANCH  27  28
ATOM     28  C   LIG    1        5.494  -0.920  -4.854  0.00  0.00    +0.100 C 
ATOM     29  N   LIG    1        5.827  -1.681  -4.079  0.00  0.00    -0.191 NA
ENDBRANCH  27  28
ENDBRANCH  19  22
ENDBRANCH   1  16
TORSDOF 7
