REMARK  Name = ZINC43193842
REMARK                            x       y       z     vdW  Elec       q    Type
REMARK                         _______ _______ _______ _____ _____    ______ ____
ROOT
ATOM      1  C   LIG    1        2.695  -1.859  -4.733  0.00  0.00    +0.249 C 
ATOM      2  N   LIG    1        3.981  -1.519  -4.954  0.00  0.00    -0.265 N 
ATOM      3  H   LIG    1        4.452  -0.962  -4.315  0.00  0.00    +0.157 HD
ATOM      4  O   LIG    1        2.105  -2.558  -5.534  0.00  0.00    -0.270 OA
ENDROOT
BRANCH   2   5
ATOM      5  C   LIG    1        4.636  -1.971  -6.107  0.00  0.00    +0.144 A 
ATOM      6  C   LIG    1        4.091  -2.749  -7.077  0.00  0.00    +0.136 A 
ATOM      7  N   LIG    1        5.064  -2.959  -8.019  0.00  0.00    -0.303 N 
ATOM      8  C   LIG    1        5.073  -3.657  -9.193  0.00  0.00    +0.119 A 
ATOM      9  C   LIG    1        6.193  -3.707  -9.955  0.00  0.00    +0.064 A 
ATOM     10  C   LIG    1        7.361  -3.037  -9.541  0.00  0.00    +0.031 A 
ATOM     11  C   LIG    1        7.359  -2.340  -8.373  0.00  0.00    +0.049 A 
ATOM     12  C   LIG    1        6.186  -2.298  -7.594  0.00  0.00    +0.140 A 
ATOM     13  N   LIG    1        5.904  -1.704  -6.441  0.00  0.00    -0.213 NA
BRANCH   9  14
ATOM     14  N   LIG    1        6.189  -4.429 -11.160  0.00  0.00    -0.304 N 
ATOM     15  C   LIG    1        6.924  -5.552 -11.439  0.00  0.00    +0.112 A 
ATOM     16  C   LIG    1        6.617  -5.915 -12.699  0.00  0.00    +0.130 A 
ATOM     17  N   LIG    1        5.721  -5.042 -13.181  0.00  0.00    -0.244 NA
ATOM     18  C   LIG    1        5.452  -4.150 -12.265  0.00  0.00    +0.204 A 
ENDBRANCH   9  14
ENDBRANCH   2   5
BRANCH   1  22
ATOM     19  C   LIG    1        0.707  -0.490  -1.238  0.00  0.00    -0.042 A 
ATOM     20  C   LIG    1        0.033  -1.285  -2.147  0.00  0.00    +0.005 A 
ATOM     21  C   LIG    1        0.672  -1.733  -3.285  0.00  0.00    +0.013 A 
ATOM     22  C   LIG    1        2.003  -1.382  -3.517  0.00  0.00    +0.037 A 
ATOM     23  C   LIG    1        2.678  -0.580  -2.595  0.00  0.00    +0.013 A 
ATOM     24  C   LIG    1        2.025  -0.135  -1.464  0.00  0.00    +0.005 A 
BRANCH  19  26
ATOM     25  C   LIG    1       -0.019   1.526   0.010  0.00  0.00    +0.015 C 
ATOM     26  C   LIG    1        0.002  -0.004   0.002  0.00  0.00    -0.013 C 
ATOM     27  C   LIG    1       -1.433  -0.534   0.013  0.00  0.00    +0.015 C 
ATOM     28  C   LIG    1        0.742  -0.511   1.242  0.00  0.00    +0.015 C 
ENDBRANCH  19  26
ENDBRANCH   1  22
TORSDOF 4
