REMARK  Name = ZINC19808478
REMARK                            x       y       z     vdW  Elec       q    Type
REMARK                         _______ _______ _______ _____ _____    ______ ____
ROOT
ATOM      1  C   LIG    1       -0.572  -5.052   1.218  0.00  0.00    +0.392 C 
ATOM      2  N   LIG    1       -0.560  -4.357   2.320  0.00  0.00    -0.129 NA
ATOM      3  H   LIG    1       -0.021  -4.649   3.071  0.00  0.00    +0.306 HD
ENDROOT
BRANCH   1   4
ATOM      4  N   LIG    1       -1.253  -4.585   0.117  0.00  0.00    -0.243 N 
ATOM      5  H   LIG    1       -1.331  -5.138  -0.675  0.00  0.00    +0.265 HD
BRANCH   4  10
ATOM      6  C   LIG    1       -3.603   0.578   0.212  0.00  0.00    +0.045 C 
ATOM      7  C   LIG    1       -2.979  -0.793   0.187  0.00  0.00    -0.032 A 
ATOM      8  C   LIG    1       -2.431  -1.281  -0.985  0.00  0.00    +0.008 A 
ATOM      9  C   LIG    1       -1.858  -2.537  -1.011  0.00  0.00    +0.042 A 
ATOM     10  C   LIG    1       -1.832  -3.312   0.141  0.00  0.00    +0.101 A 
ATOM     11  C   LIG    1       -2.383  -2.820   1.317  0.00  0.00    +0.062 A 
ATOM     12  C   LIG    1       -2.950  -1.560   1.339  0.00  0.00    +0.047 A 
ATOM     13 CL   LIG    1       -3.633  -0.941   2.810  0.00  0.00    -0.083 Cl
ENDBRANCH   4  10
ENDBRANCH   1   4
BRANCH   1  14
ATOM     14  N   LIG    1        0.100  -6.256   1.155  0.00  0.00    -0.189 N 
ATOM     15  H   LIG    1        0.499  -6.632   1.955  0.00  0.00    +0.271 HD
BRANCH  14  16
ATOM     16  C   LIG    1        0.202  -6.923  -0.041  0.00  0.00    +0.350 C 
ATOM     17  N   LIG    1        0.415  -8.237  -0.054  0.00  0.00    -0.291 N 
ATOM     18  H   LIG    1        0.487  -8.708  -0.899  0.00  0.00    +0.255 HD
ATOM     19  H   LIG    1        0.499  -8.723   0.781  0.00  0.00    +0.255 HD
BRANCH  16  20
ATOM     20  N   LIG    1        0.086  -6.256  -1.187  0.00  0.00    -0.291 N 
ATOM     21  H   LIG    1       -0.057  -6.738  -2.017  0.00  0.00    +0.255 HD
ATOM     22  H   LIG    1        0.146  -5.288  -1.193  0.00  0.00    +0.255 HD
ENDBRANCH  16  20
ENDBRANCH  14  16
ENDBRANCH   1  14
TORSDOF 5
