REMARK  Name = ZINC21992002
REMARK                            x       y       z     vdW  Elec       q    Type
REMARK                         _______ _______ _______ _____ _____    ______ ____
ROOT
ATOM      1  C   LIG    1        4.171  -0.963   1.399  0.00  0.00    +0.271 C 
ENDROOT
BRANCH   1   2
ATOM      2  P   LIG    1        5.762  -1.853   1.378  0.00  0.00    +0.371 P 
ATOM      3  O   LIG    1        5.588  -3.202   0.644  0.00  0.00    -0.255 OA
BRANCH   2   4
ATOM      4  O   LIG    1        6.247  -2.123   2.889  0.00  0.00    -0.322 OA
ATOM      5  H   LIG    1        7.089  -2.594   2.955  0.00  0.00    +0.220 HD
ENDBRANCH   2   4
BRANCH   2   6
ATOM      6  O   LIG    1        6.820  -1.000   0.643  0.00  0.00    -0.322 OA
ATOM      7  H   LIG    1        6.528  -0.838  -0.268  0.00  0.00    +0.220 HD
ENDBRANCH   2   6
ENDBRANCH   1   2
BRANCH   1   8
ATOM      8  P   LIG    1        2.923  -1.970   2.266  0.00  0.00    +0.371 P 
ATOM      9  O   LIG    1        1.593  -1.154   2.397  0.00  0.00    -0.255 OA
BRANCH   8  10
ATOM     10  O   LIG    1        3.451  -2.340   3.694  0.00  0.00    -0.322 OA
ATOM     11  H   LIG    1        3.618  -1.527   4.198  0.00  0.00    +0.220 HD
ENDBRANCH   8  10
BRANCH   8  12
ATOM     12  O   LIG    1        2.654  -3.282   1.454  0.00  0.00    -0.322 OA
ATOM     13  H   LIG    1        2.327  -3.053   0.569  0.00  0.00    +0.220 HD
ENDBRANCH   8  12
ENDBRANCH   1   8
BRANCH   1  14
ATOM     14  O   LIG    1        4.332   0.284   2.077  0.00  0.00    -0.367 OA
ATOM     15  H   LIG    1        4.983   0.872   1.670  0.00  0.00    +0.212 HD
ENDBRANCH   1  14
BRANCH   1  16
ATOM     16  C   LIG    1        3.711  -0.707  -0.038  0.00  0.00    +0.095 C 
BRANCH  16  20
ATOM     17  C   LIG    1       -0.017   1.378   0.010  0.00  0.00    +0.000 A 
ATOM     18  C   LIG    1        1.171   2.086   0.002  0.00  0.00    +0.000 A 
ATOM     19  C   LIG    1        2.377   1.411  -0.013  0.00  0.00    +0.004 A 
ATOM     20  C   LIG    1        2.396   0.029  -0.020  0.00  0.00    -0.043 A 
ATOM     21  C   LIG    1        1.208  -0.679  -0.012  0.00  0.00    +0.004 A 
ATOM     22  C   LIG    1        0.002  -0.004   0.002  0.00  0.00    +0.000 A 
ENDBRANCH  16  20
ENDBRANCH   1  16
TORSDOF 9
