REMARK  Name = ZINC13779559
REMARK                            x       y       z     vdW  Elec       q    Type
REMARK                         _______ _______ _______ _____ _____    ______ ____
ROOT
ATOM      1  C   LIG    1       -0.846  -2.705  -0.917  0.00  0.00    +0.008 C 
ATOM      2  C   LIG    1       -1.457  -2.040   0.319  0.00  0.00    -0.009 C 
ATOM      3  C   LIG    1       -0.647  -2.426   1.558  0.00  0.00    +0.004 C 
ATOM      4  C   LIG    1       -1.258  -1.761   2.793  0.00  0.00    +0.000 C 
ATOM      5  C   LIG    1       -1.231  -0.241   2.620  0.00  0.00    +0.000 C 
ATOM      6  C   LIG    1       -2.040   0.145   1.381  0.00  0.00    +0.006 C 
ATOM      7  C   LIG    1       -1.430  -0.520   0.145  0.00  0.00    -0.032 C 
ENDROOT
BRANCH   7   8
ATOM      8  C   LIG    1        0.017  -0.051  -0.024  0.00  0.00    -0.079 C 
BRANCH   8   9
ATOM      9  N   LIG    1        0.043   1.422  -0.041  0.00  0.00    +0.378 N 
ATOM     10  H   LIG    1       -0.397   1.777   0.816  0.00  0.00    -0.090 HD
ATOM     11  H   LIG    1       -0.471   1.771  -0.848  0.00  0.00    -0.090 HD
ATOM     12  H   LIG    1        1.006   1.753  -0.083  0.00  0.00    -0.090 HD
ENDBRANCH   8   9
ENDBRANCH   7   8
BRANCH   7  13
ATOM     13  C   LIG    1       -2.239  -0.134  -1.094  0.00  0.00    +0.125 C 
BRANCH  13  14
ATOM     14  C   LIG    1       -3.676  -0.548  -0.906  0.00  0.00    +0.305 C 
ATOM     15  O   LIG    1       -3.997  -1.186   0.069  0.00  0.00    -0.251 OA
BRANCH  14  16
ATOM     16  O   LIG    1       -4.598  -0.209  -1.820  0.00  0.00    -0.481 OA
ATOM     17  H   LIG    1       -4.348   0.286  -2.576  0.00  0.00    +0.295 HD
ENDBRANCH  14  16
ENDBRANCH  13  14
ENDBRANCH   7  13
TORSDOF 5
