REMARK  Name = ZINC36330618
REMARK                            x       y       z     vdW  Elec       q    Type
REMARK                         _______ _______ _______ _____ _____    ______ ____
ROOT
ATOM      1  N   LIG    1       -3.361  -6.704   0.927  0.00  0.00    -0.299 N 
ATOM      2  H   LIG    1       -4.136  -6.124   0.986  0.00  0.00    +0.150 HD
ATOM      3  C   LIG    1       -3.524  -8.038   0.827  0.00  0.00    +0.300 C 
ATOM      4  N   LIG    1       -4.764  -8.566   0.810  0.00  0.00    -0.294 N 
ATOM      5  H   LIG    1       -5.539  -7.987   0.870  0.00  0.00    +0.151 HD
ATOM      6  O   LIG    1       -2.552  -8.765   0.753  0.00  0.00    -0.253 OA
ENDROOT
BRANCH   4   7
ATOM      7  C   LIG    1       -4.941 -10.017   0.702  0.00  0.00    +0.037 C 
ATOM      8  C   LIG    1       -4.310 -10.512  -0.601  0.00  0.00    +0.029 C 
ATOM      9  C   LIG    1       -4.495 -12.026  -0.714  0.00  0.00    -0.008 C 
ATOM     10  C   LIG    1       -5.988 -12.360  -0.711  0.00  0.00    +0.007 C 
ATOM     11  C   LIG    1       -6.618 -11.865   0.592  0.00  0.00    -0.008 C 
ATOM     12  C   LIG    1       -5.940 -12.551   1.779  0.00  0.00    +0.007 C 
ATOM     13  C   LIG    1       -4.447 -12.218   1.777  0.00  0.00    -0.008 C 
ATOM     14  C   LIG    1       -3.817 -12.713   0.473  0.00  0.00    +0.007 C 
ATOM     15  C   LIG    1       -4.263 -10.703   1.889  0.00  0.00    +0.029 C 
ATOM     16  C   LIG    1       -6.434 -10.350   0.705  0.00  0.00    +0.029 C 
ENDBRANCH   4   7
BRANCH   1  17
ATOM     17  C   LIG    1       -2.014  -6.130   0.945  0.00  0.00    +0.109 C 
BRANCH  17  22
ATOM     18  N   LIG    1       -1.413  -2.002   0.005  0.00  0.00    +0.380 N 
ATOM     19  H   LIG    1       -0.873  -2.326  -0.783  0.00  0.00    -0.082 HD
ATOM     20  C   LIG    1       -0.802  -2.489   1.247  0.00  0.00    -0.079 C 
ATOM     21  C   LIG    1       -0.705  -4.016   1.209  0.00  0.00    -0.014 C 
ATOM     22  C   LIG    1       -2.110  -4.607   1.064  0.00  0.00    +0.003 C 
ATOM     23  C   LIG    1       -2.766  -4.036  -0.196  0.00  0.00    -0.014 C 
ATOM     24  C   LIG    1       -2.787  -2.508  -0.105  0.00  0.00    -0.079 C 
BRANCH  18  25
ATOM     25  C   LIG    1       -1.433  -0.534   0.013  0.00  0.00    -0.079 C 
BRANCH  25  27
ATOM     26  C   LIG    1       -0.019   1.526   0.010  0.00  0.00    +0.002 C 
ATOM     27  C   LIG    1        0.002  -0.004   0.002  0.00  0.00    -0.022 C 
ENDBRANCH  25  27
ENDBRANCH  18  25
ENDBRANCH  17  22
ENDBRANCH   1  17
TORSDOF 5
