REMARK  Name = ZINC68203217
REMARK                            x       y       z     vdW  Elec       q    Type
REMARK                         _______ _______ _______ _____ _____    ______ ____
ROOT
ATOM      1  C   LIG    1        1.912  -1.167   1.077  0.00  0.00    +0.127 A 
ATOM      2  C   LIG    1        2.475  -1.391  -0.179  0.00  0.00    +0.072 A 
ATOM      3  C   LIG    1        3.688  -2.073  -0.248  0.00  0.00    +0.078 A 
ATOM      4  N   LIG    1        4.265  -2.485   0.882  0.00  0.00    -0.214 NA
ATOM      5  C   LIG    1        3.699  -2.254   2.055  0.00  0.00    +0.217 A 
ATOM      6  N   LIG    1        2.549  -1.604   2.159  0.00  0.00    -0.200 NA
ENDROOT
BRANCH   3   7
ATOM      7  C   LIG    1        4.329  -2.336  -1.558  0.00  0.00    +0.003 A 
ATOM      8  C   LIG    1        3.702  -1.885  -2.735  0.00  0.00    +0.011 A 
ATOM      9  C   LIG    1        4.248  -2.101  -3.957  0.00  0.00    +0.014 A 
ATOM     10  C   LIG    1        5.471  -2.791  -4.067  0.00  0.00    +0.039 A 
ATOM     11  C   LIG    1        6.285  -3.173  -5.130  0.00  0.00    +0.118 A 
ATOM     12  N   LIG    1        7.346  -3.820  -4.620  0.00  0.00    -0.286 N 
ATOM     13  H   LIG    1        8.073  -4.195  -5.142  0.00  0.00    +0.188 HD
ATOM     14  N   LIG    1        7.248  -3.874  -3.226  0.00  0.00    -0.298 N 
ATOM     15  H   LIG    1        7.894  -4.289  -2.633  0.00  0.00    +0.187 HD
ATOM     16  C   LIG    1        6.137  -3.268  -2.845  0.00  0.00    +0.066 A 
ATOM     17  C   LIG    1        5.529  -3.013  -1.599  0.00  0.00    +0.037 A 
BRANCH  11  18
ATOM     18  N   LIG    1        6.043  -2.930  -6.474  0.00  0.00    -0.343 N 
ATOM     19  H   LIG    1        6.673  -3.238  -7.143  0.00  0.00    +0.144 HD
ATOM     20  H   LIG    1        5.243  -2.452  -6.744  0.00  0.00    +0.144 HD
ENDBRANCH  11  18
ENDBRANCH   3   7
BRANCH   1  27
ATOM     21  C   LIG    1       -0.163   1.308  -0.221  0.00  0.00    +0.028 C 
ATOM     22  C   LIG    1       -0.109  -0.203   0.007  0.00  0.00    +0.072 C 
ATOM     23  C   LIG    1       -1.526  -0.739   0.235  0.00  0.00    +0.023 C 
ATOM     24  C   LIG    1       -2.084  -0.156   1.536  0.00  0.00    +0.016 C 
ATOM     25  C   LIG    1       -1.208  -0.594   2.711  0.00  0.00    +0.092 C 
ATOM     26  C   LIG    1        0.213  -0.056   2.511  0.00  0.00    +0.119 C 
ATOM     27  N   LIG    1        0.706  -0.494   1.195  0.00  0.00    -0.312 N 
BRANCH  25  28
ATOM     28  C   LIG    1       -1.777  -0.047   3.994  0.00  0.00    +0.218 C 
ATOM     29  N   LIG    1       -3.025  -0.384   4.376  0.00  0.00    -0.312 N 
ATOM     30  H   LIG    1       -3.556  -0.980   3.825  0.00  0.00    +0.149 HD
ATOM     31  O   LIG    1       -1.113   0.698   4.684  0.00  0.00    -0.275 OA
BRANCH  29  32
ATOM     32  C   LIG    1       -3.579   0.148   5.624  0.00  0.00    +0.073 C 
ATOM     33  C   LIG    1       -3.140  -0.735   6.794  0.00  0.00    +0.022 C 
ATOM     34  C   LIG    1       -3.718  -0.179   8.097  0.00  0.00    +0.002 C 
ATOM     35  C   LIG    1       -5.245  -0.167   8.012  0.00  0.00    +0.000 C 
ATOM     36  C   LIG    1       -5.684   0.716   6.842  0.00  0.00    +0.002 C 
ATOM     37  C   LIG    1       -5.106   0.160   5.539  0.00  0.00    +0.022 C 
ENDBRANCH  29  32
ENDBRANCH  25  28
ENDBRANCH   1  27
BRANCH   5  38
ATOM     38  N   LIG    1        4.327  -2.698   3.205  0.00  0.00    -0.316 N 
ATOM     39  H   LIG    1        3.924  -2.535   4.072  0.00  0.00    +0.149 HD
ATOM     40  C   LIG    1        5.602  -3.413   3.114  0.00  0.00    +0.128 C 
ENDBRANCH   5  38
TORSDOF 6
