REMARK  Name = ZINC00002281
REMARK                            x       y       z     vdW  Elec       q    Type
REMARK                         _______ _______ _______ _____ _____    ______ ____
ROOT
ATOM      1  C   LIG    1        2.784  -0.463  -2.476  0.00  0.00    +0.128 C 
ENDROOT
BRANCH   1   2
ATOM      2  C   LIG    1        4.231  -0.045  -2.427  0.00  0.00    -0.014 A 
ATOM      3  C   LIG    1        4.588   1.247  -2.765  0.00  0.00    +0.051 A 
ATOM      4  C   LIG    1        5.919   1.634  -2.721  0.00  0.00    +0.121 A 
ATOM      5  C   LIG    1        6.892   0.724  -2.337  0.00  0.00    +0.090 A 
ATOM      6  C   LIG    1        6.532  -0.571  -1.999  0.00  0.00    +0.121 A 
ATOM      7  C   LIG    1        5.198  -0.952  -2.039  0.00  0.00    +0.051 A 
BRANCH   4   8
ATOM      8  O   LIG    1        6.269   2.904  -3.054  0.00  0.00    -0.507 OA
ATOM      9  H   LIG    1        6.271   3.520  -2.309  0.00  0.00    +0.292 HD
ENDBRANCH   4   8
BRANCH   6  10
ATOM     10  O   LIG    1        7.484  -1.465  -1.623  0.00  0.00    -0.507 OA
ATOM     11  H   LIG    1        7.659  -1.476  -0.672  0.00  0.00    +0.292 HD
ENDBRANCH   6  10
ENDBRANCH   1   2
BRANCH   1  12
ATOM     12  O   LIG    1        2.163   0.105  -3.631  0.00  0.00    -0.389 OA
ATOM     13  H   LIG    1        2.181   1.072  -3.652  0.00  0.00    +0.210 HD
ENDBRANCH   1  12
BRANCH   1  14
ATOM     14  C   LIG    1        2.068   0.031  -1.217  0.00  0.00    -0.045 C 
BRANCH  14  15
ATOM     15  N   LIG    1        0.690  -0.478  -1.207  0.00  0.00    +0.384 N 
ATOM     16  H   LIG    1        0.202  -0.144  -2.024  0.00  0.00    -0.085 HD
ATOM     17  H   LIG    1        0.703  -1.487  -1.212  0.00  0.00    -0.085 HD
BRANCH  15  19
ATOM     18  C   LIG    1       -0.019   1.526   0.010  0.00  0.00    -0.011 C 
ATOM     19  C   LIG    1        0.002  -0.004   0.002  0.00  0.00    -0.077 C 
ATOM     20  C   LIG    1       -1.433  -0.534   0.013  0.00  0.00    -0.011 C 
ATOM     21  C   LIG    1        0.742  -0.511   1.242  0.00  0.00    -0.011 C 
ENDBRANCH  15  19
ENDBRANCH  14  15
ENDBRANCH   1  14
TORSDOF 7
