REMARK  Name = ZINC18128389
REMARK                            x       y       z     vdW  Elec       q    Type
REMARK                         _______ _______ _______ _____ _____    ______ ____
ROOT
ATOM      1  C   LIG    1        3.960  -3.261  -0.055  0.00  0.00    +0.071 A 
ATOM      2  C   LIG    1        4.483  -3.959  -1.244  0.00  0.00    +0.013 A 
ATOM      3  C   LIG    1        4.338  -3.766  -2.616  0.00  0.00    +0.012 A 
ATOM      4  C   LIG    1        4.974  -4.614  -3.496  0.00  0.00    +0.016 A 
ATOM      5  C   LIG    1        5.755  -5.658  -3.020  0.00  0.00    +0.020 A 
ATOM      6 BR   LIG    1        6.620  -6.813  -4.242  0.00  0.00    -0.050 Br
ATOM      7  C   LIG    1        5.906  -5.861  -1.664  0.00  0.00    +0.041 A 
ATOM      8  C   LIG    1        5.273  -5.015  -0.760  0.00  0.00    +0.051 A 
ATOM      9  N   LIG    1        5.240  -4.971   0.622  0.00  0.00    -0.325 N 
ATOM     10  H   LIG    1        5.704  -5.590   1.207  0.00  0.00    +0.169 HD
ATOM     11  C   LIG    1        4.470  -3.932   1.046  0.00  0.00    +0.201 A 
ENDROOT
BRANCH   1  18
ATOM     12  C   LIG    1       -0.017   1.379   0.010  0.00  0.00    +0.001 A 
ATOM     13  C   LIG    1        1.171   2.091   0.002  0.00  0.00    +0.002 A 
ATOM     14  C   LIG    1        2.385   1.439  -0.013  0.00  0.00    +0.028 A 
ATOM     15  C   LIG    1        2.429   0.040  -0.021  0.00  0.00    +0.074 A 
ATOM     16  C   LIG    1        1.214  -0.675  -0.013  0.00  0.00    +0.031 A 
ATOM     17  C   LIG    1        1.594  -2.109  -0.025  0.00  0.00    +0.138 C 
ATOM     18  C   LIG    1        3.082  -2.088  -0.040  0.00  0.00    +0.106 C 
ATOM     19  N   LIG    1        0.807  -3.147  -0.023  0.00  0.00    -0.085 NA
ATOM     20  N   LIG    1        3.470  -0.832  -0.037  0.00  0.00    -0.244 NA
ATOM     21  C   LIG    1        0.002  -0.004   0.002  0.00  0.00    +0.012 A 
BRANCH  19  22
ATOM     22  O   LIG    1       -0.598  -2.970  -0.007  0.00  0.00    -0.409 OA
ATOM     23  H   LIG    1       -1.098  -3.797  -0.007  0.00  0.00    +0.328 HD
ENDBRANCH  19  22
ENDBRANCH   1  18
BRANCH  11  24
ATOM     24  O   LIG    1        4.236  -3.608   2.337  0.00  0.00    -0.493 OA
ATOM     25  H   LIG    1        3.461  -4.042   2.718  0.00  0.00    +0.294 HD
ENDBRANCH  11  24
TORSDOF 3
