REMARK  Name = ZINC17293205
REMARK                            x       y       z     vdW  Elec       q    Type
REMARK                         _______ _______ _______ _____ _____    ______ ____
ROOT
ATOM      1  C   LIG    1        2.552   7.742  -0.263  0.00  0.00    +0.163 A 
ATOM      2  C   LIG    1        1.241   8.190  -0.242  0.00  0.00    +0.064 A 
ATOM      3  C   LIG    1        0.194   7.288  -0.141  0.00  0.00    +0.022 A 
ATOM      4 BR   LIG    1       -1.589   7.916  -0.114  0.00  0.00    -0.050 Br
ATOM      5  C   LIG    1        0.445   5.935  -0.066  0.00  0.00    +0.027 A 
ATOM      6  C   LIG    1        1.765   5.467  -0.081  0.00  0.00    +0.022 A 
ATOM      7  C   LIG    1        2.824   6.382  -0.183  0.00  0.00    +0.166 A 
ENDROOT
BRANCH   6   8
ATOM      8  C   LIG    1        2.039   4.027   0.004  0.00  0.00    +0.032 C 
ATOM      9  C   LIG    1        1.056   3.132  -0.273  0.00  0.00    +0.080 C 
ATOM     10  C   LIG    1        1.050   1.664  -0.116  0.00  0.00    +0.258 C 
ATOM     11  N   LIG    1       -0.059   1.036  -0.469  0.00  0.00    -0.243 N 
ATOM     12  H   LIG    1       -0.105   0.071  -0.382  0.00  0.00    +0.159 HD
ATOM     13  C   LIG    1       -1.125   1.705  -0.953  0.00  0.00    +0.283 C 
ATOM     14  O   LIG    1       -2.196   1.258  -1.317  0.00  0.00    -0.262 OA
ATOM     15  O   LIG    1        2.015   1.063   0.317  0.00  0.00    -0.269 OA
ATOM     16  S   LIG    1       -0.584   3.407  -0.926  0.00  0.00    -0.026 S 
ENDBRANCH   6   8
BRANCH   7  17
ATOM     17  O   LIG    1        4.108   5.940  -0.203  0.00  0.00    -0.503 OA
ATOM     18  H   LIG    1        4.446   5.753  -1.089  0.00  0.00    +0.292 HD
ENDBRANCH   7  17
BRANCH   1  19
ATOM     19  O   LIG    1        3.574   8.635  -0.361  0.00  0.00    -0.489 OA
BRANCH  19  21
ATOM     20  C   LIG    1        4.494  10.862  -0.545  0.00  0.00    +0.048 C 
ATOM     21  C   LIG    1        3.222  10.018  -0.440  0.00  0.00    +0.226 C 
ENDBRANCH  19  21
ENDBRANCH   1  19
TORSDOF 4
