REMARK  Name = ZINC28476236
REMARK                            x       y       z     vdW  Elec       q    Type
REMARK                         _______ _______ _______ _____ _____    ______ ____
ROOT
ATOM      1  C   LIG    1        0.230  -0.019   0.177  0.00  0.00    +0.008 C 
ATOM      2  C   LIG    1        1.477  -0.900   0.073  0.00  0.00    +0.021 C 
ATOM      3  C   LIG    1        0.532  -0.768  -1.123  0.00  0.00    +0.056 C 
ENDROOT
BRANCH   1   5
ATOM      4  C   LIG    1       -0.927   2.195   0.153  0.00  0.00    +0.007 C 
ATOM      5  C   LIG    1        0.434   1.497   0.183  0.00  0.00    -0.013 C 
ATOM      6  C   LIG    1        1.189   1.905   1.450  0.00  0.00    +0.007 C 
ENDBRANCH   1   5
BRANCH   3   7
ATOM      7  C   LIG    1       -0.334  -1.954  -1.460  0.00  0.00    +0.309 C 
ATOM      8  O   LIG    1       -1.227  -2.282  -0.715  0.00  0.00    -0.250 OA
BRANCH   7   9
ATOM      9  O   LIG    1       -0.113  -2.647  -2.588  0.00  0.00    -0.480 OA
ATOM     10  H   LIG    1        0.579  -2.393  -3.166  0.00  0.00    +0.295 HD
ENDBRANCH   7   9
ENDBRANCH   3   7
BRANCH   3  11
ATOM     11  C   LIG    1        1.015   0.057  -2.317  0.00  0.00    -0.068 C 
BRANCH  11  12
ATOM     12  N   LIG    1        1.379  -0.843  -3.419  0.00  0.00    +0.379 N 
ATOM     13  H   LIG    1        2.183  -1.518  -3.091  0.00  0.00    -0.090 HD
ATOM     14  H   LIG    1        0.501  -1.436  -3.714  0.00  0.00    -0.090 HD
ATOM     15  H   LIG    1        1.727  -0.250  -4.278  0.00  0.00    -0.090 HD
ENDBRANCH  11  12
ENDBRANCH   3  11
TORSDOF 5
