REMARK  Name = ZINC16052637
REMARK                            x       y       z     vdW  Elec       q    Type
REMARK                         _______ _______ _______ _____ _____    ______ ____
ROOT
ATOM      1  C   LIG    1        1.171   1.670  -0.000  0.00  0.00    +0.152 C 
ATOM      2  N   LIG    1        2.371   1.181  -0.009  0.00  0.00    -0.254 NA
ATOM      3  C   LIG    1        3.551   2.038   0.024  0.00  0.00    +0.178 C 
ATOM      4  C   LIG    1        4.399   1.634   1.210  0.00  0.00    +0.173 C 
ATOM      5  C   LIG    1        5.177   2.763   1.844  0.00  0.00    +0.176 C 
ATOM      6  C   LIG    1        4.289   3.975   2.076  0.00  0.00    +0.176 C 
ATOM      7  O   LIG    1        3.720   4.400   0.864  0.00  0.00    -0.355 OA
ATOM      8  C   LIG    1        3.194   3.511  -0.054  0.00  0.00    +0.210 C 
ATOM      9  S   LIG    1        1.366   3.442   0.008  0.00  0.00    -0.057 S 
ENDROOT
BRANCH   1  10
ATOM     10  N   LIG    1       -0.011   0.966   0.007  0.00  0.00    -0.324 N 
ATOM     11  H   LIG    1        0.002  -0.004   0.002  0.00  0.00    +0.148 HD
BRANCH  10  13
ATOM     12  C   LIG    1       -2.439   0.671   0.017  0.00  0.00    +0.024 C 
ATOM     13  C   LIG    1       -1.290   1.681   0.017  0.00  0.00    +0.100 C 
ENDBRANCH  10  13
ENDBRANCH   1  10
BRANCH   4  14
ATOM     14  O   LIG    1        5.327   0.634   0.782  0.00  0.00    -0.387 OA
ATOM     15  H   LIG    1        5.913   0.317   1.482  0.00  0.00    +0.210 HD
ENDBRANCH   4  14
BRANCH   5  16
ATOM     16  O   LIG    1        5.707   2.322   3.096  0.00  0.00    -0.387 OA
ATOM     17  H   LIG    1        6.220   2.995   3.564  0.00  0.00    +0.210 HD
ENDBRANCH   5  16
BRANCH   6  18
ATOM     18  C   LIG    1        5.130   5.111   2.663  0.00  0.00    +0.190 C 
BRANCH  18  19
ATOM     19  O   LIG    1        4.280   6.211   2.992  0.00  0.00    -0.392 OA
ATOM     20  H   LIG    1        4.747   6.969   3.370  0.00  0.00    +0.210 HD
ENDBRANCH  18  19
ENDBRANCH   6  18
TORSDOF 6
