REMARK  Name = ZINC00058069
REMARK                            x       y       z     vdW  Elec       q    Type
REMARK                         _______ _______ _______ _____ _____    ______ ____
ROOT
ATOM      1  C   LIG    1        3.697  -0.687  -0.038  0.00  0.00    +0.067 A 
ATOM      2  C   LIG    1        4.086  -1.477   1.015  0.00  0.00    +0.027 A 
ATOM      3  C   LIG    1        5.354  -2.111   0.947  0.00  0.00    +0.018 A 
ATOM      4  C   LIG    1        5.716  -3.081   1.893  0.00  0.00    +0.015 A 
ATOM      5  C   LIG    1        6.921  -3.712   1.793  0.00  0.00    +0.046 A 
ATOM      6  C   LIG    1        7.801  -3.396   0.760  0.00  0.00    +0.120 A 
ATOM      7  C   LIG    1        7.470  -2.427  -0.173  0.00  0.00    +0.092 A 
ATOM      8  C   LIG    1        6.252  -1.771  -0.082  0.00  0.00    +0.143 A 
ATOM      9  O   LIG    1        5.932  -0.792  -0.963  0.00  0.00    -0.422 OA
ATOM     10  C   LIG    1        4.611  -0.587  -1.188  0.00  0.00    +0.345 A 
ATOM     11  O   LIG    1        4.194  -0.324  -2.301  0.00  0.00    -0.245 OA
ENDROOT
BRANCH   1  15
ATOM     12  C   LIG    1       -0.017   1.379   0.010  0.00  0.00    +0.000 A 
ATOM     13  C   LIG    1        1.169   2.093   0.002  0.00  0.00    +0.001 A 
ATOM     14  C   LIG    1        2.377   1.427  -0.013  0.00  0.00    +0.009 A 
ATOM     15  C   LIG    1        2.403   0.033  -0.021  0.00  0.00    -0.011 A 
ATOM     16  C   LIG    1        1.205  -0.680  -0.013  0.00  0.00    +0.009 A 
ATOM     17  C   LIG    1        0.002  -0.004   0.002  0.00  0.00    +0.001 A 
ENDBRANCH   1  15
BRANCH   6  18
ATOM     18  O   LIG    1        8.992  -4.040   0.668  0.00  0.00    -0.507 OA
ATOM     19  H   LIG    1        8.963  -4.845   0.133  0.00  0.00    +0.292 HD
ENDBRANCH   6  18
TORSDOF 2
