REMARK  Name = ZINC44410189
REMARK                            x       y       z     vdW  Elec       q    Type
REMARK                         _______ _______ _______ _____ _____    ______ ____
ROOT
ATOM      1  N   LIG    1        5.363  -1.736  -1.702  0.00  0.00    -0.308 N 
ATOM      2  H   LIG    1        6.101  -1.538  -1.104  0.00  0.00    +0.149 HD
ATOM      3  C   LIG    1        5.608  -2.099  -2.976  0.00  0.00    +0.244 C 
ATOM      4  O   LIG    1        4.684  -2.347  -3.726  0.00  0.00    -0.270 OA
ENDROOT
BRANCH   3   5
ATOM      5  C   LIG    1        7.001  -2.196  -3.463  0.00  0.00    +0.037 A 
ATOM      6  C   LIG    1        8.063  -1.917  -2.601  0.00  0.00    +0.014 A 
ATOM      7  C   LIG    1        9.361  -2.007  -3.054  0.00  0.00    +0.019 A 
ATOM      8  C   LIG    1        9.614  -2.378  -4.376  0.00  0.00    +0.052 A 
ATOM      9  C   LIG    1        8.552  -2.657  -5.239  0.00  0.00    +0.019 A 
ATOM     10  C   LIG    1        7.255  -2.572  -4.784  0.00  0.00    +0.014 A 
BRANCH   8  11
ATOM     11  C   LIG    1       10.963  -2.471  -4.848  0.00  0.00    +0.099 C 
ATOM     12  N   LIG    1       12.033  -2.545  -5.222  0.00  0.00    -0.191 NA
ENDBRANCH   8  11
ENDBRANCH   3   5
BRANCH   1  15
ATOM     13  C   LIG    1        3.711  -0.707  -0.038  0.00  0.00    +0.041 C 
ATOM     14  C   LIG    1        3.675  -2.224   0.162  0.00  0.00    +0.033 C 
ATOM     15  C   LIG    1        3.983  -1.640  -1.219  0.00  0.00    +0.081 C 
BRANCH  13  19
ATOM     16  C   LIG    1       -0.017   1.378   0.010  0.00  0.00    +0.000 A 
ATOM     17  C   LIG    1        1.171   2.086   0.002  0.00  0.00    +0.000 A 
ATOM     18  C   LIG    1        2.377   1.411  -0.013  0.00  0.00    +0.004 A 
ATOM     19  C   LIG    1        2.396   0.029  -0.020  0.00  0.00    -0.042 A 
ATOM     20  C   LIG    1        1.208  -0.679  -0.012  0.00  0.00    +0.004 A 
ATOM     21  C   LIG    1        0.002  -0.004   0.002  0.00  0.00    +0.000 A 
ENDBRANCH  13  19
ENDBRANCH   1  15
TORSDOF 4
