REMARK  Name = ZINC71318831
REMARK                            x       y       z     vdW  Elec       q    Type
REMARK                         _______ _______ _______ _____ _____    ______ ____
ROOT
ATOM      1  N   LIG    1        0.881  -2.129   1.930  0.00  0.00    -0.276 N 
ATOM      2  C   LIG    1        1.942  -2.795   2.426  0.00  0.00    +0.256 A 
ATOM      3  C   LIG    1        1.998  -4.203   2.385  0.00  0.00    +0.071 A 
ATOM      4  C   LIG    1        0.975  -4.911   1.842  0.00  0.00    +0.017 A 
ATOM      5  C   LIG    1       -0.143  -4.214   1.319  0.00  0.00    +0.018 A 
ATOM      6  C   LIG    1       -1.230  -4.900   0.745  0.00  0.00    +0.121 A 
ATOM      7  N   LIG    1       -2.267  -4.255   0.277  0.00  0.00    -0.254 NA
ATOM      8  C   LIG    1       -2.351  -2.917   0.301  0.00  0.00    +0.073 A 
ATOM      9  C   LIG    1       -3.479  -2.264  -0.223  0.00  0.00    +0.029 A 
ATOM     10  C   LIG    1       -3.558  -0.907  -0.197  0.00  0.00    +0.010 A 
ATOM     11  C   LIG    1       -2.522  -0.136   0.350  0.00  0.00    -0.016 A 
ATOM     12  C   LIG    1       -1.397  -0.750   0.875  0.00  0.00    +0.020 A 
ATOM     13  C   LIG    1       -1.300  -2.145   0.856  0.00  0.00    +0.025 A 
ATOM     14  O   LIG    1        2.868  -2.171   2.917  0.00  0.00    -0.267 OA
ATOM     15  C   LIG    1       -0.169  -2.812   1.381  0.00  0.00    +0.068 A 
ENDROOT
BRANCH   1  20
ATOM     16  C   LIG    1        0.227   1.292   3.111  0.00  0.00    +0.003 A 
ATOM     17  C   LIG    1        0.788   2.034   2.087  0.00  0.00    +0.012 A 
ATOM     18  C   LIG    1        1.381   1.397   1.012  0.00  0.00    +0.057 A 
ATOM     19  C   LIG    1        1.413   0.017   0.957  0.00  0.00    +0.038 A 
ATOM     20  C   LIG    1        0.850  -0.731   1.983  0.00  0.00    +0.051 A 
ATOM     21  C   LIG    1        0.256  -0.088   3.062  0.00  0.00    +0.026 A 
BRANCH  18  22
ATOM     22  C   LIG    1        1.992   2.209  -0.100  0.00  0.00    +0.417 C 
ATOM     23  F   LIG    1        1.352   1.903  -1.306  0.00  0.00    -0.166 F 
ATOM     24  F   LIG    1        3.353   1.907  -0.205  0.00  0.00    -0.166 F 
ATOM     25  F   LIG    1        1.836   3.571   0.177  0.00  0.00    -0.166 F 
ENDBRANCH  18  22
ENDBRANCH   1  20
BRANCH  11  26
ATOM     26  C   LIG    1       -2.633   1.343   0.367  0.00  0.00    +0.000 A 
ATOM     27  C   LIG    1       -3.868   1.959   0.600  0.00  0.00    +0.013 A 
ATOM     28  C   LIG    1       -3.922   3.339   0.607  0.00  0.00    +0.044 A 
ATOM     29  C   LIG    1       -2.756   4.066   0.383  0.00  0.00    +0.116 A 
ATOM     30  N   LIG    1       -1.603   3.451   0.165  0.00  0.00    -0.240 NA
ATOM     31  C   LIG    1       -1.509   2.136   0.157  0.00  0.00    +0.121 A 
BRANCH  29  32
ATOM     32  N   LIG    1       -2.802   5.454   0.388  0.00  0.00    -0.343 N 
ATOM     33  H   LIG    1       -1.994   5.967   0.232  0.00  0.00    +0.144 HD
ATOM     34  H   LIG    1       -3.643   5.911   0.546  0.00  0.00    +0.144 HD
ENDBRANCH  29  32
ENDBRANCH  11  26
TORSDOF 4
