REMARK  Name = ZINC20016357
REMARK                            x       y       z     vdW  Elec       q    Type
REMARK                         _______ _______ _______ _____ _____    ______ ____
ROOT
ATOM      1  C   UNK A  0       -3.083   1.616  -1.942  0.00  0.00    +0.249 C 
ATOM      2  N   HIS A  1       -2.087   0.991  -1.284  0.00  0.00    -0.298 N 
ATOM      3  H   HIS A  1       -2.276   0.028  -0.786  0.00  0.00    +0.150 HD
ATOM      4  O   UNK A  0       -2.875   2.680  -2.492  0.00  0.00    -0.270 OA
ENDROOT
BRANCH   1   9
ATOM      5  C   UNK A  0       -6.954  -0.129  -2.093  0.00  0.00    +0.004 A 
ATOM      6  C   UNK A  0       -6.027  -0.427  -3.075  0.00  0.00    +0.039 A 
ATOM      7  C   UNK A  0       -4.766   0.137  -3.034  0.00  0.00    +0.137 A 
ATOM      8  F   UNK A  0       -3.861  -0.155  -3.994  0.00  0.00    -0.205 F 
ATOM      9  C   UNK A  0       -4.428   1.010  -1.994  0.00  0.00    +0.090 A 
ATOM     10  C   UNK A  0       -5.369   1.300  -1.002  0.00  0.00    +0.056 A 
ATOM     11 CL   UNK A  0       -4.960   2.376   0.297  0.00  0.00    -0.083 Cl
ATOM     12  C   UNK A  0       -6.627   0.734  -1.062  0.00  0.00    +0.021 A 
ENDBRANCH   1   9
BRANCH   2  13
ATOM     13  CA  HIS A  1       -0.753   1.593  -1.232  0.00  0.00    +0.188 C 
BRANCH  13  14
ATOM     14  C   HIS A  1        0.019   1.211  -2.468  0.00  0.00    +0.326 C 
ATOM     15  O   HIS A  1       -0.493   0.509  -3.307  0.00  0.00    -0.249 OA
BRANCH  14  16
ATOM     16  OXT HIS A  1        1.276   1.652  -2.638  0.00  0.00    -0.479 OA
ATOM     17  HXT HIS A  1        1.673   2.197  -1.987  0.00  0.00    +0.295 HD
ENDBRANCH  14  16
ENDBRANCH  13  14
BRANCH  13  18
ATOM     18  CB  HIS A  1       -0.013   1.086   0.008  0.00  0.00    +0.088 C 
BRANCH  18  19
ATOM     19  CG  HIS A  1       -0.718   1.572   1.248  0.00  0.00    +0.038 A 
ATOM     20  CD2 HIS A  1       -1.175   0.800   2.253  0.00  0.00    +0.133 A 
ATOM     21  NE2 HIS A  1       -1.741   1.641   3.172  0.00  0.00    -0.244 NA
ATOM     22  CE1 HIS A  1       -1.619   2.897   2.693  0.00  0.00    +0.196 A 
ATOM     23  ND1 HIS A  1       -1.006   2.848   1.542  0.00  0.00    -0.348 N 
ATOM     24  HD1 HIS A  1       -0.722   3.651   0.845  0.00  0.00    +0.166 HD
ENDBRANCH  18  19
ENDBRANCH  13  18
ENDBRANCH   2  13
TORSDOF 6
