REMARK  Name = ZINC13831221
REMARK                            x       y       z     vdW  Elec       q    Type
REMARK                         _______ _______ _______ _____ _____    ______ ____
ROOT
ATOM      1  C   LIG    1       -0.013   1.086   0.008  0.00  0.00    +0.086 C 
ATOM      2  C   LIG    1       -0.742   1.585  -1.213  0.00  0.00    +0.107 A 
ATOM      3  N   LIG    1       -0.883   2.912  -1.404  0.00  0.00    -0.311 N 
ATOM      4  C   LIG    1       -1.547   3.349  -2.489  0.00  0.00    +0.256 A 
ATOM      5  O   LIG    1       -1.686   4.545  -2.682  0.00  0.00    -0.267 OA
ATOM      6  C   LIG    1       -2.093   2.409  -3.407  0.00  0.00    +0.048 A 
ATOM      7  C   LIG    1       -2.877   3.005  -4.548  0.00  0.00    +0.111 C 
ATOM      8  S   LIG    1       -3.035   1.801  -5.896  0.00  0.00    -0.155 S 
ATOM      9  C   LIG    1       -3.468   0.284  -4.986  0.00  0.00    +0.075 C 
ATOM     10  C   LIG    1       -2.305  -0.047  -4.061  0.00  0.00    +0.066 C 
ATOM     11  C   LIG    1       -1.893   1.097  -3.181  0.00  0.00    +0.053 A 
ATOM     12  H   LIG    1       -0.508   3.543  -0.771  0.00  0.00    +0.170 HD
ATOM     13  N   LIG    1       -1.228   0.730  -2.061  0.00  0.00    -0.239 NA
ENDROOT
TORSDOF 0
