REMARK  Name = ZINC17123471
REMARK                            x       y       z     vdW  Elec       q    Type
REMARK                         _______ _______ _______ _____ _____    ______ ____
ROOT
ATOM      1  C   LIG    1       -0.002   1.351   0.367  0.00  0.00    +0.001 A 
ATOM      2  C   LIG    1        1.183   2.079   0.366  0.00  0.00    +0.001 A 
ATOM      3  C   LIG    1        2.390   1.455   0.230  0.00  0.00    +0.012 A 
ATOM      4  C   LIG    1        2.437   0.067   0.089  0.00  0.00    +0.026 A 
ATOM      5  C   LIG    1        1.231  -0.676   0.090  0.00  0.00    +0.011 A 
ATOM      6  C   LIG    1        1.299  -2.083  -0.054  0.00  0.00    +0.072 A 
ATOM      7  N   LIG    1        2.496  -2.682  -0.187  0.00  0.00    -0.275 N 
ATOM      8  H   LIG    1        2.532  -3.647  -0.284  0.00  0.00    +0.189 HD
ATOM      9  N   LIG    1        3.690  -1.958  -0.188  0.00  0.00    -0.158 NA
ATOM     10  C   LIG    1        0.071  -2.884  -0.058  0.00  0.00    +0.001 C 
ATOM     11  C   LIG    1       -1.117  -2.344  -0.576  0.00  0.00    +0.014 C 
ATOM     12  C   LIG    1       -2.258  -3.088  -0.580  0.00  0.00    +0.051 C 
ATOM     13  C   LIG    1       -2.246  -4.393  -0.066  0.00  0.00    +0.179 C 
ATOM     14  C   LIG    1       -1.059  -4.933   0.452  0.00  0.00    +0.051 C 
ATOM     15  O   LIG    1       -3.363  -5.122  -0.070  0.00  0.00    -0.288 OA
ATOM     16  C   LIG    1        0.084  -4.191   0.451  0.00  0.00    +0.014 C 
ATOM     17  C   LIG    1        3.705  -0.652  -0.060  0.00  0.00    +0.151 A 
ATOM     18  C   LIG    1        0.010  -0.007   0.232  0.00  0.00    +0.011 A 
ENDROOT
BRANCH  17  19
ATOM     19  N   LIG    1        4.909   0.041  -0.066  0.00  0.00    -0.298 N 
ATOM     20  H   LIG    1        4.920   0.995   0.111  0.00  0.00    +0.154 HD
BRANCH  19  21
ATOM     21  C   LIG    1        6.098  -0.633  -0.325  0.00  0.00    +0.032 A 
ATOM     22  C   LIG    1        6.114  -1.693  -1.228  0.00  0.00    +0.024 A 
ATOM     23  C   LIG    1        7.288  -2.361  -1.486  0.00  0.00    +0.015 A 
ATOM     24  C   LIG    1        8.467  -1.975  -0.841  0.00  0.00    +0.037 A 
ATOM     25  C   LIG    1        8.448  -0.910   0.065  0.00  0.00    +0.015 A 
ATOM     26  C   LIG    1        7.271  -0.243   0.315  0.00  0.00    +0.024 A 
BRANCH  24  27
ATOM     27  C   LIG    1        9.728  -2.690  -1.115  0.00  0.00    +0.242 C 
ATOM     28  N   LIG    1       10.863  -2.317  -0.492  0.00  0.00    -0.325 N 
ATOM     29  H   LIG    1       11.693  -2.787  -0.673  0.00  0.00    +0.145 HD
ATOM     30  H   LIG    1       10.851  -1.578   0.136  0.00  0.00    +0.145 HD
ATOM     31  O   LIG    1        9.743  -3.616  -1.903  0.00  0.00    -0.270 OA
ENDBRANCH  24  27
ENDBRANCH  19  21
ENDBRANCH  17  19
TORSDOF 3
