REMARK  Name = ZINC00024215
REMARK                            x       y       z     vdW  Elec       q    Type
REMARK                         _______ _______ _______ _____ _____    ______ ____
ROOT
ATOM      1  C   LIG    1       -0.013   1.076   0.008  0.00  0.00    +0.001 A 
ATOM      2  C   LIG    1        1.170   1.758   0.000  0.00  0.00    +0.008 A 
ATOM      3  C   LIG    1        1.172   3.164   0.008  0.00  0.00    -0.016 A 
ATOM      4  C   LIG    1        2.362   3.912   0.001  0.00  0.00    +0.008 A 
ATOM      5  C   LIG    1        2.312   5.276   0.010  0.00  0.00    +0.001 A 
ATOM      6  C   LIG    1        1.103   5.960   0.025  0.00  0.00    +0.014 A 
ATOM      7  C   LIG    1       -0.094   5.260   0.032  0.00  0.00    +0.048 A 
ATOM      8  C   LIG    1       -1.400   5.936   0.049  0.00  0.00    +0.259 A 
ATOM      9  O   LIG    1       -1.452   7.151   0.056  0.00  0.00    -0.267 OA
ATOM     10  N   LIG    1       -2.539   5.217   0.055  0.00  0.00    -0.289 N 
ATOM     11  H   LIG    1       -3.387   5.687   0.066  0.00  0.00    +0.172 HD
ATOM     12  C   LIG    1       -2.543   3.871   0.047  0.00  0.00    +0.259 A 
ATOM     13  O   LIG    1       -3.600   3.269   0.053  0.00  0.00    -0.267 OA
ATOM     14  C   LIG    1       -1.277   3.124   0.031  0.00  0.00    +0.048 A 
ATOM     15  C   LIG    1       -0.062   3.847   0.023  0.00  0.00    +0.007 A 
ATOM     16  C   LIG    1       -1.235   1.737   0.017  0.00  0.00    +0.014 A 
ENDROOT
TORSDOF 0
