REMARK  Name = ZINC21763183
REMARK                            x       y       z     vdW  Elec       q    Type
REMARK                         _______ _______ _______ _____ _____    ______ ____
ROOT
ATOM      1  N   LIG    1        6.597   1.167  -0.059  0.00  0.00    +0.387 N 
ATOM      2  H   LIG    1        6.983   0.665  -0.845  0.00  0.00    -0.081 HD
ATOM      3  C   LIG    1        7.161   0.630   1.187  0.00  0.00    -0.063 C 
ATOM      4  C   LIG    1        8.684   0.780   1.164  0.00  0.00    +0.066 C 
ATOM      5  N   LIG    1        9.031   2.201   1.021  0.00  0.00    -0.302 NA
ATOM      6  C   LIG    1        8.452   2.758  -0.210  0.00  0.00    +0.066 C 
ATOM      7  C   LIG    1        6.932   2.592  -0.176  0.00  0.00    -0.063 C 
ENDROOT
BRANCH   1   8
ATOM      8  C   LIG    1        5.137   1.006  -0.045  0.00  0.00    +0.019 C 
BRANCH   8  17
ATOM      9  C   LIG    1       -0.017   1.378   0.010  0.00  0.00    +0.000 A 
ATOM     10  C   LIG    1        1.174   2.082   0.002  0.00  0.00    +0.002 A 
ATOM     11  C   LIG    1        2.377   1.410  -0.013  0.00  0.00    +0.024 A 
ATOM     12  C   LIG    1        2.404   0.014  -0.022  0.00  0.00    +0.039 A 
ATOM     13  C   LIG    1        1.206  -0.682  -0.014  0.00  0.00    -0.024 A 
ATOM     14  C   LIG    1        1.510  -2.163  -0.025  0.00  0.00    +0.056 C 
ATOM     15  C   LIG    1        3.046  -2.243  -0.040  0.00  0.00    +0.118 C 
ATOM     16  N   LIG    1        3.503  -0.851  -0.037  0.00  0.00    -0.272 N 
ATOM     17  C   LIG    1        4.793  -0.461  -0.049  0.00  0.00    +0.203 C 
ATOM     18  O   LIG    1        5.677  -1.291  -0.062  0.00  0.00    -0.277 OA
ATOM     19  C   LIG    1        0.002  -0.004   0.002  0.00  0.00    +0.005 A 
ENDBRANCH   8  17
ENDBRANCH   1   8
BRANCH   5  20
ATOM     20  C   LIG    1       10.487   2.392   1.052  0.00  0.00    +0.119 C 
BRANCH  20  21
ATOM     21  C   LIG    1       10.798   3.863   1.151  0.00  0.00    -0.033 A 
ATOM     22  C   LIG    1       10.951   4.616   0.001  0.00  0.00    +0.006 A 
ATOM     23  C   LIG    1       11.236   5.965   0.091  0.00  0.00    +0.020 A 
ATOM     24  C   LIG    1       11.369   6.563   1.331  0.00  0.00    +0.041 A 
ATOM     25 CL   LIG    1       11.728   8.258   1.445  0.00  0.00    -0.084 Cl
ATOM     26  C   LIG    1       11.216   5.809   2.482  0.00  0.00    +0.020 A 
ATOM     27  C   LIG    1       10.925   4.461   2.391  0.00  0.00    +0.006 A 
ENDBRANCH  20  21
ENDBRANCH   5  20
TORSDOF 4
