REMARK  Name = ZINC27526089
REMARK                            x       y       z     vdW  Elec       q    Type
REMARK                         _______ _______ _______ _____ _____    ______ ____
ROOT
ATOM      1  C   LIG    1        2.775   4.286  -1.422  0.00  0.00    +0.242 C 
ATOM      2  N   LIG    1        2.063   3.831  -2.401  0.00  0.00    -0.292 N 
ATOM      3  H   LIG    1        2.360   4.037  -3.440  0.00  0.00    +0.301 HD
ATOM      4  H   LIG    1        1.159   3.238  -2.195  0.00  0.00    +0.301 HD
ENDROOT
BRANCH   1   6
ATOM      5  C   LIG    1        4.296   5.299  -3.062  0.00  0.00    +0.275 C 
ATOM      6  N   LIG    1        3.900   5.025  -1.679  0.00  0.00    -0.233 N 
ATOM      7  C   LIG    1        4.706   5.541  -0.570  0.00  0.00    +0.275 C 
ENDBRANCH   1   6
BRANCH   1   8
ATOM      8  C   LIG    1        2.367   4.004   0.001  0.00  0.00    +0.160 C 
BRANCH   8   9
ATOM      9  C   LIG    1        1.106   3.179   0.008  0.00  0.00    -0.018 A 
ATOM     10  C   LIG    1        1.173   1.794   0.001  0.00  0.00    +0.007 A 
ATOM     11  C   LIG    1       -0.013   1.076   0.008  0.00  0.00    +0.020 A 
ATOM     12  C   LIG    1       -1.214   1.759   0.017  0.00  0.00    +0.111 A 
ATOM     13  N   LIG    1       -1.240   3.078   0.030  0.00  0.00    -0.263 NA
ATOM     14  C   LIG    1       -0.132   3.793   0.023  0.00  0.00    +0.115 A 
ENDBRANCH   8   9
ENDBRANCH   1   8
TORSDOF 3
