REMARK  Name = ZINC28693156
REMARK                            x       y       z     vdW  Elec       q    Type
REMARK                         _______ _______ _______ _____ _____    ______ ____
ROOT
ATOM      1  N   LIG    1       -2.925   3.966  -1.506  0.00  0.00    -0.295 NA
ATOM      2  C   LIG    1       -1.989   4.865  -2.193  0.00  0.00    +0.103 C 
ATOM      3  C   LIG    1       -2.433   5.044  -3.649  0.00  0.00    +0.123 C 
ATOM      4  N   LIG    1       -3.837   5.483  -3.659  0.00  0.00    -0.299 N 
ATOM      5  C   LIG    1       -4.218   6.566  -4.364  0.00  0.00    +0.222 C 
ATOM      6  O   LIG    1       -5.393   6.858  -4.439  0.00  0.00    -0.275 OA
ATOM      7  C   LIG    1       -4.813   4.708  -2.878  0.00  0.00    +0.123 C 
ATOM      8  C   LIG    1       -4.275   4.542  -1.453  0.00  0.00    +0.103 C 
ENDROOT
BRANCH   5   9
ATOM      9  C   LIG    1       -3.185   7.414  -5.061  0.00  0.00    +0.048 C 
ATOM     10  C   LIG    1       -2.189   7.952  -4.031  0.00  0.00    +0.019 C 
ATOM     11  C   LIG    1       -1.140   8.813  -4.737  0.00  0.00    -0.009 C 
ATOM     12  C   LIG    1       -1.831   9.984  -5.440  0.00  0.00    +0.007 C 
ATOM     13  C   LIG    1       -2.826   9.445  -6.470  0.00  0.00    -0.009 C 
ATOM     14  C   LIG    1       -2.082   8.597  -7.503  0.00  0.00    +0.007 C 
ATOM     15  C   LIG    1       -1.392   7.427  -6.801  0.00  0.00    -0.009 C 
ATOM     16  C   LIG    1       -0.396   7.965  -5.771  0.00  0.00    +0.007 C 
ATOM     17  C   LIG    1       -2.441   6.566  -6.094  0.00  0.00    +0.019 C 
ATOM     18  C   LIG    1       -3.875   8.585  -5.763  0.00  0.00    +0.019 C 
ENDBRANCH   5   9
BRANCH   1  19
ATOM     19  C   LIG    1       -2.442   3.631  -0.160  0.00  0.00    +0.119 C 
BRANCH  19  25
ATOM     20  C   LIG    1       -1.216   1.441  -0.344  0.00  0.00    +0.024 A 
ATOM     21  C   LIG    1       -0.031   0.735  -0.438  0.00  0.00    +0.111 A 
ATOM     22  N   LIG    1        1.128   1.363  -0.464  0.00  0.00    -0.263 NA
ATOM     23  C   LIG    1        1.206   2.678  -0.398  0.00  0.00    +0.111 A 
ATOM     24  C   LIG    1        0.064   3.450  -0.298  0.00  0.00    +0.024 A 
ATOM     25  C   LIG    1       -1.173   2.825  -0.268  0.00  0.00    -0.031 A 
ENDBRANCH  19  25
ENDBRANCH   1  19
TORSDOF 3
