REMARK  Name = ZINC53739072
REMARK                            x       y       z     vdW  Elec       q    Type
REMARK                         _______ _______ _______ _____ _____    ______ ____
ROOT
ATOM      1  C   LIG    1       -1.245  -2.036   0.064  0.00  0.00    -0.019 C 
ATOM      2  C   LIG    1       -0.408  -2.497  -1.131  0.00  0.00    +0.010 C 
ATOM      3  C   LIG    1       -1.107  -2.089  -2.430  0.00  0.00    +0.001 C 
ATOM      4  C   LIG    1       -2.489  -2.742  -2.493  0.00  0.00    +0.000 C 
ATOM      5  C   LIG    1       -3.325  -2.282  -1.297  0.00  0.00    +0.001 C 
ATOM      6  C   LIG    1       -2.627  -2.689   0.002  0.00  0.00    +0.010 C 
ENDROOT
BRANCH   1   7
ATOM      7  C   LIG    1       -0.557  -2.438   1.343  0.00  0.00    -0.042 A 
ATOM      8  C   LIG    1       -1.158  -3.347   2.195  0.00  0.00    +0.005 A 
ATOM      9  C   LIG    1       -0.528  -3.716   3.369  0.00  0.00    +0.022 A 
ATOM     10  C   LIG    1        0.704  -3.176   3.692  0.00  0.00    +0.059 A 
ATOM     11 CL   LIG    1        1.495  -3.639   5.166  0.00  0.00    -0.082 Cl
ATOM     12  C   LIG    1        1.306  -2.266   2.839  0.00  0.00    +0.060 A 
ATOM     13 CL   LIG    1        2.852  -1.588   3.244  0.00  0.00    -0.082 Cl
ATOM     14  C   LIG    1        0.676  -1.902   1.662  0.00  0.00    +0.025 A 
ENDBRANCH   1   7
BRANCH   1  15
ATOM     15  C   LIG    1       -1.398  -0.514   0.024  0.00  0.00    -0.071 C 
BRANCH  15  17
ATOM     16  C   LIG    1       -2.237   1.398   1.204  0.00  0.00    -0.100 C 
ATOM     17  N   LIG    1       -2.178  -0.069   1.187  0.00  0.00    +0.378 N 
ATOM     18  H   LIG    1       -3.113  -0.443   1.127  0.00  0.00    -0.086 HD
ATOM     19  H   LIG    1       -1.737  -0.398   2.033  0.00  0.00    -0.086 HD
ENDBRANCH  15  17
ENDBRANCH   1  15
TORSDOF 3
