REMARK  Name = ZINC13766752
REMARK                            x       y       z     vdW  Elec       q    Type
REMARK                         _______ _______ _______ _____ _____    ______ ____
ROOT
ATOM      1  C   LIG    1       -2.247  -0.499  -1.505  0.00  0.00    +0.106 A 
ATOM      2  C   LIG    1       -3.117   0.572  -1.586  0.00  0.00    +0.029 A 
ATOM      3  C   LIG    1       -3.764   0.843  -2.776  0.00  0.00    +0.006 A 
ATOM      4  C   LIG    1       -3.543   0.047  -3.889  0.00  0.00    -0.042 A 
ATOM      5  C   LIG    1       -2.673  -1.019  -3.810  0.00  0.00    -0.029 A 
ATOM      6  C   LIG    1       -2.391  -1.905  -4.995  0.00  0.00    +0.116 C 
ATOM      7  N   LIG    1       -3.431  -1.743  -6.016  0.00  0.00    -0.312 NA
ATOM      8  H   LIG    1       -3.215  -2.283  -6.840  0.00  0.00    +0.122 HD
ATOM      9  C   LIG    1       -3.602  -0.320  -6.348  0.00  0.00    +0.086 C 
ATOM     10  C   LIG    1       -4.275   0.377  -5.165  0.00  0.00    +0.050 C 
ATOM     11  C   LIG    1       -2.022  -1.288  -2.615  0.00  0.00    +0.033 A 
ENDROOT
BRANCH   1  12
ATOM     12  S   LIG    1       -1.421  -0.852   0.011  0.00  0.00    +0.058 S 
ATOM     13  O   LIG    1       -2.218  -0.295   1.047  0.00  0.00    -0.153 OA
ATOM     14  O   LIG    1       -1.073  -2.229  -0.027  0.00  0.00    -0.153 OA
BRANCH  12  16
ATOM     15  C   LIG    1       -0.018   1.461   0.010  0.00  0.00    +0.127 C 
ATOM     16  N   LIG    1        0.002  -0.004   0.002  0.00  0.00    -0.193 NA
ATOM     17  H   LIG    1        0.849  -0.478  -0.009  0.00  0.00    +0.148 HD
ENDBRANCH  12  16
ENDBRANCH   1  12
TORSDOF 2
