REMARK  Name = ZINC49021290
REMARK                            x       y       z     vdW  Elec       q    Type
REMARK                         _______ _______ _______ _____ _____    ______ ____
ROOT
ATOM      1  C   LIG    1       -0.476   0.846   0.487  0.00  0.00    +0.028 C 
ATOM      2  C   LIG    1       -0.297  -0.669   0.362  0.00  0.00    +0.073 C 
ATOM      3  C   LIG    1        0.125  -1.025  -1.070  0.00  0.00    +0.050 C 
ATOM      4  C   LIG    1        0.230  -2.545  -1.190  0.00  0.00    +0.115 C 
ATOM      5  C   LIG    1        1.090  -3.103  -0.086  0.00  0.00    -0.006 A 
ATOM      6  C   LIG    1        1.659  -4.355  -0.248  0.00  0.00    +0.007 A 
ATOM      7  C   LIG    1        2.450  -4.895   0.747  0.00  0.00    +0.000 A 
ATOM      8  C   LIG    1        2.679  -4.187   1.914  0.00  0.00    +0.002 A 
ATOM      9  C   LIG    1        2.117  -2.938   2.083  0.00  0.00    +0.023 A 
ATOM     10  C   LIG    1        1.321  -2.392   1.081  0.00  0.00    +0.035 A 
ATOM     11  N   LIG    1        0.765  -1.121   1.270  0.00  0.00    -0.322 N 
ENDROOT
BRANCH   4  12
ATOM     12  N   LIG    1        0.826  -2.889  -2.483  0.00  0.00    -0.264 N 
ATOM     13  C   LIG    1        2.057  -2.438  -2.799  0.00  0.00    +0.217 C 
ATOM     14  C   LIG    1        2.870  -1.688  -1.776  0.00  0.00    +0.109 C 
ATOM     15  O   LIG    1        2.509  -2.637  -3.907  0.00  0.00    -0.276 OA
BRANCH  12  16
ATOM     16  C   LIG    1        0.118  -3.685  -3.390  0.00  0.00    +0.037 A 
ATOM     17  C   LIG    1       -1.036  -3.198  -3.990  0.00  0.00    +0.023 A 
ATOM     18  C   LIG    1       -1.732  -3.986  -4.885  0.00  0.00    +0.002 A 
ATOM     19  C   LIG    1       -1.281  -5.259  -5.185  0.00  0.00    +0.000 A 
ATOM     20  C   LIG    1       -0.132  -5.746  -4.590  0.00  0.00    +0.002 A 
ATOM     21  C   LIG    1        0.572  -4.961  -3.697  0.00  0.00    +0.023 A 
ENDBRANCH  12  16
ENDBRANCH   4  12
BRANCH  11  22
ATOM     22  C   LIG    1        1.237  -0.256   2.354  0.00  0.00    +0.140 C 
BRANCH  22  23
ATOM     23  C   LIG    1        0.331  -0.408   3.549  0.00  0.00    -0.030 A 
ATOM     24  C   LIG    1       -0.692   0.497   3.760  0.00  0.00    +0.005 A 
ATOM     25  C   LIG    1       -1.523   0.357   4.856  0.00  0.00    +0.000 A 
ATOM     26  C   LIG    1       -1.331  -0.688   5.740  0.00  0.00    +0.000 A 
ATOM     27  C   LIG    1       -0.309  -1.593   5.528  0.00  0.00    +0.000 A 
ATOM     28  C   LIG    1        0.519  -1.456   4.430  0.00  0.00    +0.005 A 
ENDBRANCH  22  23
ENDBRANCH  11  22
TORSDOF 4
