REMARK  Name = ZINC34509627
REMARK                            x       y       z     vdW  Elec       q    Type
REMARK                         _______ _______ _______ _____ _____    ______ ____
ROOT
ATOM      1  N   LIG    1       -2.747  -2.044  -0.401  0.00  0.00    -0.263 NA
ATOM      2  C   LIG    1       -2.908  -2.698   0.716  0.00  0.00    +0.168 C 
ATOM      3  N   LIG    1       -2.929  -4.066   0.916  0.00  0.00    -0.214 N 
ATOM      4  C   LIG    1       -3.104  -4.564   2.128  0.00  0.00    +0.263 C 
ATOM      5  C   LIG    1       -3.273  -3.600   3.232  0.00  0.00    +0.078 C 
ATOM      6  C   LIG    1       -3.466  -3.831   4.554  0.00  0.00    +0.028 C 
ATOM      7  O   LIG    1       -3.126  -5.765   2.325  0.00  0.00    -0.269 OA
ATOM      8  S   LIG    1       -3.147  -2.045   2.360  0.00  0.00    -0.049 S 
ENDROOT
BRANCH   3   9
ATOM      9  C   LIG    1       -2.763  -4.930  -0.174  0.00  0.00    +0.046 A 
ATOM     10  C   LIG    1       -1.492  -5.357  -0.536  0.00  0.00    +0.024 A 
ATOM     11  C   LIG    1       -1.331  -6.209  -1.611  0.00  0.00    +0.002 A 
ATOM     12  C   LIG    1       -2.435  -6.638  -2.326  0.00  0.00    +0.000 A 
ATOM     13  C   LIG    1       -3.701  -6.215  -1.968  0.00  0.00    +0.005 A 
ATOM     14  C   LIG    1       -3.869  -5.367  -0.890  0.00  0.00    -0.029 A 
ATOM     15  C   LIG    1       -5.250  -4.912  -0.495  0.00  0.00    +0.045 C 
ENDBRANCH   3   9
BRANCH   6  16
ATOM     16  C   LIG    1       -3.775  -2.715   5.458  0.00  0.00    -0.022 A 
ATOM     17  C   LIG    1       -4.217  -1.492   4.938  0.00  0.00    +0.011 A 
ATOM     18  C   LIG    1       -4.506  -0.449   5.789  0.00  0.00    +0.048 A 
ATOM     19  C   LIG    1       -4.358  -0.607   7.162  0.00  0.00    +0.139 A 
ATOM     20  C   LIG    1       -3.919  -1.819   7.684  0.00  0.00    +0.083 A 
ATOM     21 CL   LIG    1       -3.736  -2.008   9.400  0.00  0.00    -0.080 Cl
ATOM     22  C   LIG    1       -3.634  -2.872   6.842  0.00  0.00    +0.031 A 
BRANCH  19  23
ATOM     23  O   LIG    1       -4.644   0.425   7.997  0.00  0.00    -0.488 OA
BRANCH  23  24
ATOM     24  C   LIG    1       -5.090   1.642   7.394  0.00  0.00    +0.262 C 
BRANCH  24  25
ATOM     25  C   LIG    1       -5.361   2.681   8.484  0.00  0.00    +0.177 C 
BRANCH  25  26
ATOM     26  O   LIG    1       -6.448   2.243   9.301  0.00  0.00    -0.386 OA
ATOM     27  H   LIG    1       -7.276   2.114   8.818  0.00  0.00    +0.210 HD
ENDBRANCH  25  26
BRANCH  25  28
ATOM     28  C   LIG    1       -5.718   4.020   7.835  0.00  0.00    +0.190 C 
BRANCH  28  29
ATOM     29  O   LIG    1       -5.856   5.018   8.848  0.00  0.00    -0.392 OA
ATOM     30  H   LIG    1       -6.083   5.895   8.508  0.00  0.00    +0.210 HD
ENDBRANCH  28  29
ENDBRANCH  25  28
ENDBRANCH  24  25
ENDBRANCH  23  24
ENDBRANCH  19  23
ENDBRANCH   6  16
BRANCH   1  31
ATOM     31  C   LIG    1       -2.750  -0.579  -0.400  0.00  0.00    +0.144 C 
BRANCH  31  33
ATOM     32  C   LIG    1       -1.373   1.464  -0.813  0.00  0.00    +0.005 C 
ATOM     33  C   LIG    1       -1.370  -0.066  -0.815  0.00  0.00    +0.020 C 
ENDBRANCH  31  33
ENDBRANCH   1  31
TORSDOF 10
