REMARK  Name = ZINC43022913
REMARK                            x       y       z     vdW  Elec       q    Type
REMARK                         _______ _______ _______ _____ _____    ______ ____
ROOT
ATOM      1  C   LIG    1        4.072  -1.818   3.042  0.00  0.00    +0.139 C 
ATOM      2  C   LIG    1        4.123  -0.291   3.145  0.00  0.00    +0.049 C 
ATOM      3  C   LIG    1        4.881   0.096   4.425  0.00  0.00    +0.079 C 
ATOM      4  C   LIG    1        4.297  -0.736   5.590  0.00  0.00    +0.024 C 
ATOM      5  C   LIG    1        5.127  -2.038   5.597  0.00  0.00    +0.024 C 
ATOM      6  C   LIG    1        6.133  -1.869   4.436  0.00  0.00    +0.079 C 
ATOM      7  N   LIG    1        6.275  -0.387   4.275  0.00  0.00    -0.291 N 
ATOM      8  C   LIG    1        7.389   0.339   4.058  0.00  0.00    +0.247 C 
ATOM      9  O   LIG    1        7.310   1.542   3.900  0.00  0.00    -0.270 OA
ATOM     10  C   LIG    1        5.489  -2.389   3.141  0.00  0.00    +0.049 C 
ENDROOT
BRANCH   8  11
ATOM     11  C   LIG    1        8.708  -0.328   4.011  0.00  0.00    +0.037 A 
ATOM     12  C   LIG    1        8.812  -1.646   3.564  0.00  0.00    +0.013 A 
ATOM     13  C   LIG    1       10.045  -2.262   3.522  0.00  0.00    +0.013 A 
ATOM     14  C   LIG    1       11.178  -1.576   3.923  0.00  0.00    +0.055 A 
ATOM     15  C   LIG    1       11.083  -0.270   4.367  0.00  0.00    +0.013 A 
ATOM     16  C   LIG    1        9.856   0.360   4.408  0.00  0.00    +0.013 A 
BRANCH  14  17
ATOM     17  C   LIG    1       12.522  -2.256   3.875  0.00  0.00    +0.417 C 
ATOM     18  F   LIG    1       12.357  -3.631   4.075  0.00  0.00    -0.166 F 
ATOM     19  F   LIG    1       13.345  -1.734   4.879  0.00  0.00    -0.166 F 
ATOM     20  F   LIG    1       13.113  -2.034   2.626  0.00  0.00    -0.166 F 
ENDBRANCH  14  17
ENDBRANCH   8  11
BRANCH   1  21
ATOM     21  S   LIG    1        3.340  -2.291   1.451  0.00  0.00    -0.000 S 
ATOM     22  O   LIG    1        4.089  -1.729   0.381  0.00  0.00    -0.169 OA
ATOM     23  O   LIG    1        3.010  -3.673   1.456  0.00  0.00    -0.169 OA
BRANCH  21  27
ATOM     24  C   LIG    1       -0.646  -0.151   1.319  0.00  0.00    +0.000 A 
ATOM     25  C   LIG    1        0.486   0.465   0.819  0.00  0.00    +0.002 A 
ATOM     26  C   LIG    1        1.703  -0.188   0.860  0.00  0.00    +0.027 A 
ATOM     27  C   LIG    1        1.789  -1.458   1.400  0.00  0.00    +0.088 A 
ATOM     28  C   LIG    1        0.657  -2.074   1.901  0.00  0.00    +0.027 A 
ATOM     29  C   LIG    1       -0.561  -1.421   1.859  0.00  0.00    +0.002 A 
ENDBRANCH  21  27
ENDBRANCH   1  21
TORSDOF 4
