REMARK  Name = ZINC21986609
REMARK                            x       y       z     vdW  Elec       q    Type
REMARK                         _______ _______ _______ _____ _____    ______ ____
ROOT
ATOM      1  C   LIG    1        4.583  -1.342   2.761  0.00  0.00    +0.047 A 
ATOM      2  C   LIG    1        4.953  -1.156   1.448  0.00  0.00    +0.030 A 
ATOM      3  C   LIG    1        4.160  -0.386   0.604  0.00  0.00    +0.047 A 
ATOM      4  C   LIG    1        2.987   0.203   1.104  0.00  0.00    +0.010 A 
ATOM      5  C   LIG    1        2.386   0.936  -0.023  0.00  0.00    +0.003 A 
ATOM      6  C   LIG    1        3.211   0.756  -1.087  0.00  0.00    +0.091 A 
ATOM      7  C   LIG    1        2.617   0.004   2.433  0.00  0.00    +0.056 A 
ATOM      8  N   LIG    1        4.267  -0.028  -0.725  0.00  0.00    -0.360 N 
ATOM      9  H   LIG    1        5.122  -0.377  -1.322  0.00  0.00    +0.165 HD
ATOM     10  C   LIG    1        3.417  -0.765   3.257  0.00  0.00    +0.118 A 
ENDROOT
BRANCH   5  11
ATOM     11  C   LIG    1        1.136   1.719   0.000  0.00  0.00    -0.046 C 
ATOM     12  C   LIG    1       -0.013   1.076   0.008  0.00  0.00    -0.042 C 
ATOM     13  C   LIG    1       -1.342   1.774   0.018  0.00  0.00    -0.055 C 
ATOM     14  N   LIG    1       -1.176   3.174   0.435  0.00  0.00    +0.382 N 
ATOM     15  H   LIG    1       -0.887   3.209   1.496  0.00  0.00    -0.085 HD
ATOM     16  H   LIG    1       -2.124   3.713   0.295  0.00  0.00    -0.085 HD
ATOM     17  C   LIG    1       -0.129   3.821  -0.372  0.00  0.00    -0.078 C 
ATOM     18  C   LIG    1        1.225   3.220   0.015  0.00  0.00    +0.016 C 
ENDBRANCH   5  11
BRANCH  10  19
ATOM     19  O   LIG    1        3.064  -0.958   4.556  0.00  0.00    -0.507 OA
ATOM     20  H   LIG    1        2.144  -0.503   4.950  0.00  0.00    +0.292 HD
ENDBRANCH  10  19
TORSDOF 2
