REMARK  Name = ZINC36470974
REMARK                            x       y       z     vdW  Elec       q    Type
REMARK                         _______ _______ _______ _____ _____    ______ ____
ROOT
ATOM      1  C   LIG    1       -1.408  -0.536  -0.013  0.00  0.00    +0.097 A 
ATOM      2  N   LIG    1       -2.329  -0.277  -0.981  0.00  0.00    -0.342 N 
ATOM      3  C   LIG    1       -3.484  -0.939  -0.636  0.00  0.00    +0.078 A 
ATOM      4  C   LIG    1       -4.753  -1.056  -1.222  0.00  0.00    +0.062 A 
ATOM      5  C   LIG    1       -5.730  -1.828  -0.594  0.00  0.00    +0.015 A 
ATOM      6  C   LIG    1       -5.450  -2.474   0.596  0.00  0.00    +0.003 A 
ATOM      7  C   LIG    1       -4.207  -2.366   1.181  0.00  0.00    +0.030 A 
ATOM      8  C   LIG    1       -3.210  -1.599   0.572  0.00  0.00    +0.090 A 
ATOM      9  H   LIG    1       -2.196   0.273  -1.769  0.00  0.00    +0.167 HD
ATOM     10  N   LIG    1       -1.921  -1.313   0.895  0.00  0.00    -0.234 NA
ENDROOT
BRANCH   1  12
ATOM     11  C   LIG    1       -0.019   1.526   0.010  0.00  0.00    -0.002 C 
ATOM     12  C   LIG    1        0.002  -0.004   0.002  0.00  0.00    -0.012 C 
ATOM     13  C   LIG    1        0.771  -0.512  -1.236  0.00  0.00    -0.007 C 
ATOM     14  C   LIG    1        2.191  -0.791  -0.675  0.00  0.00    -0.020 C 
ATOM     15  C   LIG    1        1.868  -1.312   0.748  0.00  0.00    -0.081 C 
ATOM     16  N   LIG    1        0.714  -0.503   1.193  0.00  0.00    +0.387 N 
ATOM     17  H   LIG    1        0.092  -1.074   1.746  0.00  0.00    -0.085 HD
ATOM     18  H   LIG    1        1.038   0.277   1.746  0.00  0.00    -0.085 HD
ENDBRANCH   1  12
BRANCH   4  19
ATOM     19  C   LIG    1       -5.052  -0.367  -2.491  0.00  0.00    +0.244 C 
ATOM     20  N   LIG    1       -6.273  -0.482  -3.049  0.00  0.00    -0.325 N 
ATOM     21  H   LIG    1       -6.470  -0.029  -3.884  0.00  0.00    +0.145 HD
ATOM     22  H   LIG    1       -6.955  -1.019  -2.616  0.00  0.00    +0.145 HD
ATOM     23  O   LIG    1       -4.197   0.306  -3.034  0.00  0.00    -0.270 OA
ENDBRANCH   4  19
TORSDOF 2
