REMARK  Name = ZINC28896248
REMARK                            x       y       z     vdW  Elec       q    Type
REMARK                         _______ _______ _______ _____ _____    ______ ____
ROOT
ATOM      1  C   LIG    1       -0.785   1.694  -1.273  0.00  0.00    -0.003 C 
ATOM      2  C   LIG    1       -0.015   1.104  -0.089  0.00  0.00    +0.015 C 
ATOM      3  C   LIG    1       -0.702   1.505   1.217  0.00  0.00    -0.009 C 
ATOM      4  C   LIG    1       -0.726   3.031   1.334  0.00  0.00    +0.007 C 
ATOM      5  C   LIG    1       -1.496   3.621   0.150  0.00  0.00    -0.009 C 
ATOM      6  C   LIG    1       -2.929   3.086   0.158  0.00  0.00    +0.019 C 
ATOM      7  C   LIG    1       -2.906   1.561   0.042  0.00  0.00    +0.048 C 
ATOM      8  C   LIG    1       -2.136   0.971   1.225  0.00  0.00    +0.019 C 
ATOM      9  C   LIG    1       -2.219   1.160  -1.265  0.00  0.00    +0.027 C 
ATOM     10  C   LIG    1       -0.809   3.219  -1.156  0.00  0.00    +0.015 C 
ENDROOT
BRANCH   7  11
ATOM     11  C   LIG    1       -4.318   1.035   0.049  0.00  0.00    +0.222 C 
ATOM     12  N   LIG    1       -5.191   1.435  -0.897  0.00  0.00    -0.298 N 
ATOM     13  C   LIG    1       -6.601   1.020  -0.846  0.00  0.00    +0.126 C 
ATOM     14  C   LIG    1       -7.478   2.276  -0.976  0.00  0.00    +0.124 C 
ATOM     15  N   LIG    1       -7.091   3.014  -2.186  0.00  0.00    -0.327 N 
ATOM     16  C   LIG    1       -5.705   3.494  -2.097  0.00  0.00    +0.124 C 
ATOM     17  C   LIG    1       -4.758   2.293  -2.010  0.00  0.00    +0.126 C 
ATOM     18  O   LIG    1       -4.669   0.252   0.906  0.00  0.00    -0.275 OA
BRANCH  15  19
ATOM     19  C   LIG    1       -7.972   4.070  -2.430  0.00  0.00    +0.030 A 
ATOM     20  C   LIG    1       -7.487   5.367  -2.550  0.00  0.00    +0.023 A 
ATOM     21  C   LIG    1       -8.360   6.408  -2.797  0.00  0.00    +0.002 A 
ATOM     22  C   LIG    1       -9.716   6.163  -2.914  0.00  0.00    +0.000 A 
ATOM     23  C   LIG    1      -10.202   4.874  -2.791  0.00  0.00    +0.002 A 
ATOM     24  C   LIG    1       -9.334   3.827  -2.549  0.00  0.00    +0.023 A 
ENDBRANCH  15  19
ENDBRANCH   7  11
BRANCH   1  29
ATOM     25  C   LIG    1        1.808   0.178  -6.209  0.00  0.00    +0.044 C 
ATOM     26  C   LIG    1        1.133   0.573  -4.921  0.00  0.00    -0.050 A 
ATOM     27  C   LIG    1        0.652  -0.400  -4.066  0.00  0.00    +0.003 A 
ATOM     28  C   LIG    1        0.032  -0.038  -2.885  0.00  0.00    +0.004 A 
ATOM     29  C   LIG    1       -0.108   1.299  -2.560  0.00  0.00    -0.041 A 
ATOM     30  C   LIG    1        0.368   2.272  -3.418  0.00  0.00    +0.004 A 
ATOM     31  C   LIG    1        0.993   1.910  -4.596  0.00  0.00    +0.003 A 
ENDBRANCH   1  29
TORSDOF 3
