REMARK  Name = ZINC19685792
REMARK                            x       y       z     vdW  Elec       q    Type
REMARK                         _______ _______ _______ _____ _____    ______ ____
ROOT
ATOM      1  C   LIG    1        2.525  -8.505  -0.663  0.00  0.00    +0.338 C 
ATOM      2  O   LIG    1        3.088  -7.443  -0.472  0.00  0.00    -0.245 OA
ENDROOT
BRANCH   1   7
ATOM      3  C   LIG    1        6.076 -12.617  -2.257  0.00  0.00    +0.061 C 
ATOM      4  C   LIG    1        4.990 -11.617  -1.955  0.00  0.00    +0.016 C 
ATOM      5  C   LIG    1        4.663 -10.694  -2.875  0.00  0.00    +0.065 C 
ATOM      6  C   LIG    1        3.581  -9.682  -2.620  0.00  0.00    +0.096 C 
ATOM      7  C   LIG    1        3.253  -9.613  -1.156  0.00  0.00    +0.065 C 
ATOM      8  C   LIG    1        3.636 -10.580  -0.305  0.00  0.00    +0.016 C 
ATOM      9  C   LIG    1        3.277 -10.472   1.155  0.00  0.00    +0.061 C 
ATOM     10  N   LIG    1        4.344 -11.664  -0.750  0.00  0.00    -0.321 N 
ATOM     11  H   LIG    1        4.393 -12.467  -0.207  0.00  0.00    +0.152 HD
BRANCH   6  12
ATOM     12  C   LIG    1        2.345 -10.074  -3.388  0.00  0.00    -0.033 A 
ATOM     13  C   LIG    1        1.781 -11.322  -3.198  0.00  0.00    +0.005 A 
ATOM     14  C   LIG    1        0.646 -11.682  -3.902  0.00  0.00    +0.003 A 
ATOM     15  C   LIG    1        0.076 -10.793  -4.794  0.00  0.00    +0.032 A 
ATOM     16  C   LIG    1        0.640  -9.545  -4.983  0.00  0.00    +0.122 A 
ATOM     17  C   LIG    1        1.772  -9.184  -4.276  0.00  0.00    +0.037 A 
BRANCH  16  18
ATOM     18  N   LIG    1        0.029  -8.594  -5.939  0.00  0.00    +0.006 N 
ATOM     19  O   LIG    1       -1.013  -8.871  -6.485  0.00  0.00    -0.130 OA
BRANCH  18  20
ATOM     20  O   LIG    1        0.573  -7.541  -6.174  0.00  0.00    -0.396 OA
ATOM     21  H   LIG    1        1.381  -7.326  -5.751  0.00  0.00    +0.329 HD
ENDBRANCH  18  20
ENDBRANCH  16  18
ENDBRANCH   6  12
BRANCH   5  22
ATOM     22  C   LIG    1        5.352 -10.673  -4.110  0.00  0.00    +0.337 C 
ATOM     23  O   LIG    1        6.231 -11.486  -4.330  0.00  0.00    -0.245 OA
BRANCH  22  24
ATOM     24  O   LIG    1        5.036  -9.752  -5.044  0.00  0.00    -0.465 OA
ATOM     25  C   LIG    1        5.773  -9.789  -6.268  0.00  0.00    +0.280 C 
ENDBRANCH  22  24
ENDBRANCH   5  22
ENDBRANCH   1   7
BRANCH   1  26
ATOM     26  O   LIG    1        1.206  -8.626  -0.403  0.00  0.00    -0.460 OA
BRANCH  26  27
ATOM     27  C   LIG    1        0.556  -7.500   0.190  0.00  0.00    +0.248 C 
BRANCH  27  28
ATOM     28  C   LIG    1       -0.892  -7.865   0.523  0.00  0.00    +0.125 C 
BRANCH  28  29
ATOM     29  N   LIG    1       -1.614  -8.185  -0.716  0.00  0.00    -0.303 NA
ATOM     30  C   LIG    1       -1.876  -6.971  -1.502  0.00  0.00    +0.066 C 
ATOM     31  C   LIG    1       -2.574  -7.353  -2.808  0.00  0.00    -0.062 C 
ATOM     32  N   LIG    1       -3.835  -8.044  -2.506  0.00  0.00    +0.389 N 
ATOM     33  H   LIG    1       -4.429  -7.436  -1.962  0.00  0.00    -0.080 HD
ATOM     34  C   LIG    1       -3.555  -9.267  -1.743  0.00  0.00    -0.062 C 
ATOM     35  C   LIG    1       -2.865  -8.900  -0.427  0.00  0.00    +0.066 C 
BRANCH  32  36
ATOM     36  C   LIG    1       -4.514  -8.395  -3.761  0.00  0.00    -0.007 C 
BRANCH  36  37
ATOM     37  C   LIG    1       -4.847  -7.137  -4.521  0.00  0.00    -0.057 A 
ATOM     38  C   LIG    1       -5.414  -6.061  -3.863  0.00  0.00    +0.002 A 
ATOM     39  C   LIG    1       -5.720  -4.908  -4.560  0.00  0.00    +0.000 A 
ATOM     40  C   LIG    1       -5.457  -4.829  -5.915  0.00  0.00    +0.000 A 
ATOM     41  C   LIG    1       -4.889  -5.904  -6.573  0.00  0.00    +0.000 A 
ATOM     42  C   LIG    1       -4.580  -7.056  -5.875  0.00  0.00    +0.002 A 
ENDBRANCH  36  37
BRANCH  36  43
ATOM     43  C   LIG    1       -5.783  -9.146  -3.453  0.00  0.00    -0.057 A 
ATOM     44  C   LIG    1       -6.580  -8.752  -2.394  0.00  0.00    +0.002 A 
ATOM     45  C   LIG    1       -7.744  -9.441  -2.111  0.00  0.00    +0.000 A 
ATOM     46  C   LIG    1       -8.112 -10.524  -2.887  0.00  0.00    +0.000 A 
ATOM     47  C   LIG    1       -7.316 -10.918  -3.946  0.00  0.00    +0.000 A 
ATOM     48  C   LIG    1       -6.154 -10.226  -4.232  0.00  0.00    +0.002 A 
ENDBRANCH  36  43
ENDBRANCH  32  36
ENDBRANCH  28  29
ENDBRANCH  27  28
ENDBRANCH  26  27
ENDBRANCH   1  26
TORSDOF 13
