REMARK  Name = ZINC21991123
REMARK                            x       y       z     vdW  Elec       q    Type
REMARK                         _______ _______ _______ _____ _____    ______ ____
ROOT
ATOM      1  C   LIG    1       -2.124   1.005   1.496  0.00  0.00    +0.008 C 
ATOM      2  C   LIG    1       -3.189   2.000   1.029  0.00  0.00    +0.021 C 
ATOM      3  C   LIG    1       -3.024   1.698   2.521  0.00  0.00    +0.056 C 
ENDROOT
BRANCH   3   4
ATOM      4  C   LIG    1       -2.402   2.767   3.382  0.00  0.00    +0.309 C 
ATOM      5  O   LIG    1       -1.288   3.166   3.140  0.00  0.00    -0.250 OA
BRANCH   4   6
ATOM      6  O   LIG    1       -3.087   3.276   4.419  0.00  0.00    -0.480 OA
ATOM      7  H   LIG    1       -3.951   2.966   4.607  0.00  0.00    +0.295 HD
ENDBRANCH   4   6
ENDBRANCH   3   4
BRANCH   1   8
ATOM      8  C   LIG    1       -0.662   1.450   1.425  0.00  0.00    -0.007 C 
BRANCH   8  10
ATOM      9  C   LIG    1       -0.621   1.276  -1.067  0.00  0.00    +0.004 C 
ATOM     10  C   LIG    1        0.018   0.777   0.230  0.00  0.00    +0.000 C 
ENDBRANCH   8  10
BRANCH   8  11
ATOM     11  C   LIG    1        0.057   1.048   2.714  0.00  0.00    +0.000 C 
ATOM     12  C   LIG    1        1.472   1.631   2.712  0.00  0.00    +0.004 C 
ENDBRANCH   8  11
ENDBRANCH   1   8
BRANCH   3  13
ATOM     13  C   LIG    1       -4.107   0.854   3.195  0.00  0.00    -0.068 C 
BRANCH  13  14
ATOM     14  N   LIG    1       -4.862   1.689   4.139  0.00  0.00    +0.379 N 
ATOM     15  H   LIG    1       -4.179   2.088   4.904  0.00  0.00    -0.090 HD
ATOM     16  H   LIG    1       -5.332   2.523   3.596  0.00  0.00    -0.090 HD
ATOM     17  H   LIG    1       -5.641   1.082   4.624  0.00  0.00    -0.090 HD
ENDBRANCH  13  14
ENDBRANCH   3  13
TORSDOF 7
