REMARK  Name = ZINC18115268
REMARK                            x       y       z     vdW  Elec       q    Type
REMARK                         _______ _______ _______ _____ _____    ______ ____
ROOT
ATOM      1  C   LIG    1        1.511   0.407  -4.825  0.00  0.00    +0.106 C 
ENDROOT
BRANCH   1   2
ATOM      2  S   LIG    1        1.698  -0.135  -3.104  0.00  0.00    -0.151 S 
BRANCH   2   3
ATOM      3  C   LIG    1       -0.007  -0.350  -2.523  0.00  0.00    +0.124 C 
BRANCH   3   6
ATOM      4  C   LIG    1       -0.036   1.501   0.001  0.00  0.00    +0.065 C 
ATOM      5  C   LIG    1       -0.008  -0.006  -0.003  0.00  0.00    +0.034 A 
ATOM      6  C   LIG    1        0.005  -0.805  -1.087  0.00  0.00    +0.046 A 
ATOM      7  N   LIG    1        0.030  -2.078  -0.664  0.00  0.00    -0.349 N 
ATOM      8  H   LIG    1        0.043  -2.860  -1.237  0.00  0.00    +0.166 HD
ATOM      9  C   LIG    1        0.033  -2.097   0.641  0.00  0.00    +0.171 A 
ATOM     10  N   LIG    1        0.016  -0.825   1.093  0.00  0.00    -0.350 N 
ATOM     11  H   LIG    1        0.018  -0.543   2.022  0.00  0.00    +0.166 HD
ENDBRANCH   3   6
ENDBRANCH   2   3
ENDBRANCH   1   2
BRANCH   1  12
ATOM     12  C   LIG    1        2.893   0.628  -5.443  0.00  0.00    +0.206 C 
BRANCH  12  13
ATOM     13  N   LIG    1        2.742   1.066  -6.832  0.00  0.00    -0.274 N 
ATOM     14  H   LIG    1        1.861   1.102  -7.237  0.00  0.00    +0.258 HD
BRANCH  13  15
ATOM     15  C   LIG    1        3.849   1.427  -7.564  0.00  0.00    +0.395 C 
ATOM     16  N   LIG    1        3.707   1.912  -8.764  0.00  0.00    -0.116 NA
ATOM     17  C   LIG    1        2.367   2.180  -9.292  0.00  0.00    +0.291 C 
BRANCH  15  18
ATOM     18  N   LIG    1        5.111   1.275  -7.026  0.00  0.00    -0.178 N 
ATOM     19  H   LIG    1        5.216   0.913  -6.132  0.00  0.00    +0.278 HD
BRANCH  18  20
ATOM     20  C   LIG    1        6.202   1.630  -7.747  0.00  0.00    +0.255 C 
ATOM     21  N   LIG    1        7.116   1.928  -8.351  0.00  0.00    -0.154 NA
ENDBRANCH  18  20
ENDBRANCH  15  18
ENDBRANCH  13  15
ENDBRANCH  12  13
ENDBRANCH   1  12
TORSDOF 8
