REMARK  Name = ZINC29134545
REMARK                            x       y       z     vdW  Elec       q    Type
REMARK                         _______ _______ _______ _____ _____    ______ ____
ROOT
ATOM      1  C   LIG    1        3.517   0.740  -3.025  0.00  0.00    +0.205 C 
ATOM      2  C   LIG    1        4.067  -0.598  -3.525  0.00  0.00    +0.064 C 
ATOM      3  C   LIG    1        3.753  -1.627  -2.457  0.00  0.00    +0.037 C 
ATOM      4  C   LIG    1        4.170  -1.106  -1.079  0.00  0.00    +0.020 C 
ATOM      5  C   LIG    1        2.212  -1.812  -2.508  0.00  0.00    +0.037 C 
ATOM      6  C   LIG    1        1.595  -0.536  -2.044  0.00  0.00    +0.011 C 
ATOM      7  C   LIG    1        0.314  -0.591  -1.316  0.00  0.00    +0.224 C 
ATOM      8  O   LIG    1       -0.168  -1.669  -1.012  0.00  0.00    -0.284 OA
ATOM      9  C   LIG    1       -0.356   0.606  -0.971  0.00  0.00    +0.169 C 
ATOM     10  C   LIG    1        0.217   1.793  -1.253  0.00  0.00    +0.027 C 
ATOM     11  C   LIG    1       -0.515   3.054  -0.989  0.00  0.00    +0.080 C 
ATOM     12  C   LIG    1       -1.329   3.238   0.113  0.00  0.00    +0.086 C 
ATOM     13  C   LIG    1       -0.298   4.104  -2.020  0.00  0.00    +0.341 C 
ATOM     14  O   LIG    1       -1.188   4.857  -2.367  0.00  0.00    -0.245 OA
ATOM     15  O   LIG    1        0.950   4.173  -2.551  0.00  0.00    -0.454 OA
ATOM     16  C   LIG    1        1.531   2.920  -3.009  0.00  0.00    +0.217 C 
ATOM     17  C   LIG    1        1.587   1.927  -1.844  0.00  0.00    +0.061 C 
ATOM     18  C   LIG    1        2.495   2.521  -0.766  0.00  0.00    +0.025 C 
ATOM     19  C   LIG    1        2.032  -3.041  -1.614  0.00  0.00    +0.017 C 
ATOM     20  C   LIG    1        3.219  -3.945  -2.052  0.00  0.00    +0.075 C 
ATOM     21  C   LIG    1        4.273  -3.018  -2.654  0.00  0.00    +0.140 C 
ATOM     22  O   LIG    1        5.311  -3.340  -3.181  0.00  0.00    -0.297 OA
ATOM     23  C   LIG    1        2.196   0.625  -2.297  0.00  0.00    -0.008 C 
ENDROOT
BRANCH   9  24
ATOM     24  O   LIG    1       -1.573   0.559  -0.364  0.00  0.00    -0.503 OA
ATOM     25  H   LIG    1       -2.037  -0.411  -0.137  0.00  0.00    +0.292 HD
ENDBRANCH   9  24
BRANCH   1  26
ATOM     26  O   LIG    1        3.342   1.623  -4.164  0.00  0.00    -0.457 OA
BRANCH  26  28
ATOM     27  C   LIG    1        4.279   3.342  -5.669  0.00  0.00    +0.136 C 
ATOM     28  C   LIG    1        4.385   2.400  -4.498  0.00  0.00    +0.305 C 
ATOM     29  O   LIG    1        5.410   2.343  -3.860  0.00  0.00    -0.251 OA
ENDBRANCH  26  28
ENDBRANCH   1  26
BRANCH  12  30
ATOM     30  N   LIG    1       -1.167   2.465   1.210  0.00  0.00    -0.327 N 
BRANCH  30  31
ATOM     31  C   LIG    1       -2.309   2.185   2.083  0.00  0.00    +0.131 C 
BRANCH  31  32
ATOM     32  C   LIG    1       -3.014   0.941   1.606  0.00  0.00    -0.016 C 
ATOM     33  C   LIG    1       -3.205  -0.060   2.429  0.00  0.00    +0.005 C 
ENDBRANCH  31  32
ENDBRANCH  30  31
BRANCH  30  34
ATOM     34  C   LIG    1        0.150   1.907   1.525  0.00  0.00    +0.131 C 
BRANCH  34  35
ATOM     35  C   LIG    1        0.841   2.789   2.533  0.00  0.00    -0.016 C 
ATOM     36  C   LIG    1        1.281   2.279   3.656  0.00  0.00    +0.005 C 
ENDBRANCH  34  35
ENDBRANCH  30  34
ENDBRANCH  12  30
BRANCH  16  37
ATOM     37  C   LIG    1        0.671   2.339  -4.133  0.00  0.00    +0.205 C 
BRANCH  37  38
ATOM     38  O   LIG    1        0.714   3.211  -5.264  0.00  0.00    -0.379 OA
ATOM     39  C   LIG    1       -0.061   2.759  -6.376  0.00  0.00    +0.194 C 
ENDBRANCH  37  38
ENDBRANCH  16  37
TORSDOF 10
