REMARK  Name = ZINC32149231
REMARK                            x       y       z     vdW  Elec       q    Type
REMARK                         _______ _______ _______ _____ _____    ______ ____
ROOT
ATOM      1  S   LIG    1        2.687   0.907  -0.018  0.00  0.00    +0.025 S 
ATOM      2  O   LIG    1        2.432  -0.379   0.528  0.00  0.00    -0.164 OA
ATOM      3  O   LIG    1        3.660   1.787   0.528  0.00  0.00    -0.164 OA
ENDROOT
BRANCH   1   4
ATOM      4  C   LIG    1        1.155   1.776   0.001  0.00  0.00    +0.094 A 
ATOM      5  C   LIG    1        1.155   3.170   0.008  0.00  0.00    +0.028 A 
ATOM      6  C   LIG    1       -0.011   3.871   0.023  0.00  0.00    +0.010 A 
ATOM      7  C   LIG    1       -1.236   3.183   0.031  0.00  0.00    -0.018 A 
ATOM      8  C   LIG    1       -2.460   3.873   0.047  0.00  0.00    +0.008 A 
ATOM      9  C   LIG    1       -3.627   3.172   0.055  0.00  0.00    +0.001 A 
ATOM     10  C   LIG    1       -3.628   1.779   0.047  0.00  0.00    +0.001 A 
ATOM     11  C   LIG    1       -2.462   1.077   0.031  0.00  0.00    +0.008 A 
ATOM     12  C   LIG    1       -1.237   1.766   0.018  0.00  0.00    -0.016 A 
ATOM     13  C   LIG    1       -0.013   1.076   0.008  0.00  0.00    +0.036 A 
ENDBRANCH   1   4
BRANCH   1  18
ATOM     14  C   LIG    1        4.185   0.057  -5.801  0.00  0.00    +0.044 C 
ATOM     15  C   LIG    1        3.812   0.269  -4.356  0.00  0.00    -0.050 A 
ATOM     16  C   LIG    1        4.230   1.408  -3.694  0.00  0.00    +0.005 A 
ATOM     17  C   LIG    1        3.887   1.603  -2.369  0.00  0.00    +0.027 A 
ATOM     18  C   LIG    1        3.125   0.659  -1.707  0.00  0.00    +0.094 A 
ATOM     19  C   LIG    1        2.711  -0.483  -2.367  0.00  0.00    +0.027 A 
ATOM     20  C   LIG    1        3.050  -0.676  -3.693  0.00  0.00    +0.005 A 
ENDBRANCH   1  18
TORSDOF 2
