REMARK  Name = ZINC13861677
REMARK                            x       y       z     vdW  Elec       q    Type
REMARK                         _______ _______ _______ _____ _____    ______ ____
ROOT
ATOM      1  C   LIG    1        1.752   5.049  -1.298  0.00  0.00    +0.001 A 
ATOM      2  C   LIG    1        2.897   5.171  -0.531  0.00  0.00    +0.001 A 
ATOM      3  C   LIG    1        3.180   4.233   0.445  0.00  0.00    +0.016 A 
ATOM      4  C   LIG    1        2.318   3.170   0.655  0.00  0.00    +0.028 A 
ATOM      5  C   LIG    1        1.157   3.035  -0.119  0.00  0.00    +0.079 A 
ATOM      6  C   LIG    1        0.231   1.918   0.075  0.00  0.00    +0.322 C 
ATOM      7  N   LIG    1        0.480   0.685   0.248  0.00  0.00    -0.040 NA
ATOM      8  C   LIG    1        1.655   0.007   0.281  0.00  0.00    +0.190 A 
ATOM      9  C   LIG    1        1.759  -1.193  -0.432  0.00  0.00    +0.056 A 
ATOM     10  C   LIG    1        2.937  -1.913  -0.417  0.00  0.00    +0.004 A 
ATOM     11  C   LIG    1        4.025  -1.457   0.303  0.00  0.00    +0.001 A 
ATOM     12  C   LIG    1        3.938  -0.271   1.013  0.00  0.00    +0.019 A 
ATOM     13  C   LIG    1        2.763   0.461   1.003  0.00  0.00    +0.063 A 
ATOM     14  S   LIG    1        2.673   1.975   1.902  0.00  0.00    -0.084 S 
ATOM     15  C   LIG    1        0.885   3.994  -1.100  0.00  0.00    +0.017 A 
ENDROOT
BRANCH   6  16
ATOM     16  N   LIG    1       -1.104   2.252   0.064  0.00  0.00    -0.218 N 
ATOM     17  C   LIG    1       -2.143   1.211   0.088  0.00  0.00    +0.241 C 
ATOM     18  C   LIG    1       -3.132   1.543   1.216  0.00  0.00    +0.128 C 
ATOM     19  N   LIG    1       -3.631   2.913   1.035  0.00  0.00    -0.293 NA
ATOM     20  C   LIG    1       -2.543   3.895   1.147  0.00  0.00    +0.128 C 
ATOM     21  C   LIG    1       -1.530   3.659   0.022  0.00  0.00    +0.241 C 
BRANCH  19  22
ATOM     22  C   LIG    1       -4.708   3.211   1.988  0.00  0.00    +0.112 C 
BRANCH  22  23
ATOM     23  C   LIG    1       -4.276   2.794   3.395  0.00  0.00    +0.171 C 
BRANCH  23  24
ATOM     24  O   LIG    1       -3.189   3.618   3.823  0.00  0.00    -0.394 OA
ATOM     25  H   LIG    1       -2.741   3.466   4.816  0.00  0.00    +0.209 HD
ENDBRANCH  23  24
ENDBRANCH  22  23
ENDBRANCH  19  22
ENDBRANCH   6  16
TORSDOF 4
