REMARK  Name = ZINC22001688
REMARK                            x       y       z     vdW  Elec       q    Type
REMARK                         _______ _______ _______ _____ _____    ______ ____
ROOT
ATOM      1  C   LIG    1        9.483  -3.936   7.765  0.00  0.00    +0.248 C 
ATOM      2  N   LIG    1       10.664  -4.583   7.819  0.00  0.00    -0.279 N 
ATOM      3  H   LIG    1       11.085  -4.893   7.002  0.00  0.00    +0.155 HD
ATOM      4  O   LIG    1        8.916  -3.619   8.792  0.00  0.00    -0.270 OA
ENDROOT
BRANCH   2   5
ATOM      5  C   LIG    1       11.284  -4.806   9.054  0.00  0.00    +0.077 A 
ATOM      6  C   LIG    1       10.519  -5.057  10.181  0.00  0.00    +0.027 A 
ATOM      7  C   LIG    1       11.122  -5.280  11.410  0.00  0.00    +0.003 A 
ATOM      8  C   LIG    1       12.483  -5.256  11.531  0.00  0.00    +0.015 A 
ATOM      9  C   LIG    1       13.277  -5.006  10.408  0.00  0.00    +0.061 A 
ATOM     10  C   LIG    1       14.741  -4.973  10.503  0.00  0.00    +0.131 C 
ATOM     11  C   LIG    1       15.459  -4.732   9.336  0.00  0.00    +0.096 C 
ATOM     12  C   LIG    1       14.782  -4.519   8.146  0.00  0.00    +0.177 C 
ATOM     13  C   LIG    1       15.556  -4.254   6.923  0.00  0.00    +0.215 A 
ATOM     14  N   LIG    1       15.067  -4.024   5.702  0.00  0.00    -0.236 N 
ATOM     15  N   LIG    1       16.069  -3.840   4.912  0.00  0.00    -0.046 NA
ATOM     16  N   LIG    1       17.163  -3.944   5.582  0.00  0.00    -0.023 NA
ATOM     17  H   LIG    1       14.130  -4.000   5.454  0.00  0.00    +0.192 HD
ATOM     18  N   LIG    1       16.885  -4.192   6.816  0.00  0.00    -0.105 NA
ATOM     19  O   LIG    1       13.445  -4.546   8.074  0.00  0.00    -0.450 OA
ATOM     20  C   LIG    1       12.677  -4.784   9.156  0.00  0.00    +0.160 A 
BRANCH  10  21
ATOM     21  O   LIG    1       15.369  -5.184  11.679  0.00  0.00    -0.506 OA
ATOM     22  H   LIG    1       16.334  -5.139  11.623  0.00  0.00    +0.292 HD
ENDBRANCH  10  21
ENDBRANCH   2   5
BRANCH   1  26
ATOM     23  C   LIG    1        7.744  -3.004   4.005  0.00  0.00    +0.121 A 
ATOM     24  C   LIG    1        7.094  -2.641   5.178  0.00  0.00    +0.046 A 
ATOM     25  C   LIG    1        7.654  -2.941   6.399  0.00  0.00    +0.016 A 
ATOM     26  C   LIG    1        8.879  -3.612   6.458  0.00  0.00    +0.037 A 
ATOM     27  C   LIG    1        9.530  -3.975   5.276  0.00  0.00    +0.016 A 
ATOM     28  C   LIG    1        8.960  -3.676   4.059  0.00  0.00    +0.046 A 
BRANCH  23  29
ATOM     29  O   LIG    1        7.188  -2.706   2.803  0.00  0.00    -0.492 OA
BRANCH  29  30
ATOM     30  C   LIG    1        5.938  -2.014   2.820  0.00  0.00    +0.229 C 
BRANCH  30  31
ATOM     31  C   LIG    1        5.472  -1.768   1.384  0.00  0.00    +0.041 C 
BRANCH  31  32
ATOM     32  C   LIG    1        4.134  -1.026   1.402  0.00  0.00    +0.008 C 
BRANCH  32  33
ATOM     33  C   LIG    1        3.667  -0.780  -0.034  0.00  0.00    +0.035 C 
BRANCH  33  37
ATOM     34  C   LIG    1       -0.070   1.289   0.014  0.00  0.00    +0.000 A 
ATOM     35  C   LIG    1        1.115   2.001  -0.001  0.00  0.00    +0.000 A 
ATOM     36  C   LIG    1        2.324   1.332  -0.017  0.00  0.00    +0.003 A 
ATOM     37  C   LIG    1        2.349  -0.050  -0.016  0.00  0.00    -0.047 A 
ATOM     38  C   LIG    1        1.165  -0.763  -0.000  0.00  0.00    +0.003 A 
ATOM     39  C   LIG    1       -0.045  -0.093   0.014  0.00  0.00    +0.000 A 
ENDBRANCH  33  37
ENDBRANCH  32  33
ENDBRANCH  31  32
ENDBRANCH  30  31
ENDBRANCH  29  30
ENDBRANCH  23  29
ENDBRANCH   1  26
TORSDOF 9
