REMARK  Name = ZINC58563818
REMARK                            x       y       z     vdW  Elec       q    Type
REMARK                         _______ _______ _______ _____ _____    ______ ____
ROOT
ATOM      1  C   LIG    1        2.092  -3.081  -0.566  0.00  0.00    +0.198 C 
ATOM      2  N   LIG    1        2.936  -3.706  -1.364  0.00  0.00    -0.286 NA
ATOM      3  H   LIG    1        2.640  -4.010  -2.236  0.00  0.00    +0.125 HD
ATOM      4  C   LIG    1        4.203  -3.925  -0.977  0.00  0.00    +0.065 C 
ATOM      5  C   LIG    1        5.122  -4.585  -1.801  0.00  0.00    +0.053 C 
ATOM      6  C   LIG    1        6.411  -4.784  -1.357  0.00  0.00    +0.148 C 
ATOM      7  C   LIG    1        6.809  -4.334  -0.091  0.00  0.00    +0.147 C 
ATOM      8  C   LIG    1        5.928  -3.688   0.729  0.00  0.00    +0.042 C 
ATOM      9  C   LIG    1        4.612  -3.472   0.301  0.00  0.00    +0.040 C 
ATOM     10  C   LIG    1        3.663  -2.807   1.114  0.00  0.00    +0.129 C 
ATOM     11  N   LIG    1        2.438  -2.635   0.638  0.00  0.00    -0.273 NA
ATOM     12  H   LIG    1        1.806  -3.082   1.303  0.00  0.00    +0.126 HD
ENDROOT
BRANCH   1  19
ATOM     13  C   LIG    1       -1.815  -6.180  -1.932  0.00  0.00    -0.096 C 
ATOM     14  N   LIG    1       -1.321  -4.806  -1.769  0.00  0.00    +0.379 N 
ATOM     15  H   LIG    1       -1.956  -4.182  -2.245  0.00  0.00    -0.082 HD
ATOM     16  C   LIG    1       -1.338  -4.476  -0.345  0.00  0.00    -0.078 C 
ATOM     17  C   LIG    1       -1.550  -2.987  -0.181  0.00  0.00    -0.003 C 
ATOM     18  C   LIG    1       -0.185  -2.284  -0.069  0.00  0.00    +0.085 C 
ATOM     19  N   LIG    1        0.795  -2.876  -1.002  0.00  0.00    -0.277 NA
ATOM     20  C   LIG    1        0.447  -3.249  -2.358  0.00  0.00    +0.068 C 
ATOM     21  C   LIG    1       -0.055  -4.711  -2.387  0.00  0.00    -0.064 C 
ENDBRANCH   1  19
BRANCH   7  22
ATOM     22  O   LIG    1        8.087  -4.543   0.327  0.00  0.00    -0.377 OA
ATOM     23  C   LIG    1        8.432  -4.061   1.627  0.00  0.00    +0.194 C 
ENDBRANCH   7  22
BRANCH  10  24
ATOM     24  N   LIG    1        4.006  -2.344   2.367  0.00  0.00    -0.298 NA
ATOM     25  H   LIG    1        4.907  -2.473   2.702  0.00  0.00    +0.124 HD
BRANCH  24  26
ATOM     26  C   LIG    1        3.009  -1.658   3.193  0.00  0.00    +0.052 C 
ATOM     27  C   LIG    1        2.974  -0.172   2.825  0.00  0.00    -0.000 C 
ATOM     28  C   LIG    1        1.988   0.552   3.745  0.00  0.00    -0.078 C 
ATOM     29  N   LIG    1        2.416   0.402   5.141  0.00  0.00    +0.378 N 
ATOM     30  H   LIG    1        3.355   0.755   5.244  0.00  0.00    -0.082 HD
ATOM     31  C   LIG    1        1.511   1.164   6.013  0.00  0.00    -0.096 C 
ATOM     32  C   LIG    1        2.382  -1.015   5.522  0.00  0.00    -0.078 C 
ATOM     33  C   LIG    1        3.383  -1.800   4.671  0.00  0.00    -0.000 C 
ENDBRANCH  24  26
ENDBRANCH  10  24
BRANCH   6  34
ATOM     34  O   LIG    1        7.305  -5.425  -2.154  0.00  0.00    -0.372 OA
BRANCH  34  35
ATOM     35  C   LIG    1        6.838  -5.860  -3.433  0.00  0.00    +0.188 C 
BRANCH  35  36
ATOM     36  C   LIG    1        7.978  -6.554  -4.182  0.00  0.00    +0.187 C 
BRANCH  36  37
ATOM     37  O   LIG    1        8.346  -7.748  -3.488  0.00  0.00    -0.379 OA
BRANCH  37  38
ATOM     38  C   LIG    1        9.408  -8.476  -4.107  0.00  0.00    +0.141 C 
BRANCH  38  39
ATOM     39  C   LIG    1        9.717  -9.727  -3.283  0.00  0.00    -0.051 C 
BRANCH  39  40
ATOM     40  N   LIG    1        8.557 -10.628  -3.306  0.00  0.00    +0.377 N 
ATOM     41  H   LIG    1        7.735 -10.125  -3.008  0.00  0.00    -0.083 HD
ATOM     42  C   LIG    1        8.796 -11.757  -2.397  0.00  0.00    -0.097 C 
ATOM     43  C   LIG    1        8.355 -11.132  -4.671  0.00  0.00    -0.097 C 
ENDBRANCH  39  40
ENDBRANCH  38  39
ENDBRANCH  37  38
ENDBRANCH  36  37
ENDBRANCH  35  36
ENDBRANCH  34  35
ENDBRANCH   6  34
TORSDOF 11
