REMARK  Name = ZINC28349959
REMARK                            x       y       z     vdW  Elec       q    Type
REMARK                         _______ _______ _______ _____ _____    ______ ____
ROOT
ATOM      1  C   LIG    1       -2.428   0.940   0.019  0.00  0.00    +0.026 A 
ATOM      2  C   LIG    1       -3.610   1.656   0.029  0.00  0.00    +0.035 A 
ATOM      3  C   LIG    1       -3.561   3.050   0.036  0.00  0.00    +0.126 A 
ATOM      4  N   LIG    1       -2.395   3.688   0.035  0.00  0.00    -0.249 NA
ATOM      5  C   LIG    1       -1.253   3.039   0.030  0.00  0.00    +0.134 A 
ATOM      6  C   LIG    1       -1.225   1.645   0.017  0.00  0.00    +0.043 A 
ENDROOT
BRANCH   3   7
ATOM      7  C   LIG    1       -4.819   3.826   0.047  0.00  0.00    +0.268 C 
ATOM      8  N   LIG    1       -4.779   5.173   0.055  0.00  0.00    -0.259 N 
ATOM      9  H   LIG    1       -3.811   5.695   0.053  0.00  0.00    +0.157 HD
ATOM     10  O   LIG    1       -5.889   3.249   0.049  0.00  0.00    -0.268 OA
BRANCH   8  11
ATOM     11  C   LIG    1       -5.961   5.902   0.065  0.00  0.00    +0.165 A 
ATOM     12  N   LIG    1       -7.205   5.464   0.063  0.00  0.00    -0.233 NA
ATOM     13  C   LIG    1       -8.224   6.301   0.078  0.00  0.00    +0.120 A 
ATOM     14  C   LIG    1       -7.967   7.632   0.085  0.00  0.00    +0.068 A 
ATOM     15  S   LIG    1       -6.181   7.625   0.076  0.00  0.00    -0.061 S 
ENDBRANCH   8  11
ENDBRANCH   3   7
BRANCH   6  16
ATOM     16  N   LIG    1       -0.011   0.966   0.007  0.00  0.00    -0.357 N 
ATOM     17  H   LIG    1        0.004  -0.134   0.001  0.00  0.00    +0.142 HD
ATOM     18  H   LIG    1        0.934   1.529   0.006  0.00  0.00    +0.142 HD
ENDBRANCH   6  16
TORSDOF 3
