REMARK  Name = ZINC16346669
REMARK                            x       y       z     vdW  Elec       q    Type
REMARK                         _______ _______ _______ _____ _____    ______ ____
ROOT
ATOM      1  C   LIG    1       -2.429  -4.149  -0.167  0.00  0.00    +0.035 A 
ATOM      2  C   LIG    1       -1.221  -4.834  -0.175  0.00  0.00    +0.025 A 
ATOM      3  C   LIG    1       -1.212  -6.215  -0.178  0.00  0.00    +0.030 A 
ATOM      4  C   LIG    1       -2.404  -6.915  -0.173  0.00  0.00    +0.109 A 
ATOM      5  C   LIG    1       -3.609  -6.236  -0.165  0.00  0.00    +0.030 A 
ATOM      6  C   LIG    1       -3.625  -4.855  -0.156  0.00  0.00    +0.025 A 
ENDROOT
BRANCH   1  10
ATOM      7  N   LIG    1       -1.427  -0.721  -0.717  0.00  0.00    -0.269 N 
ATOM      8  H   LIG    1       -2.041  -0.252  -0.130  0.00  0.00    +0.156 HD
ATOM      9  C   LIG    1       -1.475  -2.065  -0.806  0.00  0.00    +0.308 C 
ATOM     10  N   LIG    1       -2.442  -2.749  -0.163  0.00  0.00    -0.269 N 
ATOM     11  H   LIG    1       -3.147  -2.272   0.301  0.00  0.00    +0.156 HD
ATOM     12  O   LIG    1       -0.645  -2.660  -1.467  0.00  0.00    -0.252 OA
BRANCH   7  18
ATOM     13  C   LIG    1       -0.110  -0.459  -2.724  0.00  0.00    +0.025 A 
ATOM     14  C   LIG    1        0.813   0.253  -3.465  0.00  0.00    +0.034 A 
ATOM     15  C   LIG    1        1.359   1.418  -2.957  0.00  0.00    +0.122 A 
ATOM     16  C   LIG    1        0.982   1.874  -1.708  0.00  0.00    +0.034 A 
ATOM     17  C   LIG    1        0.059   1.167  -0.962  0.00  0.00    +0.025 A 
ATOM     18  C   LIG    1       -0.491  -0.003  -1.469  0.00  0.00    +0.035 A 
BRANCH  15  19
ATOM     19  N   LIG    1        2.349   2.178  -3.753  0.00  0.00    +0.006 N 
ATOM     20  O   LIG    1        2.680   1.780  -4.846  0.00  0.00    -0.130 OA
BRANCH  19  21
ATOM     21  O   LIG    1        2.827   3.196  -3.311  0.00  0.00    -0.396 OA
ATOM     22  H   LIG    1        2.570   3.505  -2.464  0.00  0.00    +0.329 HD
ENDBRANCH  19  21
ENDBRANCH  15  19
ENDBRANCH   7  18
ENDBRANCH   1  10
BRANCH   4  23
ATOM     23  S   LIG    1       -2.388  -8.677  -0.178  0.00  0.00    +0.072 S 
ATOM     24  O   LIG    1       -1.142  -9.071  -0.736  0.00  0.00    -0.150 OA
ATOM     25  O   LIG    1       -3.633  -9.093  -0.723  0.00  0.00    -0.150 OA
BRANCH  23  26
ATOM     26  N   LIG    1       -2.375  -9.171   1.403  0.00  0.00    -0.216 N 
ATOM     27  H   LIG    1       -2.377  -8.504   2.127  0.00  0.00    +0.174 HD
BRANCH  26  28
ATOM     28  C   LIG    1       -2.361 -10.534   1.709  0.00  0.00    +0.050 A 
ATOM     29  C   LIG    1       -2.352 -11.477   0.688  0.00  0.00    +0.026 A 
ATOM     30  C   LIG    1       -2.338 -12.824   0.993  0.00  0.00    +0.023 A 
ATOM     31  C   LIG    1       -2.334 -13.236   2.314  0.00  0.00    +0.059 A 
ATOM     32 CL   LIG    1       -2.317 -14.930   2.693  0.00  0.00    -0.082 Cl
ATOM     33  C   LIG    1       -2.343 -12.299   3.334  0.00  0.00    +0.061 A 
ATOM     34 CL   LIG    1       -2.338 -12.820   4.990  0.00  0.00    -0.082 Cl
ATOM     35  C   LIG    1       -2.350 -10.950   3.034  0.00  0.00    +0.046 A 
ENDBRANCH  26  28
ENDBRANCH  23  26
ENDBRANCH   4  23
TORSDOF 7
