REMARK  Name = ZINC22449469
REMARK                            x       y       z     vdW  Elec       q    Type
REMARK                         _______ _______ _______ _____ _____    ______ ____
ROOT
ATOM      1  C   LIG    1        6.365  -9.133   5.105  0.00  0.00    +0.051 C 
ATOM      2  C   LIG    1        6.395  -9.855   6.295  0.00  0.00    +0.068 C 
ATOM      3  C   LIG    1        6.945 -11.209   6.501  0.00  0.00    +0.010 A 
ATOM      4  C   LIG    1        7.561 -12.133   5.658  0.00  0.00    +0.011 A 
ATOM      5  C   LIG    1        7.974 -13.337   6.150  0.00  0.00    +0.016 A 
ATOM      6  C   LIG    1        7.782 -13.648   7.502  0.00  0.00    +0.061 A 
ATOM      7  C   LIG    1        7.166 -12.729   8.355  0.00  0.00    +0.039 A 
ATOM      8  C   LIG    1        6.746 -11.506   7.860  0.00  0.00    +0.042 A 
ATOM      9  N   LIG    1        6.118 -10.419   8.456  0.00  0.00    -0.281 N 
ATOM     10  H   LIG    1        5.869 -10.373   9.392  0.00  0.00    +0.155 HD
ATOM     11  C   LIG    1        5.908  -9.438   7.562  0.00  0.00    +0.251 C 
ATOM     12  O   LIG    1        5.381  -8.365   7.800  0.00  0.00    -0.270 OA
ENDROOT
BRANCH   1  13
ATOM     13  C   LIG    1        6.773  -9.776   3.843  0.00  0.00    -0.003 A 
ATOM     14  C   LIG    1        6.191 -10.985   3.450  0.00  0.00    +0.010 A 
ATOM     15  C   LIG    1        6.578 -11.580   2.268  0.00  0.00    +0.001 A 
ATOM     16  C   LIG    1        7.539 -10.984   1.471  0.00  0.00    +0.000 A 
ATOM     17  C   LIG    1        8.120  -9.787   1.853  0.00  0.00    +0.001 A 
ATOM     18  C   LIG    1        7.739  -9.177   3.030  0.00  0.00    +0.010 A 
ENDBRANCH   1  13
BRANCH   1  19
ATOM     19  N   LIG    1        5.957  -7.826   5.108  0.00  0.00    -0.313 N 
ATOM     20  H   LIG    1        6.426  -7.173   5.651  0.00  0.00    +0.152 HD
BRANCH  19  24
ATOM     21  C   LIG    1        2.704  -6.655   2.781  0.00  0.00    +0.036 A 
ATOM     22  C   LIG    1        3.477  -5.698   3.425  0.00  0.00    +0.025 A 
ATOM     23  C   LIG    1        4.555  -6.085   4.196  0.00  0.00    +0.025 A 
ATOM     24  C   LIG    1        4.865  -7.433   4.327  0.00  0.00    +0.031 A 
ATOM     25  C   LIG    1        4.091  -8.390   3.683  0.00  0.00    +0.025 A 
ATOM     26  C   LIG    1        3.011  -8.003   2.917  0.00  0.00    +0.025 A 
BRANCH  21  28
ATOM     27  C   LIG    1        1.812  -5.571   0.858  0.00  0.00    +0.234 C 
ATOM     28  N   LIG    1        1.611  -6.261   1.998  0.00  0.00    -0.273 N 
ATOM     29  C   LIG    1        0.249  -6.600   2.419  0.00  0.00    +0.138 C 
ATOM     30  O   LIG    1        2.930  -5.213   0.555  0.00  0.00    -0.274 OA
BRANCH  27  31
ATOM     31  C   LIG    1        0.647  -5.244  -0.040  0.00  0.00    +0.180 C 
BRANCH  31  37
ATOM     32  C   LIG    1        1.620  -1.586  -4.213  0.00  0.00    -0.096 C 
ATOM     33  N   LIG    1        1.104  -2.298  -3.037  0.00  0.00    +0.379 N 
ATOM     34  H   LIG    1        0.344  -1.772  -2.632  0.00  0.00    -0.082 HD
ATOM     35  C   LIG    1        0.621  -3.625  -3.441  0.00  0.00    -0.064 C 
ATOM     36  C   LIG    1        0.066  -4.360  -2.219  0.00  0.00    +0.066 C 
ATOM     37  N   LIG    1        1.125  -4.492  -1.208  0.00  0.00    -0.298 NA
ATOM     38  C   LIG    1        1.636  -3.172  -0.811  0.00  0.00    +0.066 C 
ATOM     39  C   LIG    1        2.178  -2.447  -2.045  0.00  0.00    -0.064 C 
ENDBRANCH  31  37
ENDBRANCH  27  31
ENDBRANCH  21  28
ENDBRANCH  19  24
ENDBRANCH   1  19
BRANCH   6  40
ATOM     40  C   LIG    1        8.230 -14.950   8.027  0.00  0.00    +0.339 C 
ATOM     41  O   LIG    1        8.065 -15.222   9.200  0.00  0.00    -0.245 OA
BRANCH  40  42
ATOM     42  O   LIG    1        8.824 -15.839   7.206  0.00  0.00    -0.464 OA
ATOM     43  C   LIG    1        9.234 -17.081   7.782  0.00  0.00    +0.280 C 
ENDBRANCH  40  42
ENDBRANCH   6  40
TORSDOF 8
