REMARK  Name = ZINC18324776
REMARK                            x       y       z     vdW  Elec       q    Type
REMARK                         _______ _______ _______ _____ _____    ______ ____
ROOT
ATOM      1  C   LIG    1       -3.402  -3.201  -3.622  0.00  0.00    +0.062 A 
ATOM      2  C   LIG    1       -4.223  -4.227  -4.092  0.00  0.00    +0.043 A 
ATOM      3  C   LIG    1       -5.396  -3.922  -4.751  0.00  0.00    +0.106 A 
ATOM      4  C   LIG    1       -5.763  -2.602  -4.948  0.00  0.00    +0.032 A 
ATOM      5  C   LIG    1       -4.958  -1.577  -4.487  0.00  0.00    +0.048 A 
ATOM      6  C   LIG    1       -3.780  -1.867  -3.818  0.00  0.00    +0.131 A 
ENDROOT
BRANCH   1  16
ATOM      7  C   LIG    1        0.739  -2.004  -1.265  0.00  0.00    +0.132 A 
ATOM      8  N   LIG    1        1.679  -2.753  -0.738  0.00  0.00    -0.235 NA
ATOM      9  C   LIG    1        1.387  -4.041  -0.921  0.00  0.00    +0.071 A 
ATOM     10  C   LIG    1        2.212  -5.217  -0.465  0.00  0.00    +0.068 C 
ATOM     11  C   LIG    1        0.196  -4.098  -1.602  0.00  0.00    +0.152 A 
ATOM     12  C   LIG    1       -0.654  -5.178  -2.103  0.00  0.00    +0.278 A 
ATOM     13  O   LIG    1       -0.344  -6.344  -1.941  0.00  0.00    -0.265 OA
ATOM     14  N   LIG    1       -1.801  -4.846  -2.737  0.00  0.00    -0.304 N 
ATOM     15  H   LIG    1       -2.384  -5.544  -3.075  0.00  0.00    +0.170 HD
ATOM     16  C   LIG    1       -2.145  -3.521  -2.915  0.00  0.00    +0.165 A 
ATOM     17  N   LIG    1       -1.403  -2.543  -2.482  0.00  0.00    -0.146 NA
ATOM     18  N   LIG    1       -0.204  -2.789  -1.808  0.00  0.00    -0.210 N 
BRANCH   7  19
ATOM     19  C   LIG    1        0.718  -0.497  -1.257  0.00  0.00    +0.076 C 
BRANCH  19  21
ATOM     20  C   LIG    1       -0.019   1.526   0.010  0.00  0.00    +0.004 C 
ATOM     21  C   LIG    1        0.002  -0.004   0.002  0.00  0.00    +0.004 C 
ENDBRANCH  19  21
ENDBRANCH   7  19
ENDBRANCH   1  16
BRANCH   3  22
ATOM     22  S   LIG    1       -6.431  -5.218  -5.346  0.00  0.00    +0.061 S 
ATOM     23  O   LIG    1       -5.598  -6.357  -5.517  0.00  0.00    -0.153 OA
ATOM     24  O   LIG    1       -7.199  -4.670  -6.407  0.00  0.00    -0.153 OA
BRANCH  22  25
ATOM     25  N   LIG    1       -7.496  -5.590  -4.133  0.00  0.00    -0.174 NA
ATOM     26  C   LIG    1       -7.167  -6.609  -3.126  0.00  0.00    +0.125 C 
ATOM     27  C   LIG    1       -7.395  -6.010  -1.734  0.00  0.00    +0.101 C 
ATOM     28  N   LIG    1       -8.761  -5.474  -1.653  0.00  0.00    -0.300 NA
ATOM     29  C   LIG    1       -8.959  -4.376  -2.607  0.00  0.00    +0.101 C 
ATOM     30  C   LIG    1       -8.793  -4.904  -4.032  0.00  0.00    +0.125 C 
BRANCH  28  31
ATOM     31  C   LIG    1       -9.078  -5.046  -0.284  0.00  0.00    +0.081 C 
ATOM     32  C   LIG    1      -10.571  -4.731  -0.181  0.00  0.00    +0.020 C 
ENDBRANCH  28  31
ENDBRANCH  22  25
ENDBRANCH   3  22
BRANCH   6  33
ATOM     33  O   LIG    1       -2.991  -0.861  -3.359  0.00  0.00    -0.492 OA
BRANCH  33  34
ATOM     34  C   LIG    1       -3.441   0.475  -3.596  0.00  0.00    +0.226 C 
ATOM     35  C   LIG    1       -2.430   1.464  -3.011  0.00  0.00    +0.048 C 
ENDBRANCH  33  34
ENDBRANCH   6  33
TORSDOF 8
