REMARK  Name = ZINC38476029
REMARK                            x       y       z     vdW  Elec       q    Type
REMARK                         _______ _______ _______ _____ _____    ______ ____
ROOT
ATOM      1  C   LIG    1       -0.017   1.376   0.010  0.00  0.00    +0.001 A 
ATOM      2  C   LIG    1        1.169   2.089   0.002  0.00  0.00    +0.004 A 
ATOM      3  C   LIG    1        2.382   1.425  -0.013  0.00  0.00    +0.046 A 
ATOM      4  C   LIG    1        2.415   0.040  -0.021  0.00  0.00    +0.126 A 
ATOM      5  C   LIG    1        1.218  -0.682  -0.013  0.00  0.00    +0.041 A 
ATOM      6  C   LIG    1        0.002  -0.004   0.002  0.00  0.00    +0.013 A 
ENDROOT
BRANCH   5   7
ATOM      7  C   LIG    1        1.244  -2.166  -0.022  0.00  0.00    +0.067 A 
ATOM      8  C   LIG    1        2.095  -2.949  -0.736  0.00  0.00    +0.110 A 
ATOM      9  N   LIG    1        1.770  -4.245  -0.448  0.00  0.00    -0.352 N 
ATOM     10  C   LIG    1        0.740  -4.220   0.425  0.00  0.00    +0.171 A 
ATOM     11  H   LIG    1        2.201  -5.038  -0.805  0.00  0.00    +0.166 HD
ATOM     12  N   LIG    1        0.431  -2.980   0.682  0.00  0.00    -0.346 N 
ATOM     13  H   LIG    1       -0.273  -2.688   1.282  0.00  0.00    +0.167 HD
ENDBRANCH   5   7
BRANCH   4  14
ATOM     14  O   LIG    1        3.606  -0.613  -0.037  0.00  0.00    -0.506 OA
ATOM     15  H   LIG    1        3.960  -0.807   0.842  0.00  0.00    +0.292 HD
ENDBRANCH   4  14
TORSDOF 2
