REMARK  Name = ZINC27558642
REMARK                            x       y       z     vdW  Elec       q    Type
REMARK                         _______ _______ _______ _____ _____    ______ ____
ROOT
ATOM      1  C   LIG    1       -1.037  -1.037   0.006  0.00  0.00    -0.021 A 
ATOM      2  C   LIG    1       -0.411  -2.224  -0.006  0.00  0.00    +0.087 A 
ATOM      3  N   LIG    1        0.945  -2.036  -0.018  0.00  0.00    -0.360 N 
ATOM      4  C   LIG    1        1.231  -0.689  -0.013  0.00  0.00    +0.047 A 
ATOM      5  C   LIG    1        2.417   0.038  -0.021  0.00  0.00    +0.026 A 
ATOM      6  C   LIG    1        2.375   1.415  -0.013  0.00  0.00    +0.002 A 
ATOM      7  C   LIG    1        1.160   2.086   0.002  0.00  0.00    +0.001 A 
ATOM      8  C   LIG    1       -0.017   1.392   0.010  0.00  0.00    +0.010 A 
ATOM      9  H   LIG    1        1.620  -2.904  -0.029  0.00  0.00    +0.165 HD
ATOM     10  C   LIG    1        0.002  -0.004   0.002  0.00  0.00    +0.003 A 
ENDROOT
BRANCH   1  12
ATOM     11  C   LIG    1       -3.128  -1.452   1.273  0.00  0.00    +0.010 C 
ATOM     12  C   LIG    1       -2.527  -0.809   0.022  0.00  0.00    +0.000 C 
BRANCH  12  13
ATOM     13  C   LIG    1       -3.152  -1.438  -1.225  0.00  0.00    -0.079 C 
BRANCH  13  14
ATOM     14  N   LIG    1       -4.584  -1.114  -1.271  0.00  0.00    +0.379 N 
ATOM     15  H   LIG    1       -5.079  -1.511  -0.373  0.00  0.00    -0.090 HD
ATOM     16  H   LIG    1       -4.712  -0.022  -1.308  0.00  0.00    -0.090 HD
ATOM     17  H   LIG    1       -5.033  -1.567  -2.168  0.00  0.00    -0.090 HD
ENDBRANCH  13  14
ENDBRANCH  12  13
ENDBRANCH   1  12
TORSDOF 3
