REMARK  Name = ZINC64485594
REMARK                            x       y       z     vdW  Elec       q    Type
REMARK                         _______ _______ _______ _____ _____    ______ ____
ROOT
ATOM      1  C   LIG    1        0.516  -2.044   1.256  0.00  0.00    +0.049 C 
ENDROOT
BRANCH   1   2
ATOM      2  C   LIG    1        1.238  -2.581   2.465  0.00  0.00    -0.043 A 
ATOM      3  C   LIG    1        2.558  -2.979   2.361  0.00  0.00    +0.004 A 
ATOM      4  C   LIG    1        3.224  -3.472   3.467  0.00  0.00    +0.004 A 
ATOM      5  C   LIG    1        2.571  -3.568   4.681  0.00  0.00    +0.045 A 
ATOM      6  C   LIG    1        1.246  -3.170   4.789  0.00  0.00    +0.120 A 
ATOM      7  C   LIG    1        0.583  -2.670   3.678  0.00  0.00    +0.049 A 
BRANCH   6   8
ATOM      8  O   LIG    1        0.602  -3.264   5.981  0.00  0.00    -0.495 OA
ATOM      9  C   LIG    1        1.349  -3.783   7.083  0.00  0.00    +0.277 C 
ENDBRANCH   6   8
ENDBRANCH   1   2
BRANCH   1  10
ATOM     10  C   LIG    1        0.706  -0.527   1.180  0.00  0.00    +0.070 C 
BRANCH  10  12
ATOM     11  C   LIG    1       -0.018   1.465   0.010  0.00  0.00    +0.084 C 
ATOM     12  N   LIG    1        0.002  -0.004   0.002  0.00  0.00    -0.358 NA
BRANCH  12  13
ATOM     13  N   LIG    1        0.594  -0.510  -1.226  0.00  0.00    +0.389 N 
ATOM     14  H   LIG    1        0.093  -0.137  -2.019  0.00  0.00    -0.065 HD
ATOM     15  H   LIG    1        0.537  -1.518  -1.236  0.00  0.00    -0.065 HD
ATOM     16  H   LIG    1        1.561  -0.228  -1.275  0.00  0.00    -0.065 HD
ENDBRANCH  12  13
ENDBRANCH  10  12
ENDBRANCH   1  10
TORSDOF 5
