REMARK  Name = ZINC18086647
REMARK                            x       y       z     vdW  Elec       q    Type
REMARK                         _______ _______ _______ _____ _____    ______ ____
ROOT
ATOM      1  C   LIG    1        0.001   1.379   0.130  0.00  0.00    +0.001 A 
ATOM      2  C   LIG    1        1.175   2.089  -0.005  0.00  0.00    +0.010 A 
ATOM      3  C   LIG    1        2.398   1.416  -0.149  0.00  0.00    +0.003 A 
ATOM      4  C   LIG    1        2.416   0.025  -0.154  0.00  0.00    -0.023 A 
ATOM      5  C   LIG    1        3.835  -0.464  -0.321  0.00  0.00    +0.043 C 
ATOM      6  C   LIG    1        4.715   0.789  -0.421  0.00  0.00    +0.064 C 
ATOM      7  C   LIG    1        1.224  -0.685  -0.016  0.00  0.00    +0.065 A 
ATOM      8  C   LIG    1        3.763   1.955  -0.308  0.00  0.00    +0.084 C 
ATOM      9  N   LIG    1        4.088   3.210  -0.343  0.00  0.00    -0.116 NA
ATOM     10  C   LIG    1        0.016  -0.001   0.126  0.00  0.00    +0.016 A 
ENDROOT
BRANCH   7  11
ATOM     11  C   LIG    1        1.239  -2.165  -0.021  0.00  0.00    +0.266 C 
ATOM     12  N   LIG    1        1.997  -2.826   0.852  0.00  0.00    -0.288 N 
ATOM     13  H   LIG    1        2.067  -3.792   0.800  0.00  0.00    +0.301 HD
ATOM     14  H   LIG    1        2.480  -2.341   1.539  0.00  0.00    +0.301 HD
BRANCH  11  15
ATOM     15  N   LIG    1        0.495  -2.836  -0.898  0.00  0.00    -0.250 N 
ATOM     16  H   LIG    1        0.505  -3.806  -0.901  0.00  0.00    +0.288 HD
ATOM     17  H   LIG    1       -0.057  -2.355  -1.534  0.00  0.00    +0.288 HD
ENDBRANCH  11  15
ENDBRANCH   7  11
BRANCH   9  18
ATOM     18  N   LIG    1        5.429   3.583  -0.499  0.00  0.00    -0.157 N 
ATOM     19  H   LIG    1        6.115   2.902  -0.580  0.00  0.00    +0.292 HD
BRANCH  18  20
ATOM     20  C   LIG    1        5.772   4.909  -0.535  0.00  0.00    +0.365 C 
ATOM     21  N   LIG    1        7.048   5.263  -0.684  0.00  0.00    -0.290 N 
ATOM     22  H   LIG    1        7.290   6.202  -0.710  0.00  0.00    +0.255 HD
ATOM     23  H   LIG    1        7.734   4.582  -0.766  0.00  0.00    +0.255 HD
BRANCH  20  24
ATOM     24  N   LIG    1        4.829   5.844  -0.423  0.00  0.00    -0.290 N 
ATOM     25  H   LIG    1        5.072   6.783  -0.449  0.00  0.00    +0.255 HD
ATOM     26  H   LIG    1        3.901   5.586  -0.315  0.00  0.00    +0.255 HD
ENDBRANCH  20  24
ENDBRANCH  18  20
ENDBRANCH   9  18
TORSDOF 5
