REMARK  Name = ZINC13979479
REMARK                            x       y       z     vdW  Elec       q    Type
REMARK                         _______ _______ _______ _____ _____    ______ ____
ROOT
ATOM      1  C   LIG    1        0.089  -0.067   0.161  0.00  0.00    +0.096 A 
ATOM      2  C   LIG    1        1.261  -0.731  -0.156  0.00  0.00    +0.017 A 
ATOM      3  C   LIG    1        1.230  -2.191  -0.331  0.00  0.00    -0.002 A 
ATOM      4  C   LIG    1        2.378  -2.915  -0.645  0.00  0.00    +0.029 A 
ATOM      5  C   LIG    1        2.298  -4.284  -0.806  0.00  0.00    +0.042 A 
ATOM      6 CL   LIG    1        3.727  -5.189  -1.199  0.00  0.00    -0.084 Cl
ATOM      7  C   LIG    1        1.085  -4.943  -0.657  0.00  0.00    +0.021 A 
ATOM      8  C   LIG    1       -0.062  -4.244  -0.346  0.00  0.00    +0.015 A 
ATOM      9  C   LIG    1       -0.004  -2.862  -0.179  0.00  0.00    +0.047 A 
ATOM     10  C   LIG    1       -1.201  -2.076   0.153  0.00  0.00    +0.260 A 
ATOM     11  O   LIG    1       -2.276  -2.630   0.289  0.00  0.00    -0.267 OA
ATOM     12  N   LIG    1       -1.107  -0.742   0.306  0.00  0.00    -0.299 N 
ENDROOT
BRANCH   2  13
ATOM     13  C   LIG    1        2.527   0.015  -0.311  0.00  0.00    -0.015 A 
ATOM     14  C   LIG    1        2.704   0.879  -1.393  0.00  0.00    +0.008 A 
ATOM     15  C   LIG    1        3.886   1.577  -1.529  0.00  0.00    +0.001 A 
ATOM     16  C   LIG    1        4.900   1.414  -0.601  0.00  0.00    +0.000 A 
ATOM     17  C   LIG    1        4.733   0.555   0.471  0.00  0.00    +0.001 A 
ATOM     18  C   LIG    1        3.554  -0.144   0.622  0.00  0.00    +0.008 A 
ENDBRANCH   2  13
BRANCH   1  19
ATOM     19  C   LIG    1        0.116   1.340   0.336  0.00  0.00    +0.180 C 
ATOM     20  O   LIG    1       -0.725   2.034  -0.197  0.00  0.00    -0.290 OA
BRANCH  19  22
ATOM     21  C   LIG    1        0.916   3.473   1.315  0.00  0.00    +0.012 C 
ATOM     22  C   LIG    1        1.192   1.974   1.179  0.00  0.00    +0.078 C 
ENDBRANCH  19  22
ENDBRANCH   1  19
BRANCH  12  23
ATOM     23  C   LIG    1       -2.314   0.020   0.636  0.00  0.00    +0.182 C 
BRANCH  23  24
ATOM     24  C   LIG    1       -3.072   0.334  -0.628  0.00  0.00    +0.083 A 
ATOM     25  C   LIG    1       -4.130  -0.408  -1.158  0.00  0.00    +0.059 A 
ATOM     26  C   LIG    1       -4.502   0.258  -2.313  0.00  0.00    +0.123 A 
ATOM     27  N   LIG    1       -3.671   1.337  -2.416  0.00  0.00    -0.262 N 
ATOM     28  C   LIG    1       -3.704   2.328  -3.494  0.00  0.00    +0.173 C 
ATOM     29  N   LIG    1       -2.859   1.353  -1.421  0.00  0.00    -0.174 NA
BRANCH  26  30
ATOM     30  C   LIG    1       -5.577  -0.121  -3.244  0.00  0.00    +0.262 C 
ATOM     31  N   LIG    1       -6.248  -1.276  -3.064  0.00  0.00    -0.307 N 
ATOM     32  H   LIG    1       -6.072  -1.822  -2.282  0.00  0.00    +0.149 HD
ATOM     33  O   LIG    1       -5.861   0.609  -4.174  0.00  0.00    -0.269 OA
BRANCH  31  34
ATOM     34  C   LIG    1       -7.242  -1.707  -4.050  0.00  0.00    +0.073 C 
ATOM     35  C   LIG    1       -8.568  -2.258  -3.522  0.00  0.00    +0.024 C 
ATOM     36  C   LIG    1       -7.540  -3.204  -4.146  0.00  0.00    +0.024 C 
ENDBRANCH  31  34
ENDBRANCH  26  30
ENDBRANCH  23  24
ENDBRANCH  12  23
TORSDOF 7
