REMARK  Name = ZINC22939483
REMARK                            x       y       z     vdW  Elec       q    Type
REMARK                         _______ _______ _______ _____ _____    ______ ____
ROOT
ATOM      1  C   LIG    1       -1.629   3.493  -2.315  0.00  0.00    +0.118 C 
ENDROOT
BRANCH   1   5
ATOM      2  C   LIG    1       -2.121   7.730  -2.098  0.00  0.00    -0.042 A 
ATOM      3  C   LIG    1       -3.174   6.932  -2.506  0.00  0.00    +0.004 A 
ATOM      4  C   LIG    1       -3.014   5.561  -2.576  0.00  0.00    +0.006 A 
ATOM      5  C   LIG    1       -1.802   4.988  -2.239  0.00  0.00    -0.026 A 
ATOM      6  C   LIG    1       -0.752   5.785  -1.826  0.00  0.00    +0.006 A 
ATOM      7  C   LIG    1       -0.910   7.157  -1.759  0.00  0.00    +0.004 A 
BRANCH   2   9
ATOM      8  C   LIG    1       -3.416   9.559  -1.035  0.00  0.00    +0.015 C 
ATOM      9  C   LIG    1       -2.295   9.225  -2.022  0.00  0.00    -0.013 C 
ATOM     10  C   LIG    1       -2.655   9.768  -3.406  0.00  0.00    +0.015 C 
ATOM     11  C   LIG    1       -0.990   9.867  -1.546  0.00  0.00    +0.015 C 
ENDBRANCH   2   9
ENDBRANCH   1   5
BRANCH   1  12
ATOM     12  N   LIG    1       -1.043   3.003  -1.060  0.00  0.00    -0.284 NA
ATOM     13  C   LIG    1       -1.575   3.743   0.093  0.00  0.00    +0.101 C 
ATOM     14  C   LIG    1       -0.884   3.258   1.369  0.00  0.00    +0.100 C 
ATOM     15  N   LIG    1       -1.106   1.814   1.526  0.00  0.00    -0.295 NA
ATOM     16  C   LIG    1       -0.574   1.074   0.373  0.00  0.00    +0.106 C 
ATOM     17  C   LIG    1       -1.266   1.559  -0.904  0.00  0.00    +0.097 C 
BRANCH  15  18
ATOM     18  C   LIG    1       -0.520   1.323   2.781  0.00  0.00    +0.119 C 
BRANCH  18  19
ATOM     19  C   LIG    1       -0.893   2.254   3.906  0.00  0.00    -0.033 A 
ATOM     20  C   LIG    1       -0.076   3.324   4.218  0.00  0.00    +0.005 A 
ATOM     21  C   LIG    1       -0.420   4.180   5.248  0.00  0.00    +0.000 A 
ATOM     22  C   LIG    1       -1.578   3.960   5.971  0.00  0.00    +0.000 A 
ATOM     23  C   LIG    1       -2.392   2.887   5.663  0.00  0.00    +0.000 A 
ATOM     24  C   LIG    1       -2.050   2.034   4.630  0.00  0.00    +0.005 A 
ENDBRANCH  18  19
ENDBRANCH  15  18
BRANCH  17  25
ATOM     25  C   LIG    1       -0.685   0.819  -2.111  0.00  0.00    +0.176 C 
BRANCH  25  26
ATOM     26  O   LIG    1        0.730   1.015  -2.154  0.00  0.00    -0.393 OA
ATOM     27  H   LIG    1        1.324   0.556  -2.958  0.00  0.00    +0.209 HD
ENDBRANCH  25  26
ENDBRANCH  17  25
ENDBRANCH   1  12
BRANCH   1  28
ATOM     28  C   LIG    1       -0.714   3.152  -3.463  0.00  0.00    -0.022 A 
ATOM     29  C   LIG    1        0.648   3.368  -3.349  0.00  0.00    +0.006 A 
ATOM     30  C   LIG    1        1.490   3.050  -4.398  0.00  0.00    +0.004 A 
ATOM     31  C   LIG    1        0.973   2.527  -5.567  0.00  0.00    +0.045 A 
ATOM     32  C   LIG    1       -0.393   2.315  -5.686  0.00  0.00    +0.117 A 
ATOM     33  C   LIG    1       -1.236   2.629  -4.630  0.00  0.00    +0.051 A 
BRANCH  32  34
ATOM     34  O   LIG    1       -0.904   1.800  -6.836  0.00  0.00    -0.507 OA
ATOM     35  H   LIG    1       -1.987   1.632  -6.929  0.00  0.00    +0.292 HD
ENDBRANCH  32  34
ENDBRANCH   1  28
TORSDOF 9
