REMARK  Name = ZINC15834244
REMARK                            x       y       z     vdW  Elec       q    Type
REMARK                         _______ _______ _______ _____ _____    ______ ____
ROOT
ATOM      1  C   LIG    1       -0.085   4.549  -1.972  0.00  0.00    +0.069 A 
ATOM      2  C   LIG    1       -1.420   4.654  -2.276  0.00  0.00    +0.089 A 
ATOM      3  C   LIG    1       -2.103   3.543  -1.566  0.00  0.00    +0.082 A 
ATOM      4  N   LIG    1       -3.492   3.406  -1.705  0.00  0.00    -0.294 N 
ATOM      5  C   LIG    1       -4.223   2.330  -1.031  0.00  0.00    +0.154 C 
ATOM      6  C   LIG    1       -4.129   4.307  -2.486  0.00  0.00    +0.332 A 
ATOM      7  N   LIG    1       -3.546   5.319  -3.136  0.00  0.00    -0.263 N 
ATOM      8  C   LIG    1       -4.395   6.203  -3.939  0.00  0.00    +0.157 C 
ATOM      9  O   LIG    1       -5.333   4.188  -2.606  0.00  0.00    -0.246 OA
ATOM     10  C   LIG    1       -1.165   2.884  -0.902  0.00  0.00    +0.073 A 
ATOM     11  C   LIG    1       -1.301   1.692   0.014  0.00  0.00    +0.150 C 
ATOM     12  N   LIG    1       -0.013   0.983   0.036  0.00  0.00    -0.330 N 
ATOM     13  H   LIG    1        0.006   0.013   0.055  0.00  0.00    +0.147 HD
ATOM     14  C   LIG    1        1.187   1.704   0.023  0.00  0.00    +0.052 A 
ATOM     15  C   LIG    1        2.323   1.188   0.627  0.00  0.00    +0.025 A 
ATOM     16  C   LIG    1        3.507   1.901   0.589  0.00  0.00    +0.002 A 
ATOM     17  C   LIG    1        3.567   3.125  -0.052  0.00  0.00    +0.002 A 
ATOM     18  C   LIG    1        2.437   3.652  -0.651  0.00  0.00    +0.028 A 
ATOM     19  C   LIG    1        1.247   2.951  -0.607  0.00  0.00    +0.068 A 
ATOM     20  C   LIG    1       -2.213   5.575  -3.096  0.00  0.00    +0.266 A 
ATOM     21  O   LIG    1       -1.711   6.505  -3.699  0.00  0.00    -0.267 OA
ATOM     22  N   LIG    1        0.066   3.472  -1.155  0.00  0.00    -0.306 N 
ENDROOT
BRANCH   1  28
ATOM     23  C   LIG    1        4.237   5.203  -4.377  0.00  0.00    +0.044 C 
ATOM     24  C   LIG    1        3.071   5.762  -3.602  0.00  0.00    -0.050 A 
ATOM     25  C   LIG    1        3.009   7.118  -3.332  0.00  0.00    +0.003 A 
ATOM     26  C   LIG    1        1.943   7.641  -2.622  0.00  0.00    +0.001 A 
ATOM     27  C   LIG    1        0.934   6.812  -2.177  0.00  0.00    +0.010 A 
ATOM     28  C   LIG    1        0.990   5.442  -2.445  0.00  0.00    -0.000 A 
ATOM     29  C   LIG    1        2.072   4.921  -3.159  0.00  0.00    +0.013 A 
ENDBRANCH   1  28
BRANCH  11  30
ATOM     30  C   LIG    1       -1.649   2.160   1.404  0.00  0.00    -0.019 A 
ATOM     31  C   LIG    1       -0.662   2.665   2.230  0.00  0.00    +0.006 A 
ATOM     32  C   LIG    1       -0.981   3.099   3.503  0.00  0.00    +0.003 A 
ATOM     33  C   LIG    1       -2.284   3.018   3.956  0.00  0.00    +0.038 A 
ATOM     34  C   LIG    1       -3.272   2.508   3.131  0.00  0.00    +0.124 A 
ATOM     35  F   LIG    1       -4.547   2.428   3.573  0.00  0.00    -0.205 F 
ATOM     36  C   LIG    1       -2.953   2.078   1.854  0.00  0.00    +0.044 A 
ENDBRANCH  11  30
TORSDOF 2
