REMARK  Name = ZINC68087592
REMARK                            x       y       z     vdW  Elec       q    Type
REMARK                         _______ _______ _______ _____ _____    ______ ____
ROOT
ATOM      1  C   LIG    1        0.367  -0.587   2.532  0.00  0.00    +0.147 C 
ENDROOT
BRANCH   1   8
ATOM      2  C   LIG    1       -0.019   1.526   0.010  0.00  0.00    +0.032 C 
ATOM      3  C   LIG    1        0.002  -0.004   0.002  0.00  0.00    +0.122 C 
ATOM      4  C   LIG    1        0.781  -0.538  -1.224  0.00  0.00    +0.228 C 
ATOM      5  O   LIG    1        2.103  -0.722  -0.682  0.00  0.00    -0.440 OA
ATOM      6  C   LIG    1        1.986  -0.933   0.639  0.00  0.00    +0.404 C 
ATOM      7  O   LIG    1        2.856  -1.438   1.320  0.00  0.00    -0.226 OA
ATOM      8  N   LIG    1        0.795  -0.525   1.133  0.00  0.00    -0.256 N 
BRANCH   4   9
ATOM      9  C   LIG    1        0.791   0.477  -2.338  0.00  0.00    -0.004 A 
ATOM     10  C   LIG    1        1.750   1.472  -2.357  0.00  0.00    +0.019 A 
ATOM     11  C   LIG    1        1.760   2.403  -3.380  0.00  0.00    +0.056 A 
ATOM     12  C   LIG    1        0.810   2.338  -4.383  0.00  0.00    +0.024 A 
ATOM     13  C   LIG    1       -0.148   1.342  -4.364  0.00  0.00    +0.056 A 
ATOM     14  C   LIG    1       -0.155   0.409  -3.344  0.00  0.00    +0.019 A 
BRANCH  11  15
ATOM     15  C   LIG    1        2.804   3.489  -3.400  0.00  0.00    +0.417 C 
ATOM     16  F   LIG    1        3.177   3.803  -2.089  0.00  0.00    -0.166 F 
ATOM     17  F   LIG    1        2.280   4.628  -4.021  0.00  0.00    -0.166 F 
ATOM     18  F   LIG    1        3.925   3.045  -4.110  0.00  0.00    -0.166 F 
ENDBRANCH  11  15
BRANCH  13  19
ATOM     19  C   LIG    1       -1.183   1.271  -5.457  0.00  0.00    +0.417 C 
ATOM     20  F   LIG    1       -2.460   1.394  -4.899  0.00  0.00    -0.166 F 
ATOM     21  F   LIG    1       -1.079   0.043  -6.118  0.00  0.00    -0.166 F 
ATOM     22  F   LIG    1       -0.970   2.311  -6.368  0.00  0.00    -0.166 F 
ENDBRANCH  13  19
ENDBRANCH   4   9
ENDBRANCH   1   8
BRANCH   1  23
ATOM     23  C   LIG    1       -0.316  -1.906   2.791  0.00  0.00    -0.022 A 
ATOM     24  C   LIG    1       -1.694  -1.979   2.806  0.00  0.00    +0.018 A 
ATOM     25  C   LIG    1       -2.322  -3.188   3.043  0.00  0.00    +0.055 A 
ATOM     26  C   LIG    1       -1.574  -4.330   3.266  0.00  0.00    +0.013 A 
ATOM     27  C   LIG    1       -0.196  -4.269   3.253  0.00  0.00    +0.009 A 
ATOM     28  C   LIG    1        0.443  -3.054   3.009  0.00  0.00    -0.010 A 
BRANCH  28  29
ATOM     29  C   LIG    1        1.924  -2.983   2.987  0.00  0.00    +0.025 A 
ATOM     30  C   LIG    1        2.642  -3.651   1.998  0.00  0.00    +0.018 A 
ATOM     31  C   LIG    1        4.019  -3.583   1.981  0.00  0.00    -0.009 A 
ATOM     32  C   LIG    1        4.693  -2.850   2.946  0.00  0.00    +0.130 A 
ATOM     33  F   LIG    1        6.043  -2.788   2.922  0.00  0.00    -0.205 F 
ATOM     34  C   LIG    1        3.989  -2.183   3.933  0.00  0.00    +0.084 A 
ATOM     35  C   LIG    1        2.605  -2.240   3.956  0.00  0.00    +0.131 A 
BRANCH  31  36
ATOM     36  C   LIG    1        4.794  -4.307   0.910  0.00  0.00    +0.016 C 
ATOM     37  C   LIG    1        4.380  -3.780  -0.465  0.00  0.00    +0.012 C 
ATOM     38  C   LIG    1        4.498  -5.806   0.992  0.00  0.00    +0.012 C 
ENDBRANCH  31  36
BRANCH  35  39
ATOM     39  O   LIG    1        1.912  -1.580   4.920  0.00  0.00    -0.494 OA
ATOM     40  C   LIG    1        2.675  -0.841   5.877  0.00  0.00    +0.277 C 
ENDBRANCH  35  39
ENDBRANCH  28  29
BRANCH  25  41
ATOM     41  C   LIG    1       -3.828  -3.261   3.060  0.00  0.00    +0.417 C 
ATOM     42  F   LIG    1       -4.349  -2.038   3.493  0.00  0.00    -0.166 F 
ATOM     43  F   LIG    1       -4.235  -4.277   3.931  0.00  0.00    -0.166 F 
ATOM     44  F   LIG    1       -4.295  -3.538   1.771  0.00  0.00    -0.166 F 
ENDBRANCH  25  41
ENDBRANCH   1  23
TORSDOF 9
