REMARK  Name = ZINC23625302
REMARK                            x       y       z     vdW  Elec       q    Type
REMARK                         _______ _______ _______ _____ _____    ______ ____
ROOT
ATOM      1  C   LIG    1        2.490   1.048  -0.016  0.00  0.00    +0.088 C 
ATOM      2  C   LIG    1        3.047   1.022  -1.439  0.00  0.00    +0.059 C 
ATOM      3  C   LIG    1        4.464   0.509  -1.429  0.00  0.00    -0.041 A 
ATOM      4  C   LIG    1        5.021   0.078  -2.623  0.00  0.00    +0.004 A 
ATOM      5  C   LIG    1        6.317  -0.396  -2.658  0.00  0.00    +0.000 A 
ATOM      6  C   LIG    1        7.064  -0.440  -1.496  0.00  0.00    +0.000 A 
ATOM      7  C   LIG    1        6.511  -0.012  -0.306  0.00  0.00    +0.005 A 
ATOM      8  C   LIG    1        5.208   0.462  -0.269  0.00  0.00    -0.030 A 
ATOM      9  C   LIG    1        4.645   0.909   1.055  0.00  0.00    +0.117 C 
ATOM     10  N   LIG    1        3.455   1.742   0.852  0.00  0.00    -0.305 NA
ATOM     11  H   LIG    1        3.756   2.689   0.381  0.00  0.00    +0.123 HD
ENDROOT
BRANCH   1  15
ATOM     12  C   LIG    1       -1.238   3.133   0.029  0.00  0.00    +0.000 A 
ATOM     13  C   LIG    1       -1.219   1.751   0.017  0.00  0.00    +0.000 A 
ATOM     14  C   LIG    1       -0.013   1.076   0.008  0.00  0.00    +0.005 A 
ATOM     15  C   LIG    1        1.175   1.783   0.000  0.00  0.00    -0.030 A 
ATOM     16  C   LIG    1        1.156   3.165   0.008  0.00  0.00    +0.005 A 
ATOM     17  C   LIG    1       -0.050   3.840   0.022  0.00  0.00    +0.000 A 
ENDBRANCH   1  15
TORSDOF 1
