REMARK  Name = ZINC36056301
REMARK                            x       y       z     vdW  Elec       q    Type
REMARK                         _______ _______ _______ _____ _____    ______ ____
ROOT
ATOM      1  N   LIG    1        1.195  -0.053  -1.192  0.00  0.00    -0.243 N 
ATOM      2  C   LIG    1        2.084  -1.086  -1.196  0.00  0.00    +0.164 A 
ATOM      3  C   LIG    1        2.440  -1.315  -2.538  0.00  0.00    +0.087 A 
ATOM      4  C   LIG    1        3.356  -2.340  -2.824  0.00  0.00    +0.131 A 
ATOM      5  N   LIG    1        3.846  -3.049  -1.812  0.00  0.00    -0.220 NA
ATOM      6  C   LIG    1        3.485  -2.800  -0.566  0.00  0.00    +0.225 A 
ATOM      7  C   LIG    1        1.695  -0.340  -3.337  0.00  0.00    +0.121 A 
ATOM      8  N   LIG    1        2.631  -1.850  -0.251  0.00  0.00    -0.216 NA
ATOM      9  N   LIG    1        0.972   0.376  -2.505  0.00  0.00    -0.167 NA
ENDROOT
BRANCH   7  10
ATOM     10  C   LIG    1        1.742  -0.193  -4.806  0.00  0.00    +0.068 A 
ATOM     11  C   LIG    1        0.671   0.052  -5.603  0.00  0.00    +0.038 A 
ATOM     12  C   LIG    1        1.168   0.122  -6.975  0.00  0.00    +0.004 A 
ATOM     13  C   LIG    1        0.557   0.343  -8.214  0.00  0.00    +0.055 A 
ATOM     14  C   LIG    1        1.325   0.348  -9.361  0.00  0.00    +0.118 A 
ATOM     15  C   LIG    1        2.699   0.134  -9.287  0.00  0.00    +0.047 A 
ATOM     16  C   LIG    1        3.311  -0.085  -8.073  0.00  0.00    +0.030 A 
ATOM     17  C   LIG    1        2.557  -0.094  -6.905  0.00  0.00    +0.047 A 
ATOM     18  N   LIG    1        2.879  -0.277  -5.576  0.00  0.00    -0.353 N 
ATOM     19  H   LIG    1        3.772  -0.442  -5.236  0.00  0.00    +0.166 HD
BRANCH  14  20
ATOM     20  O   LIG    1        0.737   0.562 -10.568  0.00  0.00    -0.507 OA
ATOM     21  H   LIG    1        0.697   1.493 -10.827  0.00  0.00    +0.292 HD
ENDBRANCH  14  20
ENDBRANCH   7  10
BRANCH   1  23
ATOM     22  C   LIG    1        0.925   1.999   0.112  0.00  0.00    +0.032 C 
ATOM     23  C   LIG    1        0.564   0.516   0.002  0.00  0.00    +0.103 C 
ATOM     24  C   LIG    1       -0.955   0.368  -0.104  0.00  0.00    +0.032 C 
ENDBRANCH   1  23
BRANCH   4  25
ATOM     25  N   LIG    1        3.737  -2.606  -4.125  0.00  0.00    -0.342 N 
ATOM     26  H   LIG    1        4.469  -3.218  -4.301  0.00  0.00    +0.144 HD
ATOM     27  H   LIG    1        3.273  -2.181  -4.863  0.00  0.00    +0.144 HD
ENDBRANCH   4  25
TORSDOF 4
