REMARK  Name = ZINC36242042
REMARK                            x       y       z     vdW  Elec       q    Type
REMARK                         _______ _______ _______ _____ _____    ______ ____
ROOT
ATOM      1  C   LIG    1       -0.017   1.380   0.010  0.00  0.00    +0.000 A 
ATOM      2  C   LIG    1        1.168   2.095   0.002  0.00  0.00    +0.001 A 
ATOM      3  C   LIG    1        2.377   1.434  -0.013  0.00  0.00    +0.008 A 
ATOM      4  C   LIG    1        2.405   0.035  -0.021  0.00  0.00    -0.020 A 
ATOM      5  C   LIG    1        1.203  -0.681  -0.013  0.00  0.00    -0.021 A 
ATOM      6  C   LIG    1        0.002  -0.004   0.002  0.00  0.00    +0.006 A 
ENDROOT
BRANCH   4   7
ATOM      7  C   LIG    1        3.691  -0.679  -0.038  0.00  0.00    +0.015 C 
ATOM      8  C   LIG    1        4.850   0.016  -0.047  0.00  0.00    +0.092 C 
BRANCH   8   9
ATOM      9  C   LIG    1        6.088  -0.671  -0.063  0.00  0.00    +0.330 C 
ATOM     10  O   LIG    1        6.108  -1.896  -0.070  0.00  0.00    -0.246 OA
BRANCH   9  11
ATOM     11  O   LIG    1        7.138  -0.041  -0.070  0.00  0.00    -0.478 OA
ATOM     12  H   LIG    1        7.122   0.896  -0.065  0.00  0.00    +0.295 HD
ENDBRANCH   9  11
ENDBRANCH   8   9
ENDBRANCH   4   7
BRANCH   5  13
ATOM     13  C   LIG    1        1.222  -2.188  -0.022  0.00  0.00    +0.158 C 
BRANCH  13  14
ATOM     14  N   LIG    1        1.362  -2.683   1.350  0.00  0.00    -0.332 N 
ATOM     15  C   LIG    1        2.536  -2.938   2.005  0.00  0.00    +0.107 A 
ATOM     16  C   LIG    1        2.208  -3.373   3.237  0.00  0.00    +0.130 A 
ATOM     17  N   LIG    1        0.870  -3.384   3.331  0.00  0.00    -0.244 NA
ATOM     18  C   LIG    1        0.357  -2.966   2.206  0.00  0.00    +0.199 A 
ENDBRANCH  13  14
ENDBRANCH   5  13
TORSDOF 5
