REMARK  Name = ZINC27641775
REMARK                            x       y       z     vdW  Elec       q    Type
REMARK                         _______ _______ _______ _____ _____    ______ ____
ROOT
ATOM      1  C   LIG    1       -0.070   5.347   0.030  0.00  0.00    +0.098 C 
ATOM      2  C   LIG    1       -0.851   5.864  -1.188  0.00  0.00    +0.122 C 
ATOM      3  N   LIG    1       -0.770   7.322  -1.218  0.00  0.00    -0.327 N 
ATOM      4  H   LIG    1       -0.403   7.834  -2.119  0.00  0.00    +0.148 HD
ATOM      5  C   LIG    1       -1.138   8.119  -0.149  0.00  0.00    +0.141 A 
ATOM      6  C   LIG    1       -1.236   7.639   1.153  0.00  0.00    +0.113 A 
ATOM      7  C   LIG    1       -1.589   8.518   2.173  0.00  0.00    +0.268 A 
ATOM      8  O   LIG    1       -1.688   8.082   3.454  0.00  0.00    -0.267 OA
ATOM      9  N   LIG    1       -1.827   9.791   1.873  0.00  0.00    -0.294 N 
ATOM     10  H   LIG    1       -2.106  10.501   2.666  0.00  0.00    +0.172 HD
ATOM     11  C   LIG    1       -1.733  10.218   0.623  0.00  0.00    +0.195 A 
ATOM     12  N   LIG    1       -1.398   9.411  -0.370  0.00  0.00    -0.200 NA
ATOM     13  S   LIG    1       -0.921   5.945   1.523  0.00  0.00    -0.107 S 
ENDROOT
BRANCH   1  17
ATOM     14  C   LIG    1       -0.013   1.076   0.008  0.00  0.00    +0.000 A 
ATOM     15  C   LIG    1       -1.219   1.751   0.017  0.00  0.00    +0.000 A 
ATOM     16  C   LIG    1       -1.238   3.133   0.029  0.00  0.00    +0.005 A 
ATOM     17  C   LIG    1       -0.050   3.840   0.022  0.00  0.00    -0.033 A 
ATOM     18  C   LIG    1        1.156   3.165   0.008  0.00  0.00    +0.005 A 
ATOM     19  C   LIG    1        1.175   1.783   0.000  0.00  0.00    +0.000 A 
ENDBRANCH   1  17
BRANCH  11  20
ATOM     20  N   LIG    1       -1.994  11.551   0.346  0.00  0.00    -0.329 N 
ATOM     21  H   LIG    1       -2.274  12.237   1.159  0.00  0.00    +0.145 HD
ATOM     22  H   LIG    1       -1.920  11.924  -0.686  0.00  0.00    +0.145 HD
ENDBRANCH  11  20
TORSDOF 2
