REMARK  Name = ZINC44306243
REMARK                            x       y       z     vdW  Elec       q    Type
REMARK                         _______ _______ _______ _____ _____    ______ ____
ROOT
ATOM      1  C   LIG    1       11.819  -4.540   7.062  0.00  0.00    +0.101 A 
ATOM      2  C   LIG    1       10.915  -4.755   8.120  0.00  0.00    +0.134 A 
ATOM      3  C   LIG    1       11.245  -5.631   9.137  0.00  0.00    +0.092 A 
ATOM      4  C   LIG    1       12.465  -6.297   9.118  0.00  0.00    +0.128 A 
ATOM      5  C   LIG    1       13.363  -6.090   8.079  0.00  0.00    +0.044 A 
ATOM      6  C   LIG    1       13.049  -5.224   7.049  0.00  0.00    +0.138 A 
ENDROOT
BRANCH   5   7
ATOM      7  C   LIG    1       14.682  -6.819   8.070  0.00  0.00    +0.063 C 
ATOM      8  C   LIG    1       15.734  -5.976   8.796  0.00  0.00    +0.062 C 
ATOM      9  C   LIG    1       16.087  -4.776   7.908  0.00  0.00    +0.204 C 
ATOM     10  O   LIG    1       16.707  -5.264   6.718  0.00  0.00    -0.484 OA
ATOM     11  C   LIG    1       16.091  -6.274   6.049  0.00  0.00    +0.129 A 
ATOM     12  C   LIG    1       16.462  -6.519   4.732  0.00  0.00    +0.091 A 
ATOM     13  C   LIG    1       15.861  -7.539   4.018  0.00  0.00    +0.120 A 
ATOM     14  C   LIG    1       14.886  -8.321   4.620  0.00  0.00    +0.046 A 
ATOM     15  C   LIG    1       14.518  -8.077   5.928  0.00  0.00    +0.011 A 
ATOM     16  C   LIG    1       15.117  -7.054   6.646  0.00  0.00    +0.002 A 
BRANCH   9  17
ATOM     17  C   LIG    1       17.038  -3.865   8.640  0.00  0.00    -0.007 A 
ATOM     18  C   LIG    1       18.398  -4.113   8.603  0.00  0.00    +0.011 A 
ATOM     19  C   LIG    1       19.272  -3.280   9.274  0.00  0.00    +0.046 A 
ATOM     20  C   LIG    1       18.784  -2.193   9.985  0.00  0.00    +0.117 A 
ATOM     21  C   LIG    1       17.420  -1.945  10.020  0.00  0.00    +0.046 A 
ATOM     22  C   LIG    1       16.550  -2.779   9.343  0.00  0.00    +0.011 A 
BRANCH  20  23
ATOM     23  O   LIG    1       19.642  -1.371  10.645  0.00  0.00    -0.507 OA
ATOM     24  H   LIG    1       19.963  -0.629  10.115  0.00  0.00    +0.292 HD
ENDBRANCH  20  23
ENDBRANCH   9  17
BRANCH  13  25
ATOM     25  O   LIG    1       16.225  -7.775   2.730  0.00  0.00    -0.507 OA
ATOM     26  H   LIG    1       15.707  -7.282   2.079  0.00  0.00    +0.292 HD
ENDBRANCH  13  25
ENDBRANCH   5   7
BRANCH   6  27
ATOM     27  O   LIG    1       13.924  -5.029   6.032  0.00  0.00    -0.506 OA
ATOM     28  H   LIG    1       14.552  -4.309   6.186  0.00  0.00    +0.292 HD
ENDBRANCH   6  27
BRANCH   4  29
ATOM     29  O   LIG    1       12.780  -7.154  10.121  0.00  0.00    -0.506 OA
ATOM     30  H   LIG    1       12.435  -8.049   9.997  0.00  0.00    +0.292 HD
ENDBRANCH   4  29
BRANCH   2  31
ATOM     31  O   LIG    1        9.725  -4.106   8.141  0.00  0.00    -0.506 OA
ATOM     32  H   LIG    1        9.502  -3.513   7.451  0.00  0.00    +0.292 HD
ENDBRANCH   2  31
BRANCH   1  33
ATOM     33  C   LIG    1       11.479  -3.616   5.982  0.00  0.00    +0.170 C 
ATOM     34  O   LIG    1       12.258  -3.437   5.069  0.00  0.00    -0.292 OA
BRANCH  33  35
ATOM     35  C   LIG    1       10.160  -2.887   6.001  0.00  0.00    +0.080 C 
BRANCH  35  36
ATOM     36  C   LIG    1       10.056  -1.990   4.765  0.00  0.00    +0.008 C 
BRANCH  36  37
ATOM     37  C   LIG    1        8.717  -1.249   4.785  0.00  0.00    +0.000 C 
BRANCH  37  38
ATOM     38  C   LIG    1        8.612  -0.353   3.549  0.00  0.00    +0.000 C 
BRANCH  38  39
ATOM     39  C   LIG    1        7.274   0.388   3.569  0.00  0.00    +0.000 C 
BRANCH  39  40
ATOM     40  C   LIG    1        7.169   1.284   2.333  0.00  0.00    +0.000 C 
BRANCH  40  41
ATOM     41  C   LIG    1        5.830   2.025   2.353  0.00  0.00    +0.005 C 
BRANCH  41  42
ATOM     42  C   LIG    1        5.726   2.921   1.117  0.00  0.00    +0.035 C 
BRANCH  42  46
ATOM     43  C   LIG    1        1.989   4.991   1.169  0.00  0.00    +0.000 A 
ATOM     44  C   LIG    1        3.099   5.554   1.770  0.00  0.00    +0.000 A 
ATOM     45  C   LIG    1        4.308   4.884   1.754  0.00  0.00    +0.003 A 
ATOM     46  C   LIG    1        4.407   3.651   1.136  0.00  0.00    -0.047 A 
ATOM     47  C   LIG    1        3.297   3.088   0.536  0.00  0.00    +0.003 A 
ATOM     48  C   LIG    1        2.088   3.758   0.551  0.00  0.00    +0.000 A 
ENDBRANCH  42  46
ENDBRANCH  41  42
ENDBRANCH  40  41
ENDBRANCH  39  40
ENDBRANCH  38  39
ENDBRANCH  37  38
ENDBRANCH  36  37
ENDBRANCH  35  36
ENDBRANCH  33  35
ENDBRANCH   1  33
TORSDOF 17
