REMARK  Name = ZINC29128227
REMARK                            x       y       z     vdW  Elec       q    Type
REMARK                         _______ _______ _______ _____ _____    ______ ____
ROOT
ATOM      1  C   LIG    1       -0.373   7.662   0.048  0.00  0.00    +0.226 C 
ATOM      2  N   LIG    1        0.500   8.688   0.036  0.00  0.00    -0.289 N 
ATOM      3  C   LIG    1        1.969   8.567   0.011  0.00  0.00    +0.108 C 
ATOM      4  C   LIG    1        2.487   9.894   0.618  0.00  0.00    +0.021 C 
ATOM      5  C   LIG    1        1.465  10.915   0.054  0.00  0.00    +0.033 C 
ATOM      6  C   LIG    1        0.145  10.115   0.042  0.00  0.00    +0.162 C 
ATOM      7  O   LIG    1       -1.566   7.880   0.069  0.00  0.00    -0.275 OA
ENDROOT
BRANCH   6   8
ATOM      8  C   LIG    1       -0.649  10.450  -1.195  0.00  0.00    +0.238 C 
ATOM      9  N   LIG    1       -1.081  11.711  -1.397  0.00  0.00    -0.283 N 
ATOM     10  H   LIG    1       -0.934  12.474  -0.619  0.00  0.00    +0.155 HD
ATOM     11  O   LIG    1       -0.899   9.585  -2.008  0.00  0.00    -0.273 OA
BRANCH   9  12
ATOM     12  C   LIG    1       -1.716  12.047  -2.595  0.00  0.00    +0.041 A 
ATOM     13  C   LIG    1       -1.469  11.312  -3.745  0.00  0.00    +0.024 A 
ATOM     14  C   LIG    1       -2.103  11.643  -4.928  0.00  0.00    +0.002 A 
ATOM     15  C   LIG    1       -2.977  12.715  -4.976  0.00  0.00    +0.001 A 
ATOM     16  C   LIG    1       -3.228  13.459  -3.841  0.00  0.00    +0.010 A 
ATOM     17  C   LIG    1       -2.600  13.132  -2.642  0.00  0.00    +0.003 A 
BRANCH  17  18
ATOM     18  C   LIG    1       -2.866  13.928  -1.419  0.00  0.00    -0.016 A 
ATOM     19  C   LIG    1       -3.214  13.290  -0.230  0.00  0.00    +0.008 A 
ATOM     20  C   LIG    1       -3.456  14.035   0.906  0.00  0.00    +0.001 A 
ATOM     21  C   LIG    1       -3.365  15.415   0.863  0.00  0.00    +0.000 A 
ATOM     22  C   LIG    1       -3.025  16.055  -0.316  0.00  0.00    +0.001 A 
ATOM     23  C   LIG    1       -2.776  15.319  -1.456  0.00  0.00    +0.008 A 
ENDBRANCH  17  18
ENDBRANCH   9  12
ENDBRANCH   6   8
BRANCH   1  24
ATOM     24  C   LIG    1        0.132   6.242   0.034  0.00  0.00    +0.173 C 
BRANCH  24  25
ATOM     25  S   LIG    1       -1.272   5.101   0.054  0.00  0.00    -0.078 S 
BRANCH  25  35
ATOM     26  C   LIG    1       -2.452   2.063   0.052  0.00  0.00    +0.151 C 
ATOM     27  N   LIG    1       -1.012   2.332   0.036  0.00  0.00    -0.322 N 
ATOM     28  C   LIG    1        0.001   1.385   0.020  0.00  0.00    +0.069 A 
ATOM     29  C   LIG    1        0.020  -0.001   0.015  0.00  0.00    +0.028 A 
ATOM     30  C   LIG    1        1.226  -0.671  -0.008  0.00  0.00    +0.002 A 
ATOM     31  C   LIG    1        2.421   0.034  -0.027  0.00  0.00    +0.002 A 
ATOM     32  C   LIG    1        2.420   1.411  -0.022  0.00  0.00    +0.030 A 
ATOM     33  C   LIG    1        1.207   2.104   0.002  0.00  0.00    +0.090 A 
ATOM     34  N   LIG    1        0.887   3.425   0.011  0.00  0.00    -0.222 NA
ATOM     35  C   LIG    1       -0.416   3.561   0.034  0.00  0.00    +0.170 A 
ENDBRANCH  25  35
ENDBRANCH  24  25
ENDBRANCH   1  24
TORSDOF 6
