REMARK  Name = ZINC13862244
REMARK                            x       y       z     vdW  Elec       q    Type
REMARK                         _______ _______ _______ _____ _____    ______ ____
ROOT
ATOM      1  C   LIG    1        1.043  -4.062  -0.027  0.00  0.00    +0.097 C 
ENDROOT
BRANCH   1   2
ATOM      2  C   LIG    1        1.215  -4.523  -1.451  0.00  0.00    +0.038 A 
ATOM      3  C   LIG    1        0.257  -5.062  -2.230  0.00  0.00    +0.105 A 
ATOM      4  N   LIG    1        0.837  -5.334  -3.439  0.00  0.00    -0.352 N 
ATOM      5  C   LIG    1        2.130  -4.952  -3.358  0.00  0.00    +0.171 A 
ATOM      6  H   LIG    1        0.401  -5.728  -4.211  0.00  0.00    +0.166 HD
ATOM      7  N   LIG    1        2.347  -4.463  -2.168  0.00  0.00    -0.349 N 
ATOM      8  H   LIG    1        3.195  -4.114  -1.851  0.00  0.00    +0.166 HD
ENDBRANCH   1   2
BRANCH   1  13
ATOM      9  C   LIG    1       -0.018   1.503   0.010  0.00  0.00    +0.051 C 
ATOM     10  C   LIG    1        0.002  -0.004   0.002  0.00  0.00    -0.013 A 
ATOM     11  C   LIG    1       -1.039  -0.872   0.002  0.00  0.00    +0.011 A 
ATOM     12  C   LIG    1       -0.780  -2.230  -0.007  0.00  0.00    +0.012 A 
ATOM     13  C   LIG    1        0.507  -2.653  -0.016  0.00  0.00    -0.004 A 
ATOM     14  S   LIG    1        1.404  -1.109  -0.018  0.00  0.00    -0.098 S 
ENDBRANCH   1  13
TORSDOF 2
