REMARK  Name = ZINC13759807
REMARK                            x       y       z     vdW  Elec       q    Type
REMARK                         _______ _______ _______ _____ _____    ______ ____
ROOT
ATOM      1  C   LIG    1        1.865   1.823   1.193  0.00  0.00    +0.045 A 
ATOM      2  C   LIG    1        3.120   2.394   1.173  0.00  0.00    +0.007 A 
ATOM      3  C   LIG    1        3.743   2.691  -0.032  0.00  0.00    -0.044 A 
ATOM      4  C   LIG    1        3.103   2.412  -1.220  0.00  0.00    -0.042 A 
ATOM      5  C   LIG    1        3.713   2.723  -2.562  0.00  0.00    +0.019 C 
ATOM      6  C   LIG    1        5.219   2.943  -2.429  0.00  0.00    -0.071 C 
ATOM      7  C   LIG    1        5.462   3.965  -1.313  0.00  0.00    -0.011 C 
ATOM      8  C   LIG    1        1.843   1.831  -1.203  0.00  0.00    +0.049 A 
ATOM      9  C   LIG    1        5.115   3.311   0.023  0.00  0.00    +0.034 C 
ATOM     10  C   LIG    1        1.223   1.532  -0.001  0.00  0.00    +0.117 A 
ENDROOT
BRANCH   6  11
ATOM     11  N   LIG    1        5.782   3.458  -3.690  0.00  0.00    +0.380 N 
ATOM     12  H   LIG    1        6.795   3.583  -3.581  0.00  0.00    -0.090 HD
ATOM     13  H   LIG    1        5.359   4.356  -3.920  0.00  0.00    -0.090 HD
ATOM     14  H   LIG    1        5.607   2.798  -4.446  0.00  0.00    -0.090 HD
ENDBRANCH   6  11
BRANCH  10  15
ATOM     15  O   LIG    1       -0.011   0.963   0.007  0.00  0.00    -0.507 OA
ATOM     16  H   LIG    1        0.002  -0.004   0.002  0.00  0.00    +0.292 HD
ENDBRANCH  10  15
TORSDOF 2
