REMARK  Name = ZINC14610083
REMARK                            x       y       z     vdW  Elec       q    Type
REMARK                         _______ _______ _______ _____ _____    ______ ____
ROOT
ATOM      1  C   LIG    1        1.120  -2.148  -0.071  0.00  0.00    +0.058 C 
ATOM      2  C   LIG    1        1.213  -0.653  -0.386  0.00  0.00    +0.131 C 
ATOM      3  C   LIG    1        1.447  -0.456  -1.885  0.00  0.00    +0.058 C 
ATOM      4  C   LIG    1        2.371  -0.030   0.404  0.00  0.00    +0.162 C 
ATOM      5  C   LIG    1        2.509   1.434  -0.022  0.00  0.00    +0.074 C 
ATOM      6  C   LIG    1        1.157   2.100   0.002  0.00  0.00    -0.002 A 
ATOM      7  C   LIG    1        1.104   3.470   0.015  0.00  0.00    +0.019 A 
ATOM      8  C   LIG    1       -0.127   4.123   0.032  0.00  0.00    +0.021 A 
ATOM      9  C   LIG    1       -0.540   5.529   0.048  0.00  0.00    +0.058 A 
ATOM     10  C   LIG    1       -1.893   5.522   0.060  0.00  0.00    +0.136 A 
ATOM     11  O   LIG    1       -2.346   4.253   0.054  0.00  0.00    -0.455 OA
ATOM     12  C   LIG    1       -1.320   3.377   0.037  0.00  0.00    +0.139 A 
ATOM     13  C   LIG    1       -1.250   1.993   0.031  0.00  0.00    +0.092 A 
ATOM     14  C   LIG    1       -0.016   1.355   0.009  0.00  0.00    +0.128 A 
ATOM     15  O   LIG    1        0.002  -0.004   0.002  0.00  0.00    -0.483 OA
ENDROOT
BRANCH  10  16
ATOM     16  C   LIG    1       -2.748   6.728   0.077  0.00  0.00    +0.024 A 
ATOM     17  C   LIG    1       -2.168   7.997   0.088  0.00  0.00    +0.057 A 
ATOM     18  C   LIG    1       -2.972   9.124   0.099  0.00  0.00    +0.121 A 
ATOM     19  C   LIG    1       -4.353   8.993   0.110  0.00  0.00    +0.090 A 
ATOM     20  C   LIG    1       -4.935   7.734   0.105  0.00  0.00    +0.121 A 
ATOM     21  C   LIG    1       -4.138   6.601   0.089  0.00  0.00    +0.057 A 
BRANCH  18  22
ATOM     22  O   LIG    1       -2.408  10.361   0.104  0.00  0.00    -0.507 OA
ATOM     23  H   LIG    1       -2.237  10.711   0.989  0.00  0.00    +0.292 HD
ENDBRANCH  18  22
BRANCH  20  24
ATOM     24  O   LIG    1       -6.288   7.611   0.117  0.00  0.00    -0.507 OA
ATOM     25  H   LIG    1       -6.671   7.568   1.004  0.00  0.00    +0.292 HD
ENDBRANCH  20  24
ENDBRANCH  10  16
BRANCH   4  26
ATOM     26  O   LIG    1        2.092  -0.100   1.804  0.00  0.00    -0.388 OA
ATOM     27  H   LIG    1        2.785   0.278   2.363  0.00  0.00    +0.210 HD
ENDBRANCH   4  26
TORSDOF 4
