REMARK  Name = ZINC17836230
REMARK                            x       y       z     vdW  Elec       q    Type
REMARK                         _______ _______ _______ _____ _____    ______ ____
ROOT
ATOM      1  C   LIG    1       -0.019   1.526   0.010  0.00  0.00    +0.011 C 
ATOM      2  C   LIG    1        0.002  -0.004   0.002  0.00  0.00    +0.025 C 
ATOM      3  C   LIG    1        0.763  -0.529  -1.240  0.00  0.00    +0.025 C 
ATOM      4  C   LIG    1        0.117  -1.809  -1.775  0.00  0.00    +0.011 C 
ATOM      5  C   LIG    1        2.170  -0.819  -0.660  0.00  0.00    +0.152 C 
ATOM      6  O   LIG    1        1.892  -1.328   0.662  0.00  0.00    -0.364 OA
ATOM      7  C   LIG    1        0.812  -0.539   1.199  0.00  0.00    +0.152 C 
ENDROOT
BRANCH   5   8
ATOM      8  C   LIG    1        2.884  -1.855  -1.491  0.00  0.00    -0.015 A 
ATOM      9  C   LIG    1        2.587  -3.195  -1.327  0.00  0.00    +0.010 A 
ATOM     10  C   LIG    1        3.238  -4.149  -2.086  0.00  0.00    +0.050 A 
ATOM     11  C   LIG    1        4.190  -3.762  -3.015  0.00  0.00    +0.162 A 
ATOM     12  C   LIG    1        4.489  -2.413  -3.181  0.00  0.00    +0.162 A 
ATOM     13  C   LIG    1        3.829  -1.462  -2.420  0.00  0.00    +0.055 A 
BRANCH  11  14
ATOM     14  O   LIG    1        4.832  -4.699  -3.763  0.00  0.00    -0.491 OA
ATOM     15  C   LIG    1        4.475  -6.064  -3.539  0.00  0.00    +0.277 C 
ENDBRANCH  11  14
BRANCH  12  16
ATOM     16  O   LIG    1        5.423  -2.029  -4.092  0.00  0.00    -0.491 OA
ATOM     17  C   LIG    1        5.678  -0.627  -4.208  0.00  0.00    +0.277 C 
ENDBRANCH  12  16
ENDBRANCH   5   8
BRANCH   7  18
ATOM     18  C   LIG    1       -0.068  -1.396   2.071  0.00  0.00    -0.015 A 
ATOM     19  C   LIG    1       -0.241  -2.735   1.772  0.00  0.00    +0.010 A 
ATOM     20  C   LIG    1       -1.048  -3.526   2.570  0.00  0.00    +0.050 A 
ATOM     21  C   LIG    1       -1.684  -2.977   3.671  0.00  0.00    +0.162 A 
ATOM     22  C   LIG    1       -1.510  -1.630   3.972  0.00  0.00    +0.162 A 
ATOM     23  C   LIG    1       -0.696  -0.844   3.172  0.00  0.00    +0.055 A 
BRANCH  21  24
ATOM     24  O   LIG    1       -2.478  -3.753   4.456  0.00  0.00    -0.491 OA
ATOM     25  C   LIG    1       -2.612  -5.127   4.087  0.00  0.00    +0.277 C 
ENDBRANCH  21  24
BRANCH  22  26
ATOM     26  O   LIG    1       -2.132  -1.087   5.052  0.00  0.00    -0.491 OA
ATOM     27  C   LIG    1       -1.907   0.303   5.300  0.00  0.00    +0.277 C 
ENDBRANCH  22  26
ENDBRANCH   7  18
TORSDOF 6
