REMARK  Name = ZINC13900167
REMARK                            x       y       z     vdW  Elec       q    Type
REMARK                         _______ _______ _______ _____ _____    ______ ____
ROOT
ATOM      1  C   LIG    1       -2.861  -5.603   0.508  0.00  0.00    -0.008 A 
ATOM      2  C   LIG    1       -1.637  -6.255   0.553  0.00  0.00    +0.009 A 
ATOM      3  C   LIG    1       -1.485  -7.314   1.431  0.00  0.00    +0.029 A 
ATOM      4  C   LIG    1       -2.560  -7.687   2.235  0.00  0.00    +0.072 A 
ATOM      5  N   LIG    1       -3.716  -7.040   2.158  0.00  0.00    -0.255 NA
ATOM      6  C   LIG    1       -3.886  -6.025   1.335  0.00  0.00    +0.116 A 
ENDROOT
BRANCH   4   7
ATOM      7  C   LIG    1       -2.413  -8.819   3.180  0.00  0.00    +0.011 A 
ATOM      8  C   LIG    1       -2.772  -8.667   4.517  0.00  0.00    +0.011 A 
ATOM      9  C   LIG    1       -2.629  -9.723   5.394  0.00  0.00    +0.001 A 
ATOM     10  C   LIG    1       -2.134 -10.938   4.954  0.00  0.00    +0.001 A 
ATOM     11  C   LIG    1       -1.778 -11.109   3.631  0.00  0.00    +0.012 A 
ATOM     12  C   LIG    1       -1.916 -10.054   2.731  0.00  0.00    +0.030 A 
BRANCH  12  13
ATOM     13  C   LIG    1       -1.535 -10.232   1.313  0.00  0.00    +0.180 A 
ATOM     14  N   LIG    1       -0.599 -11.061   0.818  0.00  0.00    -0.239 N 
ATOM     15  H   LIG    1       -0.034 -11.674   1.342  0.00  0.00    +0.192 HD
ATOM     16  N   LIG    1       -0.570 -10.914  -0.455  0.00  0.00    -0.046 NA
ATOM     17  N   LIG    1       -1.445 -10.030  -0.784  0.00  0.00    -0.023 NA
ATOM     18  N   LIG    1       -2.045  -9.600   0.272  0.00  0.00    -0.108 NA
ENDBRANCH  12  13
ENDBRANCH   4   7
BRANCH   1  19
ATOM     19  C   LIG    1       -3.072  -4.445  -0.433  0.00  0.00    +0.182 C 
BRANCH  19  23
ATOM     20  C   LIG    1       -3.263  -5.766  -3.775  0.00  0.00    +0.151 A 
ATOM     21  N   LIG    1       -4.548  -5.571  -3.483  0.00  0.00    -0.216 NA
ATOM     22  C   LIG    1       -4.659  -5.087  -2.272  0.00  0.00    +0.128 A 
ATOM     23  N   LIG    1       -3.423  -4.953  -1.762  0.00  0.00    -0.245 N 
ATOM     24  N   LIG    1       -2.535  -5.402  -2.752  0.00  0.00    -0.154 NA
BRANCH  20  25
ATOM     25  C   LIG    1       -2.734  -6.316  -5.075  0.00  0.00    +0.078 C 
BRANCH  25  26
ATOM     26  C   LIG    1       -2.637  -7.840  -4.981  0.00  0.00    +0.007 C 
BRANCH  26  28
ATOM     27  C   LIG    1       -2.003  -9.923  -6.207  0.00  0.00    +0.004 C 
ATOM     28  C   LIG    1       -2.100  -8.399  -6.301  0.00  0.00    -0.003 C 
ENDBRANCH  26  28
ENDBRANCH  25  26
ENDBRANCH  20  25
BRANCH  22  29
ATOM     29  C   LIG    1       -5.948  -4.737  -1.574  0.00  0.00    +0.076 C 
BRANCH  29  30
ATOM     30  C   LIG    1       -6.386  -3.330  -1.987  0.00  0.00    +0.007 C 
BRANCH  30  31
ATOM     31  C   LIG    1       -7.629  -2.929  -1.191  0.00  0.00    -0.003 C 
ATOM     32  C   LIG    1       -8.067  -1.522  -1.604  0.00  0.00    +0.004 C 
ENDBRANCH  30  31
ENDBRANCH  29  30
ENDBRANCH  22  29
ENDBRANCH  19  23
ENDBRANCH   1  19
TORSDOF 10
