REMARK  Name = ZINC16697102
REMARK                            x       y       z     vdW  Elec       q    Type
REMARK                         _______ _______ _______ _____ _____    ______ ____
ROOT
ATOM      1  C   LIG    1       -0.471  -5.323   4.429  0.00  0.00    +0.123 A 
ATOM      2  C   LIG    1       -1.000  -6.368   3.667  0.00  0.00    +0.046 A 
ATOM      3  C   LIG    1       -1.022  -7.642   4.148  0.00  0.00    +0.017 A 
ATOM      4  C   LIG    1       -0.508  -7.911   5.423  0.00  0.00    +0.041 A 
ATOM      5  C   LIG    1        0.031  -6.858   6.203  0.00  0.00    +0.079 A 
ATOM      6  N   LIG    1        0.517  -7.142   7.421  0.00  0.00    -0.235 NA
ATOM      7  C   LIG    1        0.493  -8.372   7.877  0.00  0.00    +0.223 A 
ATOM      8  N   LIG    1        0.001  -9.386   7.184  0.00  0.00    -0.220 NA
ATOM      9  C   LIG    1       -0.505  -9.216   5.969  0.00  0.00    +0.135 A 
ATOM     10  C   LIG    1        0.047  -5.558   5.685  0.00  0.00    +0.074 A 
ENDROOT
BRANCH   9  11
ATOM     11  N   LIG    1       -1.016 -10.283   5.259  0.00  0.00    -0.284 N 
ATOM     12  H   LIG    1       -1.383 -10.144   4.372  0.00  0.00    +0.155 HD
BRANCH  11  13
ATOM     13  C   LIG    1       -1.004 -11.560   5.815  0.00  0.00    +0.120 A 
ATOM     14  C   LIG    1       -0.528 -11.899   7.045  0.00  0.00    +0.068 A 
ATOM     15  C   LIG    1       -0.705 -13.275   7.210  0.00  0.00    +0.073 A 
ATOM     16  N   LIG    1       -1.265 -13.752   6.128  0.00  0.00    -0.177 NA
ATOM     17  N   LIG    1       -1.471 -12.695   5.232  0.00  0.00    -0.264 N 
ATOM     18  H   LIG    1       -1.873 -12.761   4.352  0.00  0.00    +0.190 HD
BRANCH  15  19
ATOM     19  C   LIG    1       -0.318 -14.074   8.427  0.00  0.00    +0.153 C 
BRANCH  19  20
ATOM     20  C   LIG    1       -1.519 -14.828   8.937  0.00  0.00    +0.223 C 
ATOM     21  N   LIG    1       -1.408 -15.615  10.025  0.00  0.00    -0.285 N 
ATOM     22  H   LIG    1       -0.541 -15.753  10.438  0.00  0.00    +0.155 HD
ATOM     23  O   LIG    1       -2.585 -14.726   8.368  0.00  0.00    -0.275 OA
BRANCH  21  24
ATOM     24  C   LIG    1       -2.544 -16.232  10.560  0.00  0.00    +0.036 A 
ATOM     25  C   LIG    1       -2.666 -16.395  11.934  0.00  0.00    +0.023 A 
ATOM     26  C   LIG    1       -3.788 -17.004  12.461  0.00  0.00    +0.005 A 
ATOM     27  C   LIG    1       -4.791 -17.453  11.622  0.00  0.00    +0.038 A 
ATOM     28  C   LIG    1       -4.674 -17.292  10.251  0.00  0.00    +0.125 A 
ATOM     29  F   LIG    1       -5.656 -17.732   9.434  0.00  0.00    -0.205 F 
ATOM     30  C   LIG    1       -3.555 -16.677   9.719  0.00  0.00    +0.061 A 
ENDBRANCH  21  24
ENDBRANCH  19  20
ENDBRANCH  15  19
ENDBRANCH  11  13
ENDBRANCH   9  11
BRANCH   1  31
ATOM     31  O   LIG    1       -0.463  -4.062   3.925  0.00  0.00    -0.492 OA
BRANCH  31  32
ATOM     32  C   LIG    1       -1.014  -3.882   2.619  0.00  0.00    +0.227 C 
BRANCH  32  33
ATOM     33  C   LIG    1       -0.916  -2.407   2.223  0.00  0.00    +0.022 C 
BRANCH  33  34
ATOM     34  C   LIG    1       -1.506  -2.214   0.824  0.00  0.00    -0.075 C 
BRANCH  34  35
ATOM     35  N   LIG    1       -1.413  -0.798   0.445  0.00  0.00    +0.381 N 
ATOM     36  H   LIG    1       -1.857  -0.231   1.151  0.00  0.00    -0.082 HD
BRANCH  35  38
ATOM     37  C   LIG    1        0.101   1.089   0.067  0.00  0.00    -0.017 C 
ATOM     38  C   LIG    1        0.001  -0.415   0.327  0.00  0.00    -0.082 C 
ENDBRANCH  35  38
BRANCH  35  39
ATOM     39  C   LIG    1       -2.085  -0.592  -0.845  0.00  0.00    -0.051 C 
BRANCH  39  40
ATOM     40  C   LIG    1       -3.586  -0.844  -0.683  0.00  0.00    +0.137 C 
BRANCH  40  41
ATOM     41  O   LIG    1       -4.141   0.137   0.196  0.00  0.00    -0.397 OA
ATOM     42  H   LIG    1       -5.075  -0.007   0.405  0.00  0.00    +0.209 HD
ENDBRANCH  40  41
ENDBRANCH  39  40
ENDBRANCH  35  39
ENDBRANCH  34  35
ENDBRANCH  33  34
ENDBRANCH  32  33
ENDBRANCH  31  32
ENDBRANCH   1  31
TORSDOF 14
