REMARK  Name = ZINC13798314
REMARK                            x       y       z     vdW  Elec       q    Type
REMARK                         _______ _______ _______ _____ _____    ______ ____
ROOT
ATOM      1  C   LIG    1       -0.787   2.893   1.346  0.00  0.00    +0.164 A 
ATOM      2  C   LIG    1       -0.255   3.742   0.399  0.00  0.00    +0.079 A 
ATOM      3  C   LIG    1       -0.368   5.126   0.564  0.00  0.00    +0.093 A 
ATOM      4  C   LIG    1       -1.015   5.638   1.701  0.00  0.00    +0.077 A 
ATOM      5  N   LIG    1       -0.962   7.016   1.581  0.00  0.00    -0.298 N 
ATOM      6  C   LIG    1       -0.307   7.295   0.418  0.00  0.00    +0.205 A 
ATOM      7  C   LIG    1       -1.543   4.774   2.650  0.00  0.00    +0.077 A 
ATOM      8  N   LIG    1        0.039   6.191  -0.175  0.00  0.00    -0.235 NA
ATOM      9  C   LIG    1       -1.430   3.408   2.474  0.00  0.00    +0.164 A 
ENDROOT
BRANCH   5  10
ATOM     10  C   LIG    1       -1.483   7.950   2.486  0.00  0.00    +0.048 A 
ATOM     11  C   LIG    1       -2.794   7.833   2.929  0.00  0.00    +0.026 A 
ATOM     12  C   LIG    1       -3.304   8.752   3.825  0.00  0.00    +0.002 A 
ATOM     13  C   LIG    1       -2.513   9.794   4.273  0.00  0.00    +0.000 A 
ATOM     14  C   LIG    1       -1.209   9.917   3.830  0.00  0.00    +0.002 A 
ATOM     15  C   LIG    1       -0.692   8.998   2.938  0.00  0.00    +0.026 A 
ENDBRANCH   5  10
BRANCH   1  17
ATOM     16  C   LIG    1       -0.013   1.086   0.008  0.00  0.00    +0.277 C 
ATOM     17  O   LIG    1       -0.682   1.547   1.184  0.00  0.00    -0.491 OA
ENDBRANCH   1  17
BRANCH   9  18
ATOM     18  O   LIG    1       -1.946   2.561   3.404  0.00  0.00    -0.491 OA
ATOM     19  C   LIG    1       -2.591   3.153   4.534  0.00  0.00    +0.277 C 
ENDBRANCH   9  18
TORSDOF 3
