REMARK  Name = ZINC35324130
REMARK                            x       y       z     vdW  Elec       q    Type
REMARK                         _______ _______ _______ _____ _____    ______ ____
ROOT
ATOM      1  C   LIG    1       -0.013   1.356  -0.286  0.00  0.00    +0.003 A 
ATOM      2  C   LIG    1        1.168   2.082  -0.318  0.00  0.00    +0.009 A 
ATOM      3  C   LIG    1        2.388   1.444  -0.146  0.00  0.00    -0.005 A 
ATOM      4  C   LIG    1        2.416   0.051   0.062  0.00  0.00    +0.049 A 
ATOM      5  C   LIG    1        3.488  -0.920   0.273  0.00  0.00    +0.146 A 
ATOM      6  N   LIG    1        2.935  -2.097   0.412  0.00  0.00    -0.158 NA
ATOM      7  N   LIG    1        1.545  -1.987   0.308  0.00  0.00    -0.275 N 
ATOM      8  H   LIG    1        0.916  -2.722   0.377  0.00  0.00    +0.189 HD
ATOM      9  C   LIG    1        1.212  -0.674   0.093  0.00  0.00    +0.068 A 
ATOM     10  C   LIG    1        0.002  -0.006  -0.083  0.00  0.00    +0.028 A 
ENDROOT
BRANCH   3  11
ATOM     11  C   LIG    1        3.649   2.220  -0.182  0.00  0.00    -0.017 A 
ATOM     12  C   LIG    1        4.651   1.883  -1.091  0.00  0.00    +0.010 A 
ATOM     13  C   LIG    1        5.824   2.607  -1.123  0.00  0.00    +0.023 A 
ATOM     14  C   LIG    1        6.008   3.672  -0.248  0.00  0.00    +0.025 A 
ATOM     15  C   LIG    1        5.010   4.010   0.659  0.00  0.00    +0.023 A 
ATOM     16  C   LIG    1        3.833   3.293   0.690  0.00  0.00    +0.010 A 
BRANCH  14  17
ATOM     17  N   LIG    1        7.196   4.403  -0.282  0.00  0.00    -0.358 N 
ATOM     18  H   LIG    1        7.325   5.147   0.328  0.00  0.00    +0.142 HD
ATOM     19  H   LIG    1        7.893   4.168  -0.914  0.00  0.00    +0.142 HD
ENDBRANCH  14  17
ENDBRANCH   3  11
BRANCH   5  20
ATOM     20  N   LIG    1        4.857  -0.642   0.317  0.00  0.00    -0.341 N 
ATOM     21  H   LIG    1        5.499  -1.368   0.342  0.00  0.00    +0.144 HD
ATOM     22  H   LIG    1        5.165   0.278   0.323  0.00  0.00    +0.144 HD
ENDBRANCH   5  20
TORSDOF 3
