REMARK  Name = ZINC29391511
REMARK                            x       y       z     vdW  Elec       q    Type
REMARK                         _______ _______ _______ _____ _____    ______ ____
ROOT
ATOM      1  C   LIG    1       -1.722   0.790   1.806  0.00  0.00    +0.006 A 
ATOM      2  C   LIG    1       -2.373   1.229   2.942  0.00  0.00    +0.016 A 
ATOM      3  C   LIG    1       -2.017   2.436   3.506  0.00  0.00    +0.020 A 
ATOM      4  C   LIG    1       -0.998   3.252   2.958  0.00  0.00    -0.010 A 
ATOM      5  C   LIG    1       -0.753   4.453   3.648  0.00  0.00    +0.031 A 
ATOM      6  C   LIG    1       -1.477   4.757   4.759  0.00  0.00    +0.097 A 
ATOM      7  C   LIG    1       -0.353   2.760   1.795  0.00  0.00    +0.014 A 
ATOM      8  S   LIG    1       -2.570   3.357   4.918  0.00  0.00    -0.082 S 
ATOM      9  C   LIG    1       -0.718   1.572   1.248  0.00  0.00    -0.027 A 
ENDROOT
BRANCH   6  10
ATOM     10  C   LIG    1       -1.381   5.946   5.616  0.00  0.00    +0.344 C 
ATOM     11  O   LIG    1       -0.571   6.816   5.360  0.00  0.00    -0.245 OA
BRANCH  10  12
ATOM     12  O   LIG    1       -2.192   6.072   6.686  0.00  0.00    -0.477 OA
ATOM     13  H   LIG    1       -2.816   5.402   6.883  0.00  0.00    +0.295 HD
ENDBRANCH  10  12
ENDBRANCH   6  10
BRANCH   9  14
ATOM     14  C   LIG    1       -0.013   1.086   0.008  0.00  0.00    +0.157 C 
BRANCH  14  15
ATOM     15  N   LIG    1       -0.721   1.571  -1.179  0.00  0.00    -0.332 N 
ATOM     16  C   LIG    1       -1.734   0.929  -1.839  0.00  0.00    +0.107 A 
ATOM     17  C   LIG    1       -2.096   1.724  -2.864  0.00  0.00    +0.130 A 
ATOM     18  N   LIG    1       -1.319   2.817  -2.836  0.00  0.00    -0.244 NA
ATOM     19  C   LIG    1       -0.493   2.732  -1.829  0.00  0.00    +0.199 A 
ENDBRANCH  14  15
ENDBRANCH   9  14
TORSDOF 4
