REMARK  Name = ZINC14979616
REMARK                            x       y       z     vdW  Elec       q    Type
REMARK                         _______ _______ _______ _____ _____    ______ ____
ROOT
ATOM      1  C   LIG    1        2.431   0.058  -0.021  0.00  0.00    +0.015 A 
ATOM      2  C   LIG    1        2.391   1.437  -0.014  0.00  0.00    +0.022 A 
ATOM      3  C   LIG    1        1.171   2.097   0.002  0.00  0.00    +0.061 A 
ATOM      4 CL   LIG    1        1.133   3.832   0.011  0.00  0.00    -0.082 Cl
ATOM      5  C   LIG    1       -0.017   1.384   0.010  0.00  0.00    +0.081 A 
ATOM      6 CL   LIG    1       -1.533   2.230   0.021  0.00  0.00    -0.080 Cl
ATOM      7  C   LIG    1        0.002  -0.004   0.002  0.00  0.00    +0.065 A 
ATOM      8  N   LIG    1       -1.031  -0.940   0.007  0.00  0.00    -0.277 N 
ATOM      9  H   LIG    1       -1.974  -0.713   0.017  0.00  0.00    +0.155 HD
ATOM     10  C   LIG    1       -0.555  -2.197  -0.004  0.00  0.00    +0.289 C 
ATOM     11  O   LIG    1       -1.216  -3.214  -0.003  0.00  0.00    -0.266 OA
ATOM     12  C   LIG    1        0.943  -2.112  -0.018  0.00  0.00    +0.249 C 
ATOM     13  O   LIG    1        1.736  -3.031  -0.031  0.00  0.00    -0.282 OA
ATOM     14  C   LIG    1        1.240  -0.669  -0.013  0.00  0.00    +0.050 A 
ENDROOT
TORSDOF 0
