REMARK  Name = ZINC00020229
REMARK                            x       y       z     vdW  Elec       q    Type
REMARK                         _______ _______ _______ _____ _____    ______ ____
ROOT
ATOM      1  C   LIG    1        0.433  -0.947   3.615  0.00  0.00    +0.080 A 
ATOM      2  C   LIG    1        1.256   0.163   3.406  0.00  0.00    +0.045 A 
ATOM      3  C   LIG    1        1.638   0.946   4.474  0.00  0.00    +0.106 A 
ATOM      4  C   LIG    1        1.210   0.638   5.755  0.00  0.00    +0.032 A 
ATOM      5  C   LIG    1        0.396  -0.455   5.976  0.00  0.00    +0.048 A 
ATOM      6  C   LIG    1       -0.002  -1.251   4.912  0.00  0.00    +0.132 A 
ENDROOT
BRANCH   1   9
ATOM      7  N   LIG    1        0.441  -1.492   1.231  0.00  0.00    -0.313 N 
ATOM      8  H   LIG    1        1.016  -0.725   1.083  0.00  0.00    +0.149 HD
ATOM      9  C   LIG    1        0.020  -1.789   2.477  0.00  0.00    +0.248 C 
ATOM     10  O   LIG    1       -0.701  -2.751   2.662  0.00  0.00    -0.270 OA
BRANCH   7  11
ATOM     11  C   LIG    1        0.031  -2.329   0.100  0.00  0.00    +0.089 C 
BRANCH  11  17
ATOM     12  N   LIG    1        0.284  -2.647  -2.325  0.00  0.00    +0.382 N 
ATOM     13  H   LIG    1       -0.108  -2.034  -3.024  0.00  0.00    -0.081 HD
ATOM     14  C   LIG    1        1.446  -3.363  -2.893  0.00  0.00    -0.078 C 
ATOM     15  C   LIG    1        2.677  -2.528  -2.459  0.00  0.00    -0.020 C 
ATOM     16  C   LIG    1        2.262  -2.075  -1.034  0.00  0.00    -0.016 C 
ATOM     17  C   LIG    1        0.741  -1.854  -1.169  0.00  0.00    -0.051 C 
BRANCH  12  19
ATOM     18  C   LIG    1       -1.276  -4.364  -3.108  0.00  0.00    -0.017 C 
ATOM     19  C   LIG    1       -0.730  -3.616  -1.891  0.00  0.00    -0.082 C 
ENDBRANCH  12  19
ENDBRANCH  11  17
ENDBRANCH   7  11
ENDBRANCH   1   9
BRANCH   3  20
ATOM     20  S   LIG    1        2.677   2.344   4.209  0.00  0.00    +0.056 S 
ATOM     21  O   LIG    1        3.385   2.101   3.001  0.00  0.00    -0.153 OA
ATOM     22  O   LIG    1        3.338   2.598   5.441  0.00  0.00    -0.153 OA
BRANCH  20  23
ATOM     23  N   LIG    1        1.688   3.642   3.925  0.00  0.00    -0.204 NA
ATOM     24  H   LIG    1        2.072   4.516   3.755  0.00  0.00    +0.144 HD
ATOM     25  H   LIG    1        0.725   3.528   3.930  0.00  0.00    +0.144 HD
ENDBRANCH  20  23
ENDBRANCH   3  20
BRANCH   6  26
ATOM     26  O   LIG    1       -0.806  -2.323   5.126  0.00  0.00    -0.494 OA
ATOM     27  C   LIG    1       -1.210  -2.571   6.474  0.00  0.00    +0.277 C 
ENDBRANCH   6  26
TORSDOF 7
