REMARK  Name = ZINC29221575
REMARK                            x       y       z     vdW  Elec       q    Type
REMARK                         _______ _______ _______ _____ _____    ______ ____
ROOT
ATOM      1  C   LIG    1        1.738  -2.043   5.141  0.00  0.00    +0.159 C 
ENDROOT
BRANCH   1   2
ATOM      2  C   LIG    1        2.333  -3.420   4.998  0.00  0.00    +0.234 C 
ATOM      3  N   LIG    1        3.027  -3.964   6.017  0.00  0.00    -0.302 N 
ATOM      4  H   LIG    1        3.144  -3.469   6.843  0.00  0.00    +0.150 HD
ATOM      5  O   LIG    1        2.187  -4.039   3.965  0.00  0.00    -0.274 OA
BRANCH   3   6
ATOM      6  C   LIG    1        3.605  -5.303   5.878  0.00  0.00    +0.159 C 
BRANCH   6   7
ATOM      7  C   LIG    1        2.565  -6.337   6.224  0.00  0.00    +0.234 C 
ATOM      8  N   LIG    1        2.873  -7.648   6.166  0.00  0.00    -0.302 N 
ATOM      9  H   LIG    1        3.764  -7.926   5.902  0.00  0.00    +0.150 HD
ATOM     10  O   LIG    1        1.451  -5.990   6.555  0.00  0.00    -0.274 OA
BRANCH   8  11
ATOM     11  C   LIG    1        1.863  -8.654   6.503  0.00  0.00    +0.167 C 
BRANCH  11  12
ATOM     12  C   LIG    1        1.848  -8.871   7.994  0.00  0.00    +0.231 C 
ATOM     13  N   LIG    1        0.991  -9.759   8.537  0.00  0.00    -0.328 N 
ATOM     14  H   LIG    1        0.981  -9.899   9.497  0.00  0.00    +0.145 HD
ATOM     15  H   LIG    1        0.384 -10.258   7.968  0.00  0.00    +0.145 HD
ATOM     16  O   LIG    1        2.606  -8.248   8.705  0.00  0.00    -0.274 OA
ENDBRANCH  11  12
BRANCH  11  17
ATOM     17  C   LIG    1        2.199  -9.970   5.799  0.00  0.00    +0.127 C 
BRANCH  17  18
ATOM     18  C   LIG    1        2.094  -9.783   4.307  0.00  0.00    +0.213 C 
ATOM     19  N   LIG    1        2.347 -10.816   3.479  0.00  0.00    -0.329 N 
ATOM     20  H   LIG    1        2.280 -10.695   2.519  0.00  0.00    +0.145 HD
ATOM     21  H   LIG    1        2.598 -11.679   3.843  0.00  0.00    +0.145 HD
ATOM     22  O   LIG    1        1.781  -8.703   3.852  0.00  0.00    -0.276 OA
ENDBRANCH  17  18
ENDBRANCH  11  17
ENDBRANCH   8  11
ENDBRANCH   6   7
BRANCH   6  23
ATOM     23  C   LIG    1        4.799  -5.444   6.823  0.00  0.00    +0.035 C 
BRANCH  23  24
ATOM     24  C   LIG    1        5.906  -4.478   6.394  0.00  0.00    +0.039 C 
BRANCH  24  25
ATOM     25  C   LIG    1        7.101  -4.619   7.340  0.00  0.00    +0.196 C 
BRANCH  25  26
ATOM     26  N   LIG    1        8.160  -3.695   6.929  0.00  0.00    -0.279 N 
ATOM     27  H   LIG    1        8.030  -3.120   6.159  0.00  0.00    +0.258 HD
BRANCH  26  28
ATOM     28  C   LIG    1        9.333  -3.643   7.631  0.00  0.00    +0.341 C 
ATOM     29  N   LIG    1       10.297  -2.803   7.258  0.00  0.00    -0.292 N 
ATOM     30  H   LIG    1       11.128  -2.767   7.756  0.00  0.00    +0.255 HD
ATOM     31  H   LIG    1       10.167  -2.228   6.488  0.00  0.00    +0.255 HD
BRANCH  28  32
ATOM     32  N   LIG    1        9.511  -4.434   8.689  0.00  0.00    -0.292 N 
ATOM     33  H   LIG    1       10.343  -4.397   9.187  0.00  0.00    +0.255 HD
ATOM     34  H   LIG    1        8.810  -5.046   8.961  0.00  0.00    +0.255 HD
ENDBRANCH  28  32
ENDBRANCH  26  28
ENDBRANCH  25  26
ENDBRANCH  24  25
ENDBRANCH  23  24
ENDBRANCH   6  23
ENDBRANCH   3   6
ENDBRANCH   1   2
BRANCH   1  36
ATOM     35  C   LIG    1        0.869  -0.384   3.583  0.00  0.00    +0.234 C 
ATOM     36  N   LIG    1        1.039  -1.682   3.906  0.00  0.00    -0.302 N 
ATOM     37  H   LIG    1        0.698  -2.376   3.321  0.00  0.00    +0.150 HD
ATOM     38  O   LIG    1        1.373   0.482   4.265  0.00  0.00    -0.274 OA
BRANCH  35  39
ATOM     39  C   LIG    1        0.051  -0.010   2.373  0.00  0.00    +0.159 C 
BRANCH  39  40
ATOM     40  N   LIG    1       -0.342   1.398   2.466  0.00  0.00    -0.302 N 
ATOM     41  H   LIG    1        0.223   2.029   2.937  0.00  0.00    +0.150 HD
ATOM     42  C   LIG    1       -1.490   1.816   1.896  0.00  0.00    +0.234 C 
ATOM     43  O   LIG    1       -2.242   1.012   1.386  0.00  0.00    -0.274 OA
BRANCH  42  44
ATOM     44  C   LIG    1       -1.840   3.282   1.893  0.00  0.00    +0.163 C 
BRANCH  44  45
ATOM     45  N   LIG    1       -3.126   3.476   1.220  0.00  0.00    -0.305 N 
ATOM     46  H   LIG    1       -3.769   2.750   1.185  0.00  0.00    +0.149 HD
ATOM     47  C   LIG    1       -3.416   4.662   0.649  0.00  0.00    +0.201 C 
ATOM     48  O   LIG    1       -2.612   5.568   0.693  0.00  0.00    -0.278 OA
BRANCH  47  49
ATOM     49  CA  LIG    1       -4.739   4.861  -0.044  0.00  0.00    +0.038 C 
BRANCH  49  50
ATOM     50  N   LIG    1       -5.023   6.298  -0.153  0.00  0.00    +0.387 N 
ATOM     51  H1  LIG    1       -5.909   6.432  -0.617  0.00  0.00    -0.089 HD
ATOM     52  H2  LIG    1       -4.293   6.746  -0.687  0.00  0.00    -0.089 HD
ATOM     53  H3  LIG    1       -5.062   6.705   0.770  0.00  0.00    -0.089 HD
ENDBRANCH  49  50
BRANCH  49  54
ATOM     54  C   LIG    1       -4.680   4.245  -1.443  0.00  0.00    +0.149 C 
BRANCH  54  55
ATOM     55  O   LIG    1       -5.968   4.331  -2.056  0.00  0.00    -0.396 OA
ATOM     56  H   LIG    1       -6.005   3.959  -2.947  0.00  0.00    +0.209 HD
ENDBRANCH  54  55
ENDBRANCH  49  54
ENDBRANCH  47  49
ENDBRANCH  44  45
BRANCH  44  57
ATOM     57  C   LIG    1       -1.938   3.785   3.335  0.00  0.00    +0.067 C 
BRANCH  57  58
ATOM     58  C   LIG    1       -2.165   5.275   3.332  0.00  0.00    -0.045 A 
ATOM     59  C   LIG    1       -1.087   6.139   3.342  0.00  0.00    +0.004 A 
ATOM     60  C   LIG    1       -1.296   7.506   3.339  0.00  0.00    +0.000 A 
ATOM     61  C   LIG    1       -2.583   8.008   3.326  0.00  0.00    +0.000 A 
ATOM     62  C   LIG    1       -3.662   7.144   3.315  0.00  0.00    +0.000 A 
ATOM     63  C   LIG    1       -3.453   5.777   3.313  0.00  0.00    +0.004 A 
ENDBRANCH  57  58
ENDBRANCH  44  57
ENDBRANCH  42  44
ENDBRANCH  39  40
BRANCH  39  64
ATOM     64  C   LIG    1        0.884  -0.225   1.108  0.00  0.00    +0.034 C 
BRANCH  64  66
ATOM     65  C   LIG    1       -0.130  -2.473   0.710  0.00  0.00    +0.007 C 
ATOM     66  C   LIG    1        1.180  -1.716   0.939  0.00  0.00    -0.015 C 
ATOM     67  C   LIG    1        2.103  -1.920  -0.264  0.00  0.00    +0.007 C 
ENDBRANCH  64  66
ENDBRANCH  39  64
ENDBRANCH  35  39
ENDBRANCH   1  36
BRANCH   1  68
ATOM     68  C   LIG    1        0.749  -2.033   6.309  0.00  0.00    +0.034 C 
BRANCH  68  69
ATOM     69  C   LIG    1        0.239  -0.608   6.534  0.00  0.00    -0.015 C 
ATOM     70  C   LIG    1        1.400   0.284   6.979  0.00  0.00    +0.007 C 
ATOM     71  C   LIG    1       -0.841  -0.618   7.617  0.00  0.00    +0.007 C 
ENDBRANCH  68  69
ENDBRANCH   1  68
TORSDOF 28
