REMARK  Name = ZINC45258649
REMARK                            x       y       z     vdW  Elec       q    Type
REMARK                         _______ _______ _______ _____ _____    ______ ____
ROOT
ATOM      1  C   LIG    1        0.088  -5.064   3.600  0.00  0.00    +0.092 C 
ENDROOT
BRANCH   1   9
ATOM      2  C   LIG    1       -0.018   1.503   0.010  0.00  0.00    +0.044 C 
ATOM      3  C   LIG    1        0.002  -0.004   0.002  0.00  0.00    -0.050 A 
ATOM      4  C   LIG    1        0.006  -0.688  -1.205  0.00  0.00    +0.007 A 
ATOM      5  C   LIG    1        0.024  -2.066  -1.232  0.00  0.00    +0.047 A 
ATOM      6  C   LIG    1        0.039  -2.783  -0.043  0.00  0.00    +0.143 A 
ATOM      7  C   LIG    1        0.036  -2.092   1.180  0.00  0.00    +0.060 A 
ATOM      8  C   LIG    1        0.052  -2.863   2.433  0.00  0.00    +0.138 A 
ATOM      9  C   LIG    1        0.070  -4.228   2.347  0.00  0.00    +0.084 A 
ATOM     10  C   LIG    1        0.072  -4.846   1.087  0.00  0.00    +0.344 A 
ATOM     11  O   LIG    1        0.088  -6.062   1.024  0.00  0.00    -0.245 OA
ATOM     12  O   LIG    1        0.057  -4.133  -0.051  0.00  0.00    -0.422 OA
ATOM     13  C   LIG    1        0.023  -0.696   1.193  0.00  0.00    +0.018 A 
BRANCH   8  14
ATOM     14  O   LIG    1        0.050  -2.240   3.633  0.00  0.00    -0.506 OA
ATOM     15  H   LIG    1        0.038  -1.304   3.676  0.00  0.00    +0.292 HD
ENDBRANCH   8  14
ENDBRANCH   1   9
BRANCH   1  16
ATOM     16  C   LIG    1       -1.321  -5.465   3.957  0.00  0.00    +0.084 A 
ATOM     17  C   LIG    1       -1.813  -6.676   3.554  0.00  0.00    +0.138 A 
ATOM     18  C   LIG    1       -3.194  -7.019   3.928  0.00  0.00    +0.060 A 
ATOM     19  C   LIG    1       -3.761  -8.238   3.550  0.00  0.00    +0.018 A 
ATOM     20  C   LIG    1       -5.056  -8.529   3.917  0.00  0.00    -0.050 A 
ATOM     21  C   LIG    1       -5.672  -9.843   3.512  0.00  0.00    +0.044 C 
ATOM     22  C   LIG    1       -5.796  -7.618   4.656  0.00  0.00    +0.007 A 
ATOM     23  C   LIG    1       -5.248  -6.410   5.035  0.00  0.00    +0.047 A 
ATOM     24  C   LIG    1       -3.944  -6.098   4.676  0.00  0.00    +0.143 A 
ATOM     25  O   LIG    1       -3.392  -4.920   5.040  0.00  0.00    -0.422 OA
ATOM     26  C   LIG    1       -2.131  -4.600   4.708  0.00  0.00    +0.344 A 
ATOM     27  O   LIG    1       -1.678  -3.526   5.065  0.00  0.00    -0.245 OA
BRANCH  17  28
ATOM     28  O   LIG    1       -1.054  -7.532   2.833  0.00  0.00    -0.506 OA
ATOM     29  H   LIG    1       -0.176  -7.299   2.602  0.00  0.00    +0.292 HD
ENDBRANCH  17  28
ENDBRANCH   1  16
TORSDOF 4
