REMARK  Name = ZINC00035846
REMARK                            x       y       z     vdW  Elec       q    Type
REMARK                         _______ _______ _______ _____ _____    ______ ____
ROOT
ATOM      1  C   LIG    1        5.095   3.404  -0.346  0.00  0.00    +0.001 A 
ATOM      2  C   LIG    1        6.241   2.612  -0.356  0.00  0.00    +0.002 A 
ATOM      3  C   LIG    1        6.160   1.257  -0.258  0.00  0.00    +0.028 A 
ATOM      4  C   LIG    1        4.901   0.639  -0.144  0.00  0.00    +0.072 A 
ATOM      5  C   LIG    1        3.738   1.451  -0.135  0.00  0.00    +0.014 A 
ATOM      6  C   LIG    1        2.431   0.803  -0.017  0.00  0.00    +0.070 A 
ATOM      7  C   LIG    1        2.413  -0.582   0.085  0.00  0.00    +0.044 A 
ATOM      8  C   LIG    1        3.625  -1.289   0.059  0.00  0.00    +0.072 A 
ATOM      9  N   LIG    1        4.790  -0.686  -0.048  0.00  0.00    -0.247 NA
ATOM     10  C   LIG    1        3.858   2.841  -0.237  0.00  0.00    +0.011 A 
ENDROOT
BRANCH   8  11
ATOM     11  C   LIG    1        3.591  -2.768   0.161  0.00  0.00    +0.000 A 
ATOM     12  C   LIG    1        2.373  -3.434   0.281  0.00  0.00    +0.011 A 
ATOM     13  C   LIG    1        2.347  -4.811   0.371  0.00  0.00    +0.016 A 
ATOM     14  C   LIG    1        3.530  -5.530   0.353  0.00  0.00    +0.018 A 
ATOM     15 BR   LIG    1        3.487  -7.416   0.484  0.00  0.00    -0.050 Br
ATOM     16  C   LIG    1        4.743  -4.873   0.241  0.00  0.00    +0.016 A 
ATOM     17  C   LIG    1        4.780  -3.497   0.145  0.00  0.00    +0.011 A 
ENDBRANCH   8  11
BRANCH   6  18
ATOM     18  C   LIG    1        1.181   1.591  -0.001  0.00  0.00    +0.338 C 
ATOM     19  O   LIG    1        1.228   2.804   0.013  0.00  0.00    -0.245 OA
BRANCH  18  20
ATOM     20  O   LIG    1       -0.011   0.963  -0.001  0.00  0.00    -0.477 OA
ATOM     21  H   LIG    1       -0.047   0.027  -0.012  0.00  0.00    +0.295 HD
ENDBRANCH  18  20
ENDBRANCH   6  18
TORSDOF 3
