REMARK  Name = ZINC00044054
REMARK                            x       y       z     vdW  Elec       q    Type
REMARK                         _______ _______ _______ _____ _____    ______ ____
ROOT
ATOM      1  C   LIG    1        0.164   1.307  -0.452  0.00  0.00    +0.155 C 
ATOM      2  N   LIG    1        0.052  -0.151  -0.549  0.00  0.00    -0.280 N 
ATOM      3  C   LIG    1       -1.163  -0.770  -0.301  0.00  0.00    +0.170 A 
ATOM      4  C   LIG    1       -1.241  -2.155  -0.401  0.00  0.00    +0.153 A 
ATOM      5  N   LIG    1       -2.555  -2.494  -0.104  0.00  0.00    -0.302 N 
ATOM      6  C   LIG    1       -3.209  -1.332   0.158  0.00  0.00    +0.201 A 
ATOM      7  C   LIG    1       -0.091  -2.885  -0.748  0.00  0.00    +0.280 A 
ATOM      8  N   LIG    1        1.064  -2.226  -0.978  0.00  0.00    -0.273 N 
ATOM      9  H   LIG    1        1.860  -2.727  -1.218  0.00  0.00    +0.173 HD
ATOM     10  O   LIG    1       -0.137  -4.099  -0.841  0.00  0.00    -0.265 OA
ATOM     11  N   LIG    1       -2.373  -0.321   0.037  0.00  0.00    -0.196 NA
ATOM     12  C   LIG    1        1.128  -0.887  -0.883  0.00  0.00    +0.331 A 
ATOM     13  O   LIG    1        2.186  -0.327  -1.102  0.00  0.00    -0.246 OA
ENDROOT
BRANCH   6  14
ATOM     14  N   LIG    1       -4.539  -1.227   0.495  0.00  0.00    -0.305 N 
ATOM     15  C   LIG    1       -4.955  -1.107   1.901  0.00  0.00    +0.089 C 
ATOM     16  C   LIG    1       -5.910   0.085   2.026  0.00  0.00    -0.063 C 
ATOM     17  N   LIG    1       -7.019  -0.076   1.077  0.00  0.00    +0.381 N 
ATOM     18  H   LIG    1       -7.686   0.669   1.212  0.00  0.00    -0.086 HD
ATOM     19  H   LIG    1       -7.472  -0.963   1.239  0.00  0.00    -0.086 HD
ATOM     20  C   LIG    1       -6.510  -0.033  -0.299  0.00  0.00    -0.063 C 
ATOM     21  C   LIG    1       -5.585  -1.225  -0.539  0.00  0.00    +0.089 C 
ENDBRANCH   6  14
BRANCH   5  22
ATOM     22  C   LIG    1       -3.125  -3.843  -0.079  0.00  0.00    +0.160 C 
BRANCH  22  23
ATOM     23  C   LIG    1       -3.002  -4.415   1.310  0.00  0.00    -0.028 A 
ATOM     24  C   LIG    1       -1.831  -5.038   1.700  0.00  0.00    +0.005 A 
ATOM     25  C   LIG    1       -1.718  -5.562   2.974  0.00  0.00    +0.000 A 
ATOM     26  C   LIG    1       -2.776  -5.462   3.858  0.00  0.00    +0.000 A 
ATOM     27  C   LIG    1       -3.946  -4.838   3.469  0.00  0.00    +0.000 A 
ATOM     28  C   LIG    1       -4.058  -4.311   2.196  0.00  0.00    +0.005 A 
ENDBRANCH  22  23
ENDBRANCH   5  22
TORSDOF 3
