REMARK  Name = ZINC00057876
REMARK                            x       y       z     vdW  Elec       q    Type
REMARK                         _______ _______ _______ _____ _____    ______ ____
ROOT
ATOM      1  C   LIG    1        2.338   5.208   0.008  0.00  0.00    +0.139 A 
ATOM      2  C   LIG    1        1.204   5.959   0.022  0.00  0.00    +0.098 A 
ATOM      3  C   LIG    1       -0.057   5.317   0.030  0.00  0.00    +0.193 A 
ATOM      4  C   LIG    1       -0.066   3.841   0.022  0.00  0.00    +0.064 A 
ATOM      5  C   LIG    1       -1.261   3.123   0.030  0.00  0.00    +0.015 A 
ATOM      6  C   LIG    1       -1.227   1.746   0.017  0.00  0.00    +0.001 A 
ATOM      7  C   LIG    1       -0.013   1.076   0.008  0.00  0.00    +0.004 A 
ATOM      8  C   LIG    1        1.176   1.774   0.000  0.00  0.00    +0.047 A 
ATOM      9  C   LIG    1        1.164   3.164   0.007  0.00  0.00    +0.139 A 
ATOM     10  O   LIG    1       -1.094   5.958   0.043  0.00  0.00    -0.287 OA
ATOM     11  O   LIG    1        2.316   3.866   0.001  0.00  0.00    -0.455 OA
ENDROOT
BRANCH   1  16
ATOM     12  C   LIG    1        7.429   7.888  -0.025  0.00  0.00    +0.044 C 
ATOM     13  C   LIG    1        6.095   7.186  -0.016  0.00  0.00    -0.050 A 
ATOM     14  C   LIG    1        6.045   5.803  -0.023  0.00  0.00    +0.004 A 
ATOM     15  C   LIG    1        4.828   5.154  -0.015  0.00  0.00    +0.012 A 
ATOM     16  C   LIG    1        3.645   5.896  -0.001  0.00  0.00    +0.017 A 
ATOM     17  C   LIG    1        3.703   7.291   0.001  0.00  0.00    +0.012 A 
ATOM     18  C   LIG    1        4.927   7.927  -0.001  0.00  0.00    +0.004 A 
ENDBRANCH   1  16
TORSDOF 1
