REMARK  Name = ZINC16904965
REMARK                            x       y       z     vdW  Elec       q    Type
REMARK                         _______ _______ _______ _____ _____    ______ ____
ROOT
ATOM      1  C   LIG    1       -4.276  -4.372   0.018  0.00  0.00    +0.028 C 
ATOM      2  C   LIG    1       -5.328  -3.666  -0.464  0.00  0.00    +0.080 C 
ATOM      3  C   LIG    1       -6.767  -4.005  -0.473  0.00  0.00    +0.261 C 
ATOM      4  N   LIG    1       -7.582  -3.114  -1.012  0.00  0.00    -0.218 N 
ATOM      5  C   LIG    1       -7.118  -1.962  -1.536  0.00  0.00    +0.286 C 
ATOM      6  O   LIG    1       -7.748  -1.065  -2.064  0.00  0.00    -0.262 OA
ATOM      7  O   LIG    1       -7.181  -5.050  -0.004  0.00  0.00    -0.269 OA
ATOM      8  S   LIG    1       -5.356  -2.070  -1.270  0.00  0.00    -0.026 S 
ENDROOT
BRANCH   1  11
ATOM      9  C   LIG    1       -0.571  -3.962   0.430  0.00  0.00    +0.004 A 
ATOM     10  C   LIG    1       -1.823  -4.539   0.391  0.00  0.00    +0.008 A 
ATOM     11  C   LIG    1       -2.939  -3.762   0.062  0.00  0.00    -0.020 A 
ATOM     12  C   LIG    1       -2.778  -2.402  -0.219  0.00  0.00    +0.053 A 
ATOM     13  C   LIG    1       -1.516  -1.837  -0.181  0.00  0.00    +0.122 A 
ATOM     14  C   LIG    1       -0.414  -2.618   0.146  0.00  0.00    +0.046 A 
BRANCH  13  15
ATOM     15  O   LIG    1       -1.353  -0.517  -0.460  0.00  0.00    -0.481 OA
BRANCH  15  16
ATOM     16  C   LIG    1       -0.023   0.001  -0.397  0.00  0.00    +0.349 C 
BRANCH  16  17
ATOM     17  C   LIG    1       -0.039   1.470  -0.733  0.00  0.00    +0.343 C 
ATOM     18  O   LIG    1       -1.082   2.016  -1.004  0.00  0.00    -0.247 OA
BRANCH  17  19
ATOM     19  O   LIG    1        1.106   2.170  -0.736  0.00  0.00    -0.478 OA
ATOM     20  H   LIG    1        1.915   1.746  -0.526  0.00  0.00    +0.295 HD
ENDBRANCH  17  19
ENDBRANCH  16  17
ENDBRANCH  15  16
ENDBRANCH  13  15
ENDBRANCH   1  11
BRANCH   4  21
ATOM     21  C   LIG    1       -9.021  -3.389  -1.046  0.00  0.00    +0.237 C 
BRANCH  21  22
ATOM     22  C   LIG    1       -9.362  -4.118  -2.320  0.00  0.00    +0.323 C 
ATOM     23  O   LIG    1       -8.493  -4.382  -3.117  0.00  0.00    -0.249 OA
BRANCH  22  24
ATOM     24  O   LIG    1      -10.632  -4.475  -2.569  0.00  0.00    -0.480 OA
ATOM     25  H   LIG    1      -11.306  -4.271  -1.951  0.00  0.00    +0.295 HD
ENDBRANCH  22  24
ENDBRANCH  21  22
ENDBRANCH   4  21
TORSDOF 8
