REMARK  Name = ZINC00020241
REMARK                            x       y       z     vdW  Elec       q    Type
REMARK                         _______ _______ _______ _____ _____    ______ ____
ROOT
ATOM      1  N   LIG    1        0.029  -2.796   2.325  0.00  0.00    -0.314 N 
ATOM      2  H   LIG    1        0.133  -2.301   3.153  0.00  0.00    +0.152 HD
ENDROOT
BRANCH   1   8
ATOM      3  C   LIG    1       -0.127   1.453  -0.141  0.00  0.00    +0.044 C 
ATOM      4  C   LIG    1       -0.121  -0.054  -0.117  0.00  0.00    -0.046 A 
ATOM      5  C   LIG    1       -0.189  -0.764  -1.303  0.00  0.00    +0.004 A 
ATOM      6  C   LIG    1       -0.185  -2.146  -1.286  0.00  0.00    +0.002 A 
ATOM      7  C   LIG    1       -0.112  -2.824  -0.084  0.00  0.00    +0.023 A 
ATOM      8  C   LIG    1       -0.044  -2.114   1.108  0.00  0.00    +0.035 A 
ATOM      9  C   LIG    1       -0.043  -0.725   1.087  0.00  0.00    -0.026 A 
ATOM     10  C   LIG    1        0.037   0.049   2.378  0.00  0.00    +0.046 C 
ENDBRANCH   1   8
BRANCH   1  11
ATOM     11  C   LIG    1       -0.048  -4.181   2.350  0.00  0.00    +0.045 A 
ATOM     12  C   LIG    1       -1.234  -4.809   2.714  0.00  0.00    +0.024 A 
ATOM     13  C   LIG    1       -1.307  -6.186   2.738  0.00  0.00    +0.002 A 
ATOM     14  C   LIG    1       -0.204  -6.955   2.401  0.00  0.00    +0.001 A 
ATOM     15  C   LIG    1        0.980  -6.354   2.038  0.00  0.00    +0.017 A 
ATOM     16  C   LIG    1        1.071  -4.958   2.003  0.00  0.00    +0.080 A 
BRANCH  16  17
ATOM     17  C   LIG    1        2.330  -4.308   1.610  0.00  0.00    +0.339 C 
ATOM     18  O   LIG    1        3.262  -4.982   1.192  0.00  0.00    -0.245 OA
BRANCH  17  19
ATOM     19  O   LIG    1        2.446  -3.093   1.701  0.00  0.00    -0.477 OA
ATOM     20  H   LIG    1        1.732  -2.577   2.021  0.00  0.00    +0.295 HD
ENDBRANCH  17  19
ENDBRANCH  16  17
ENDBRANCH   1  11
TORSDOF 4
