REMARK  Name = ZINC36427993
REMARK                            x       y       z     vdW  Elec       q    Type
REMARK                         _______ _______ _______ _____ _____    ______ ____
ROOT
ATOM      1  C   LIG    1       -0.017   1.382   0.010  0.00  0.00    +0.001 A 
ATOM      2  C   LIG    1        1.165   2.099   0.002  0.00  0.00    +0.001 A 
ATOM      3  C   LIG    1        2.384   1.441  -0.013  0.00  0.00    +0.012 A 
ATOM      4  C   LIG    1        2.419   0.051  -0.021  0.00  0.00    +0.033 A 
ATOM      5  C   LIG    1        1.217  -0.678  -0.013  0.00  0.00    +0.032 A 
ATOM      6  C   LIG    1        1.260  -2.158  -0.021  0.00  0.00    +0.187 C 
ATOM      7  C   LIG    1        2.549  -2.852  -0.037  0.00  0.00    +0.063 C 
ATOM      8  C   LIG    1        3.714  -2.157  -0.045  0.00  0.00    +0.033 C 
ATOM      9  O   LIG    1        0.225  -2.796  -0.014  0.00  0.00    -0.287 OA
ATOM     10  C   LIG    1        3.708  -0.673  -0.037  0.00  0.00    +0.195 C 
ATOM     11  O   LIG    1        4.754  -0.058  -0.045  0.00  0.00    -0.287 OA
ATOM     12  C   LIG    1        0.002  -0.004   0.002  0.00  0.00    +0.012 A 
ENDROOT
BRANCH   8  13
ATOM     13  C   LIG    1        4.999  -2.882  -0.061  0.00  0.00    -0.014 A 
ATOM     14  C   LIG    1        5.869  -2.792   1.030  0.00  0.00    +0.012 A 
ATOM     15  C   LIG    1        7.067  -3.470   1.011  0.00  0.00    +0.046 A 
ATOM     16  C   LIG    1        7.412  -4.245  -0.092  0.00  0.00    +0.117 A 
ATOM     17  C   LIG    1        6.550  -4.337  -1.179  0.00  0.00    +0.046 A 
ATOM     18  C   LIG    1        5.347  -3.667  -1.166  0.00  0.00    +0.012 A 
BRANCH  16  19
ATOM     19  O   LIG    1        8.594  -4.912  -0.106  0.00  0.00    -0.507 OA
ATOM     20  H   LIG    1        8.545  -5.806   0.259  0.00  0.00    +0.292 HD
ENDBRANCH  16  19
ENDBRANCH   8  13
TORSDOF 2
