REMARK  Name = ZINC13776384
REMARK                            x       y       z     vdW  Elec       q    Type
REMARK                         _______ _______ _______ _____ _____    ______ ____
ROOT
ATOM      1  C   LIG    1        3.652   2.158  -0.021  0.00  0.00    +0.162 C 
ATOM      2  O   LIG    1        4.709   1.564  -0.034  0.00  0.00    -0.292 OA
ENDROOT
BRANCH   1  10
ATOM      3  C   LIG    1        1.165   2.090   0.002  0.00  0.00    +0.013 A 
ATOM      4  C   LIG    1       -0.017   1.381   0.010  0.00  0.00    +0.022 A 
ATOM      5  C   LIG    1        0.002  -0.004   0.002  0.00  0.00    +0.059 A 
ATOM      6 CL   LIG    1       -1.492  -0.888   0.011  0.00  0.00    -0.082 Cl
ATOM      7  C   LIG    1        1.209  -0.688  -0.013  0.00  0.00    +0.060 A 
ATOM      8 CL   LIG    1        1.221  -2.424  -0.023  0.00  0.00    -0.082 Cl
ATOM      9  C   LIG    1        2.399   0.009  -0.020  0.00  0.00    +0.032 A 
ATOM     10  C   LIG    1        2.386   1.408  -0.013  0.00  0.00    +0.019 A 
ENDBRANCH   1  10
BRANCH   1  11
ATOM     11  C   LIG    1        3.634   3.665  -0.012  0.00  0.00    +0.074 C 
BRANCH  11  12
ATOM     12  CA  LIG    1        5.071   4.192  -0.023  0.00  0.00    +0.043 C 
BRANCH  12  13
ATOM     13  N   LIG    1        5.743   3.829  -1.284  0.00  0.00    +0.387 N 
ATOM     14  H1  LIG    1        6.692   4.219  -1.285  0.00  0.00    -0.089 HD
ATOM     15  H2  LIG    1        5.227   4.207  -2.076  0.00  0.00    -0.089 HD
ATOM     16  H3  LIG    1        5.800   2.815  -1.369  0.00  0.00    -0.089 HD
ENDBRANCH  12  13
BRANCH  12  17
ATOM     17  C   LIG    1        5.056   5.693   0.109  0.00  0.00    +0.290 C 
ATOM     18  O   LIG    1        5.191   6.387  -0.871  0.00  0.00    -0.253 OA
BRANCH  17  19
ATOM     19  OXT LIG    1        4.894   6.259   1.315  0.00  0.00    -0.482 OA
ATOM     20  HXT LIG    1        4.789   5.721   2.075  0.00  0.00    +0.295 HD
ENDBRANCH  17  19
ENDBRANCH  12  17
ENDBRANCH  11  12
ENDBRANCH   1  11
TORSDOF 6
