REMARK  Name = ZINC29136086
REMARK                            x       y       z     vdW  Elec       q    Type
REMARK                         _______ _______ _______ _____ _____    ______ ____
ROOT
ATOM      1  C   LIG    1       -2.427   1.365  -0.084  0.00  0.00    +0.163 A 
ATOM      2  N   LIG    1       -3.661   1.822  -0.177  0.00  0.00    -0.224 NA
ATOM      3  C   LIG    1       -4.698   0.992  -0.274  0.00  0.00    +0.086 A 
ATOM      4  C   LIG    1       -4.476  -0.357  -0.264  0.00  0.00    +0.044 A 
ATOM      5  S   LIG    1       -2.695  -0.402  -0.117  0.00  0.00    -0.054 S 
ENDROOT
BRANCH   3   6
ATOM      6  C   LIG    1       -6.076   1.524  -0.385  0.00  0.00    +0.004 A 
ATOM      7  C   LIG    1       -7.038   0.872  -1.163  0.00  0.00    +0.030 A 
ATOM      8  C   LIG    1       -8.310   1.399  -1.235  0.00  0.00    +0.111 A 
ATOM      9  N   LIG    1       -8.621   2.508  -0.589  0.00  0.00    -0.263 NA
ATOM     10  C   LIG    1       -7.743   3.156   0.152  0.00  0.00    +0.111 A 
ATOM     11  C   LIG    1       -6.450   2.696   0.282  0.00  0.00    +0.030 A 
ENDBRANCH   3   6
BRANCH   1  12
ATOM     12  N   LIG    1       -1.237   2.068   0.019  0.00  0.00    -0.294 N 
ATOM     13  H   LIG    1       -1.237   3.165  -0.071  0.00  0.00    +0.154 HD
BRANCH  12  20
ATOM     14  C   LIG    1       -0.026   0.224   0.999  0.00  0.00    +0.026 A 
ATOM     15  C   LIG    1        1.160  -0.453   1.208  0.00  0.00    +0.041 A 
ATOM     16  C   LIG    1        2.337   0.025   0.659  0.00  0.00    +0.135 A 
ATOM     17  F   LIG    1        3.496  -0.639   0.864  0.00  0.00    -0.205 F 
ATOM     18  C   LIG    1        2.329   1.182  -0.102  0.00  0.00    +0.092 A 
ATOM     19  C   LIG    1        1.146   1.862  -0.313  0.00  0.00    +0.038 A 
ATOM     20  C   LIG    1       -0.036   1.384   0.237  0.00  0.00    +0.033 A 
BRANCH  18  21
ATOM     21  C   LIG    1        3.612   1.699  -0.699  0.00  0.00    +0.420 C 
ATOM     22  F   LIG    1        4.150   0.734  -1.558  0.00  0.00    -0.166 F 
ATOM     23  F   LIG    1        4.526   1.974   0.324  0.00  0.00    -0.166 F 
ATOM     24  F   LIG    1        3.353   2.870  -1.419  0.00  0.00    -0.166 F 
ENDBRANCH  18  21
ENDBRANCH  12  20
ENDBRANCH   1  12
BRANCH   4  25
ATOM     25  C   LIG    1       -5.462  -1.493  -0.353  0.00  0.00    +0.200 C 
BRANCH  25  26
ATOM     26  O   LIG    1       -5.662  -1.844  -1.724  0.00  0.00    -0.390 OA
ATOM     27  H   LIG    1       -6.353  -2.658  -1.988  0.00  0.00    +0.210 HD
ENDBRANCH  25  26
ENDBRANCH   4  25
TORSDOF 6
