REMARK  Name = ZINC20621758
REMARK                            x       y       z     vdW  Elec       q    Type
REMARK                         _______ _______ _______ _____ _____    ______ ____
ROOT
ATOM      1  C   LIG    1       -3.970  -1.529   0.032  0.00  0.00    +0.248 C 
ATOM      2  N   LIG    1       -5.205  -2.067   0.041  0.00  0.00    -0.309 N 
ATOM      3  H   LIG    1       -5.315  -3.030   0.036  0.00  0.00    +0.149 HD
ATOM      4  O   LIG    1       -3.833  -0.320   0.037  0.00  0.00    -0.270 OA
ENDROOT
BRANCH   1  11
ATOM      5  C   LIG    1       -1.498  -1.846   0.006  0.00  0.00    +0.134 A 
ATOM      6  C   LIG    1       -0.392  -2.677  -0.003  0.00  0.00    +0.070 A 
ATOM      7  C   LIG    1       -0.561  -4.056  -0.008  0.00  0.00    +0.047 A 
ATOM      8  C   LIG    1       -1.843  -4.606  -0.005  0.00  0.00    +0.062 A 
ATOM      9 CL   LIG    1       -2.043  -6.330  -0.012  0.00  0.00    -0.082 Cl
ATOM     10  C   LIG    1       -2.941  -3.794   0.004  0.00  0.00    +0.038 A 
ATOM     11  C   LIG    1       -2.786  -2.404   0.016  0.00  0.00    +0.080 A 
BRANCH   7  12
ATOM     12  N   LIG    1        0.551  -4.891  -0.017  0.00  0.00    -0.357 N 
ATOM     13  H   LIG    1        0.435  -5.854  -0.021  0.00  0.00    +0.142 HD
ATOM     14  H   LIG    1        1.444  -4.511  -0.020  0.00  0.00    +0.142 HD
ENDBRANCH   7  12
BRANCH   5  15
ATOM     15  O   LIG    1       -1.339  -0.499   0.012  0.00  0.00    -0.491 OA
BRANCH  15  17
ATOM     16  C   LIG    1       -0.019   1.526   0.010  0.00  0.00    +0.048 C 
ATOM     17  C   LIG    1        0.002  -0.004   0.002  0.00  0.00    +0.226 C 
ENDBRANCH  15  17
ENDBRANCH   5  15
ENDBRANCH   1  11
BRANCH   2  18
ATOM     18  C   LIG    1       -6.383  -1.196   0.057  0.00  0.00    +0.137 C 
BRANCH  18  19
ATOM     19  C   LIG    1       -7.651  -2.053   0.064  0.00  0.00    +0.149 C 
ATOM     20  C   LIG    1       -8.883  -1.143   0.079  0.00  0.00    +0.118 C 
ATOM     21  N   LIG    1      -10.096  -1.970   0.008  0.00  0.00    -0.293 NA
ATOM     22  C   LIG    1      -10.094  -2.796  -1.208  0.00  0.00    +0.113 C 
ATOM     23  C   LIG    1       -8.850  -3.689  -1.210  0.00  0.00    +0.175 C 
ATOM     24  O   LIG    1       -7.681  -2.871  -1.109  0.00  0.00    -0.372 OA
BRANCH  21  25
ATOM     25  C   LIG    1      -11.305  -1.137   0.076  0.00  0.00    +0.119 C 
BRANCH  25  26
ATOM     26  C   LIG    1      -12.514  -2.020   0.248  0.00  0.00    -0.033 A 
ATOM     27  C   LIG    1      -13.181  -2.501  -0.862  0.00  0.00    +0.008 A 
ATOM     28  C   LIG    1      -14.290  -3.312  -0.706  0.00  0.00    +0.038 A 
ATOM     29  C   LIG    1      -14.732  -3.641   0.564  0.00  0.00    +0.123 A 
ATOM     30  F   LIG    1      -15.816  -4.433   0.719  0.00  0.00    -0.205 F 
ATOM     31  C   LIG    1      -14.062  -3.159   1.676  0.00  0.00    +0.038 A 
ATOM     32  C   LIG    1      -12.951  -2.353   1.517  0.00  0.00    +0.008 A 
ENDBRANCH  25  26
ENDBRANCH  21  25
ENDBRANCH  18  19
ENDBRANCH   2  18
TORSDOF 8
