REMARK  Name = ZINC13779544
REMARK                            x       y       z     vdW  Elec       q    Type
REMARK                         _______ _______ _______ _____ _____    ______ ____
ROOT
ATOM      1  C   LIG    1        3.890   5.513   0.111  0.00  0.00    -0.011 C 
ATOM      2  C   LIG    1        4.360   5.203  -1.312  0.00  0.00    +0.003 C 
ATOM      3  C   LIG    1        4.379   3.688  -1.525  0.00  0.00    +0.001 C 
ATOM      4  C   LIG    1        2.970   3.127  -1.320  0.00  0.00    +0.005 C 
ATOM      5  C   LIG    1        2.500   3.437   0.103  0.00  0.00    -0.035 C 
ATOM      6  C   LIG    1        2.482   4.952   0.316  0.00  0.00    +0.009 C 
ENDROOT
BRANCH   1   8
ATOM      7  C   LIG    1        5.300   7.572   0.242  0.00  0.00    +0.004 C 
ATOM      8  C   LIG    1        3.872   7.028   0.324  0.00  0.00    +0.000 C 
ENDBRANCH   1   8
BRANCH   5   9
ATOM      9  C   LIG    1        3.457   2.792   1.108  0.00  0.00    -0.079 C 
BRANCH   9  10
ATOM     10  N   LIG    1        3.368   1.327   0.981  0.00  0.00    +0.378 N 
ATOM     11  H   LIG    1        2.391   1.036   1.102  0.00  0.00    -0.090 HD
ATOM     12  H   LIG    1        3.939   0.879   1.695  0.00  0.00    -0.090 HD
ATOM     13  H   LIG    1        3.689   1.036   0.059  0.00  0.00    -0.090 HD
ENDBRANCH   9  10
ENDBRANCH   5   9
BRANCH   5  14
ATOM     14  C   LIG    1        1.092   2.876   0.308  0.00  0.00    +0.125 C 
BRANCH  14  15
ATOM     15  C   LIG    1        0.160   3.471  -0.716  0.00  0.00    +0.305 C 
ATOM     16  O   LIG    1        0.565   4.307  -1.488  0.00  0.00    -0.251 OA
BRANCH  15  17
ATOM     17  O   LIG    1       -1.121   3.072  -0.770  0.00  0.00    -0.481 OA
ATOM     18  H   LIG    1       -1.435   2.423  -0.171  0.00  0.00    +0.295 HD
ENDBRANCH  15  17
ENDBRANCH  14  15
ENDBRANCH   5  14
TORSDOF 6
