REMARK  Name = ZINC26819877
REMARK                            x       y       z     vdW  Elec       q    Type
REMARK                         _______ _______ _______ _____ _____    ______ ____
ROOT
ATOM      1  C   LIG    1       -0.013   1.086   0.008  0.00  0.00    +0.177 C 
ATOM      2  C   LIG    1       -0.753   1.593  -1.232  0.00  0.00    +0.192 C 
ATOM      3  C   LIG    1       -0.773   3.123  -1.223  0.00  0.00    +0.178 C 
ATOM      4  C   LIG    1        0.662   3.652  -1.234  0.00  0.00    +0.193 C 
ATOM      5  C   LIG    1        1.402   3.145   0.006  0.00  0.00    +0.193 C 
ATOM      6  C   LIG    1        1.423   1.615  -0.003  0.00  0.00    +0.177 C 
ENDROOT
BRANCH   1   7
ATOM      7  O   LIG    1       -0.682   1.547   1.184  0.00  0.00    -0.386 OA
ATOM      8  H   LIG    1       -0.266   1.262   2.009  0.00  0.00    +0.210 HD
ENDBRANCH   1   7
BRANCH   3   9
ATOM      9  O   LIG    1       -1.442   3.583  -0.047  0.00  0.00    -0.386 OA
ATOM     10  H   LIG    1       -2.359   3.285   0.026  0.00  0.00    +0.210 HD
ENDBRANCH   3   9
BRANCH   6  11
ATOM     11  O   LIG    1        2.114   1.142   1.155  0.00  0.00    -0.386 OA
ATOM     12  H   LIG    1        2.166   0.178   1.215  0.00  0.00    +0.210 HD
ENDBRANCH   6  11
BRANCH   2  13
ATOM     13  O   LIG    1       -2.093   1.098  -1.221  0.00  0.00    -0.278 OA
BRANCH  13  14
ATOM     14  P   LIG    1       -2.693   0.167  -2.390  0.00  0.00    +0.473 P 
ATOM     15  O   LIG    1       -2.516   0.874  -3.753  0.00  0.00    -0.228 OA
BRANCH  14  16
ATOM     16  O   LIG    1       -4.259  -0.091  -2.119  0.00  0.00    -0.303 OA
ATOM     17  H   LIG    1       -4.687  -0.646  -2.786  0.00  0.00    +0.222 HD
ENDBRANCH  14  16
BRANCH  14  18
ATOM     18  O   LIG    1       -1.944  -1.183  -2.409  0.00  0.00    -0.303 OA
ATOM     19  H   LIG    1       -1.001  -1.027  -2.572  0.00  0.00    +0.222 HD
ENDBRANCH  14  18
ENDBRANCH  13  14
ENDBRANCH   2  13
BRANCH   4  20
ATOM     20  O   LIG    1        0.643   5.081  -1.226  0.00  0.00    -0.278 OA
BRANCH  20  21
ATOM     21  P   LIG    1        1.294   5.973  -2.397  0.00  0.00    +0.473 P 
ATOM     22  O   LIG    1        2.796   5.568  -2.587  0.00  0.00    -0.228 OA
BRANCH  21  23
ATOM     23  O   LIG    1        1.207   7.489  -2.009  0.00  0.00    -0.303 OA
ATOM     24  H   LIG    1        1.690   7.639  -1.181  0.00  0.00    +0.222 HD
ENDBRANCH  21  23
BRANCH  21  25
ATOM     25  O   LIG    1        0.515   5.731  -3.734  0.00  0.00    -0.303 OA
ATOM     26  H   LIG    1        0.569   4.793  -3.974  0.00  0.00    +0.222 HD
ENDBRANCH  21  25
ENDBRANCH  20  21
ENDBRANCH   4  20
BRANCH   5  27
ATOM     27  O   LIG    1        0.733   3.606   1.181  0.00  0.00    -0.278 OA
BRANCH  27  28
ATOM     28  P   LIG    1        1.443   4.538   2.285  0.00  0.00    +0.473 P 
ATOM     29  O   LIG    1        2.757   3.848   2.786  0.00  0.00    -0.228 OA
BRANCH  28  30
ATOM     30  O   LIG    1        0.470   4.748   3.495  0.00  0.00    -0.303 OA
ATOM     31  H   LIG    1        0.253   3.889   3.889  0.00  0.00    +0.222 HD
ENDBRANCH  28  30
BRANCH  28  32
ATOM     32  O   LIG    1        1.792   5.927   1.649  0.00  0.00    -0.303 OA
ATOM     33  H   LIG    1        2.395   5.797   0.900  0.00  0.00    +0.222 HD
ENDBRANCH  28  32
ENDBRANCH  27  28
ENDBRANCH   5  27
TORSDOF 15
