REMARK  Name = ZINC00014092
REMARK                            x       y       z     vdW  Elec       q    Type
REMARK                         _______ _______ _______ _____ _____    ______ ____
ROOT
ATOM      1  C   LIG    1       -3.014  -2.361   0.018  0.00  0.00    +0.078 C 
ATOM      2  C   LIG    1       -3.550  -2.426  -1.411  0.00  0.00    +0.057 C 
ATOM      3  C   LIG    1       -2.834  -3.494  -2.196  0.00  0.00    -0.042 A 
ATOM      4  C   LIG    1       -2.915  -3.442  -3.582  0.00  0.00    +0.004 A 
ATOM      5  C   LIG    1       -2.288  -4.394  -4.357  0.00  0.00    +0.000 A 
ATOM      6  C   LIG    1       -1.572  -5.410  -3.751  0.00  0.00    +0.000 A 
ATOM      7  C   LIG    1       -1.488  -5.462  -2.375  0.00  0.00    +0.004 A 
ATOM      8  C   LIG    1       -2.117  -4.502  -1.593  0.00  0.00    -0.037 A 
ATOM      9  C   LIG    1       -1.971  -4.611  -0.097  0.00  0.00    +0.051 C 
ATOM     10  C   LIG    1       -3.038  -3.776   0.609  0.00  0.00    +0.035 C 
ENDROOT
BRANCH   9  11
ATOM     11  C   LIG    1       -2.119  -6.053   0.313  0.00  0.00    -0.040 A 
ATOM     12  C   LIG    1       -3.288  -6.736   0.033  0.00  0.00    +0.004 A 
ATOM     13  C   LIG    1       -3.423  -8.059   0.409  0.00  0.00    +0.000 A 
ATOM     14  C   LIG    1       -2.388  -8.700   1.065  0.00  0.00    +0.000 A 
ATOM     15  C   LIG    1       -1.219  -8.018   1.344  0.00  0.00    +0.000 A 
ATOM     16  C   LIG    1       -1.082  -6.696   0.964  0.00  0.00    +0.004 A 
ENDBRANCH   9  11
BRANCH   1  18
ATOM     17  C   LIG    1       -1.412  -0.526   0.013  0.00  0.00    +0.213 C 
ATOM     18  N   LIG    1       -1.640  -1.854   0.008  0.00  0.00    -0.312 N 
ATOM     19  H   LIG    1       -0.894  -2.474  -0.003  0.00  0.00    +0.149 HD
ATOM     20  O   LIG    1       -2.344   0.250   0.026  0.00  0.00    -0.276 OA
BRANCH  17  22
ATOM     21  C   LIG    1       -0.019   1.526   0.010  0.00  0.00    +0.013 C 
ATOM     22  C   LIG    1        0.002  -0.004   0.002  0.00  0.00    +0.092 C 
ENDBRANCH  17  22
ENDBRANCH   1  18
TORSDOF 3
