REMARK  Name = ZINC43071866
REMARK                            x       y       z     vdW  Elec       q    Type
REMARK                         _______ _______ _______ _____ _____    ______ ____
ROOT
ATOM      1  C   LIG    1        8.355  -2.343   0.892  0.00  0.00    -0.018 A 
ATOM      2  C   LIG    1        8.736  -3.635   0.535  0.00  0.00    +0.010 A 
ATOM      3  C   LIG    1       10.055  -3.905   0.234  0.00  0.00    +0.029 A 
ATOM      4  C   LIG    1       10.999  -2.895   0.285  0.00  0.00    +0.105 A 
ATOM      5  C   LIG    1       10.627  -1.611   0.640  0.00  0.00    +0.029 A 
ATOM      6  C   LIG    1        9.309  -1.329   0.938  0.00  0.00    +0.010 A 
ENDROOT
BRANCH   1  10
ATOM      7  C   LIG    1        4.294  -1.495   1.825  0.00  0.00    -0.049 A 
ATOM      8  C   LIG    1        4.667  -2.781   1.476  0.00  0.00    +0.004 A 
ATOM      9  C   LIG    1        5.984  -3.062   1.173  0.00  0.00    +0.009 A 
ATOM     10  C   LIG    1        6.938  -2.047   1.218  0.00  0.00    -0.018 A 
ATOM     11  C   LIG    1        6.556  -0.754   1.570  0.00  0.00    +0.009 A 
ATOM     12  C   LIG    1        5.236  -0.483   1.866  0.00  0.00    +0.004 A 
BRANCH   7  13
ATOM     13  C   LIG    1        2.854  -1.195   2.156  0.00  0.00    +0.016 C 
BRANCH  13  14
ATOM     14  C   LIG    1        2.110  -0.798   0.879  0.00  0.00    -0.074 C 
BRANCH  14  20
ATOM     15  C   LIG    1       -0.019   1.526   0.010  0.00  0.00    -0.013 C 
ATOM     16  C   LIG    1        0.002  -0.004   0.002  0.00  0.00    -0.072 C 
ATOM     17  C   LIG    1       -1.437  -0.549   0.058  0.00  0.00    -0.017 C 
ATOM     18  C   LIG    1       -1.494  -1.408   1.342  0.00  0.00    -0.020 C 
ATOM     19  C   LIG    1       -0.004  -1.751   1.595  0.00  0.00    -0.078 C 
ATOM     20  N   LIG    1        0.707  -0.505   1.202  0.00  0.00    +0.382 N 
ATOM     21  H   LIG    1        0.654   0.175   1.946  0.00  0.00    -0.081 HD
ENDBRANCH  14  20
ENDBRANCH  13  14
ENDBRANCH   7  13
ENDBRANCH   1  10
BRANCH   4  22
ATOM     22  S   LIG    1       12.682  -3.246  -0.101  0.00  0.00    +0.059 S 
ATOM     23  O   LIG    1       12.870  -4.636   0.129  0.00  0.00    -0.153 OA
ATOM     24  O   LIG    1       13.464  -2.254   0.550  0.00  0.00    -0.153 OA
BRANCH  22  25
ATOM     25  N   LIG    1       12.871  -3.006  -1.728  0.00  0.00    -0.187 NA
ATOM     26  H   LIG    1       13.088  -3.753  -2.307  0.00  0.00    +0.148 HD
BRANCH  25  27
ATOM     27  C   LIG    1       12.712  -1.664  -2.293  0.00  0.00    +0.081 C 
ATOM     28  C   LIG    1       11.283  -1.494  -2.816  0.00  0.00    +0.048 C 
ATOM     29  C   LIG    1       11.148  -0.119  -3.475  0.00  0.00    +0.161 C 
ATOM     30  O   LIG    1       12.110   0.000  -4.526  0.00  0.00    -0.380 OA
ATOM     31  C   LIG    1       13.467  -0.103  -4.089  0.00  0.00    +0.161 C 
ATOM     32  C   LIG    1       13.694  -1.477  -3.454  0.00  0.00    +0.048 C 
ENDBRANCH  25  27
ENDBRANCH  22  25
ENDBRANCH   4  22
TORSDOF 7
