REMARK  Name = ZINC39326742
REMARK                            x       y       z     vdW  Elec       q    Type
REMARK                         _______ _______ _______ _____ _____    ______ ____
ROOT
ATOM      1  C   LIG    1        2.248   0.158  -4.457  0.00  0.00    +0.015 C 
ATOM      2  C   LIG    1        2.029   1.486  -4.348  0.00  0.00    +0.000 C 
ATOM      3  C   LIG    1        2.609   2.452  -5.307  0.00  0.00    +0.185 C 
ATOM      4  C   LIG    1        1.720   3.573  -5.684  0.00  0.00    +0.000 C 
ATOM      5  C   LIG    1        0.867   4.161  -4.579  0.00  0.00    +0.039 C 
ATOM      6  C   LIG    1        0.150   3.023  -3.847  0.00  0.00    +0.009 C 
ATOM      7  C   LIG    1        1.672   4.048  -6.948  0.00  0.00    +0.015 C 
ATOM      8  O   LIG    1        3.737   2.333  -5.754  0.00  0.00    -0.287 OA
ATOM      9  C   LIG    1        1.172   2.064  -3.240  0.00  0.00    +0.039 C 
ENDROOT
BRANCH   1  14
ATOM     10  C   LIG    1        0.849  -2.859  -2.718  0.00  0.00    +0.166 A 
ATOM     11  C   LIG    1        0.944  -2.469  -1.384  0.00  0.00    +0.204 A 
ATOM     12  C   LIG    1        1.466  -1.220  -1.056  0.00  0.00    +0.166 A 
ATOM     13  C   LIG    1        1.892  -0.363  -2.052  0.00  0.00    +0.057 A 
ATOM     14  C   LIG    1        1.797  -0.751  -3.394  0.00  0.00    -0.018 A 
ATOM     15  C   LIG    1        1.277  -2.009  -3.720  0.00  0.00    +0.057 A 
BRANCH  10  17
ATOM     16  C   LIG    1        0.276  -4.416  -4.422  0.00  0.00    +0.277 C 
ATOM     17  O   LIG    1        0.339  -4.079  -3.035  0.00  0.00    -0.491 OA
ENDBRANCH  10  17
BRANCH  11  18
ATOM     18  O   LIG    1        0.527  -3.310  -0.401  0.00  0.00    -0.488 OA
ATOM     19  C   LIG    1        1.494  -4.216   0.132  0.00  0.00    +0.277 C 
ENDBRANCH  11  18
BRANCH  12  20
ATOM     20  O   LIG    1        1.557  -0.844   0.248  0.00  0.00    -0.491 OA
ATOM     21  C   LIG    1        2.102   0.450   0.514  0.00  0.00    +0.277 C 
ENDBRANCH  12  20
ENDBRANCH   1  14
BRANCH   7  22
ATOM     22  C   LIG    1        0.884   5.251  -7.251  0.00  0.00    -0.018 A 
ATOM     23  C   LIG    1        0.788   6.282  -6.310  0.00  0.00    +0.057 A 
ATOM     24  C   LIG    1        0.047   7.412  -6.599  0.00  0.00    +0.166 A 
ATOM     25  C   LIG    1       -0.604   7.526  -7.825  0.00  0.00    +0.204 A 
ATOM     26  C   LIG    1       -0.510   6.502  -8.764  0.00  0.00    +0.166 A 
ATOM     27  C   LIG    1        0.234   5.371  -8.485  0.00  0.00    +0.057 A 
BRANCH  24  28
ATOM     28  O   LIG    1       -0.048   8.414  -5.684  0.00  0.00    -0.491 OA
ATOM     29  C   LIG    1        0.644   8.231  -4.447  0.00  0.00    +0.277 C 
ENDBRANCH  24  28
BRANCH  25  30
ATOM     30  O   LIG    1       -1.332   8.638  -8.105  0.00  0.00    -0.488 OA
ATOM     31  C   LIG    1       -0.646   9.721  -8.737  0.00  0.00    +0.277 C 
ENDBRANCH  25  30
BRANCH  26  32
ATOM     32  O   LIG    1       -1.147   6.617  -9.960  0.00  0.00    -0.491 OA
ATOM     33  C   LIG    1       -1.008   5.529 -10.877  0.00  0.00    +0.277 C 
ENDBRANCH  26  32
ENDBRANCH   7  22
TORSDOF 8
