REMARK  Name = ZINC27633331
REMARK                            x       y       z     vdW  Elec       q    Type
REMARK                         _______ _______ _______ _____ _____    ______ ____
ROOT
ATOM      1  C   LIG    1       -1.736   4.200   0.023  0.00  0.00    +0.084 A 
ATOM      2  C   LIG    1       -3.089   4.011   0.035  0.00  0.00    +0.078 A 
ATOM      3  S   LIG    1       -3.661   5.704   0.056  0.00  0.00    -0.041 S 
ATOM      4  C   LIG    1       -2.105   6.473   0.048  0.00  0.00    +0.233 A 
ATOM      5  N   LIG    1       -1.281   5.446   0.035  0.00  0.00    -0.209 NA
ENDROOT
BRANCH   1  11
ATOM      6  C   LIG    1        2.931   3.867  -0.025  0.00  0.00    +0.001 A 
ATOM      7  C   LIG    1        3.374   2.552  -0.041  0.00  0.00    +0.002 A 
ATOM      8  C   LIG    1        2.476   1.508  -0.041  0.00  0.00    +0.026 A 
ATOM      9  C   LIG    1        1.109   1.772  -0.025  0.00  0.00    +0.047 A 
ATOM     10  C   LIG    1        0.667   3.106  -0.009  0.00  0.00    +0.009 A 
ATOM     11  C   LIG    1       -0.803   3.046   0.004  0.00  0.00    +0.026 A 
ATOM     12  C   LIG    1       -1.141   1.735  -0.009  0.00  0.00    +0.093 A 
ATOM     13  N   LIG    1       -0.009   0.967  -0.022  0.00  0.00    -0.360 N 
ATOM     14  H   LIG    1        0.102  -0.128  -0.029  0.00  0.00    +0.165 HD
ATOM     15  C   LIG    1        1.593   4.148  -0.009  0.00  0.00    +0.010 A 
ENDBRANCH   1  11
BRANCH   4  16
ATOM     16  N   LIG    1       -1.805   7.829   0.058  0.00  0.00    -0.225 N 
ATOM     17  H   LIG    1       -0.759   8.160   0.138  0.00  0.00    +0.267 HD
BRANCH  16  18
ATOM     18  C   LIG    1       -2.817   8.759  -0.033  0.00  0.00    +0.347 C 
ATOM     19  N   LIG    1       -4.061   8.371  -0.024  0.00  0.00    -0.292 N 
ATOM     20  H   LIG    1       -4.303   7.301   0.056  0.00  0.00    +0.255 HD
ATOM     21  H   LIG    1       -4.870   9.114  -0.096  0.00  0.00    +0.255 HD
BRANCH  18  22
ATOM     22  N   LIG    1       -2.515  10.097  -0.132  0.00  0.00    -0.292 N 
ATOM     23  H   LIG    1       -1.465  10.424  -0.139  0.00  0.00    +0.255 HD
ATOM     24  H   LIG    1       -3.323  10.839  -0.204  0.00  0.00    +0.255 HD
ENDBRANCH  18  22
ENDBRANCH  16  18
ENDBRANCH   4  16
TORSDOF 4
