REMARK  Name = ZINC45339167
REMARK                            x       y       z     vdW  Elec       q    Type
REMARK                         _______ _______ _______ _____ _____    ______ ____
ROOT
ATOM      1  C   LIG    1       -4.081  -1.734   2.322  0.00  0.00    +0.133 C 
ENDROOT
BRANCH   1   5
ATOM      2  C   LIG    1       -1.412  -0.526   0.013  0.00  0.00    +0.049 A 
ATOM      3  C   LIG    1       -2.122  -0.676  -1.135  0.00  0.00    +0.070 A 
ATOM      4  S   LIG    1       -3.662  -1.306  -0.488  0.00  0.00    -0.078 S 
ATOM      5  C   LIG    1       -3.244  -1.311   1.142  0.00  0.00    +0.099 A 
ATOM      6  N   LIG    1       -2.014  -0.862   1.136  0.00  0.00    -0.247 NA
BRANCH   2   8
ATOM      7  C   LIG    1       -0.019   1.526   0.010  0.00  0.00    +0.010 C 
ATOM      8  C   LIG    1        0.002  -0.004   0.002  0.00  0.00    +0.052 C 
ENDBRANCH   2   8
ENDBRANCH   1   5
BRANCH   1   9
ATOM      9  N   LIG    1       -5.428  -1.173   2.191  0.00  0.00    -0.305 N 
ATOM     10  H   LIG    1       -6.137  -1.702   1.794  0.00  0.00    +0.149 HD
ATOM     11  C   LIG    1       -5.682   0.078   2.624  0.00  0.00    +0.227 C 
ATOM     12  O   LIG    1       -4.795   0.739   3.122  0.00  0.00    -0.275 OA
BRANCH  11  13
ATOM     13  C   LIG    1       -7.067   0.655   2.490  0.00  0.00    +0.183 C 
BRANCH  13  14
ATOM     14  C   LIG    1       -8.044  -0.200   3.255  0.00  0.00    +0.319 C 
ATOM     15  O   LIG    1       -7.655  -1.178   3.849  0.00  0.00    -0.250 OA
BRANCH  14  16
ATOM     16  O   LIG    1       -9.346   0.124   3.278  0.00  0.00    -0.467 OA
ATOM     17  C   LIG    1      -10.215  -0.731   4.023  0.00  0.00    +0.280 C 
ENDBRANCH  14  16
ENDBRANCH  13  14
BRANCH  13  18
ATOM     18  C   LIG    1       -7.085   2.077   3.054  0.00  0.00    +0.027 C 
BRANCH  18  19
ATOM     19  C   LIG    1       -8.456   2.708   2.805  0.00  0.00    -0.016 C 
ATOM     20  C   LIG    1       -8.680   2.866   1.300  0.00  0.00    +0.007 C 
ATOM     21  C   LIG    1       -8.515   4.082   3.477  0.00  0.00    +0.007 C 
ENDBRANCH  18  19
ENDBRANCH  13  18
ENDBRANCH  11  13
ENDBRANCH   1   9
BRANCH   1  22
ATOM     22  C   LIG    1       -4.166  -3.261   2.365  0.00  0.00    +0.064 C 
BRANCH  22  23
ATOM     23  C   LIG    1       -4.898  -3.688   3.611  0.00  0.00    -0.045 A 
ATOM     24  C   LIG    1       -4.195  -3.919   4.780  0.00  0.00    +0.005 A 
ATOM     25  C   LIG    1       -4.863  -4.310   5.923  0.00  0.00    +0.025 A 
ATOM     26  C   LIG    1       -6.242  -4.471   5.900  0.00  0.00    +0.050 A 
ATOM     27  C   LIG    1       -6.946  -4.238   4.725  0.00  0.00    +0.025 A 
ATOM     28  C   LIG    1       -6.272  -3.842   3.586  0.00  0.00    +0.005 A 
BRANCH  26  29
ATOM     29  N   LIG    1       -6.921  -4.867   7.055  0.00  0.00    -0.197 N 
ATOM     30  H   LIG    1       -6.572  -5.592   7.597  0.00  0.00    +0.176 HD
BRANCH  29  31
ATOM     31  S   LIG    1       -8.320  -4.100   7.497  0.00  0.00    +0.164 S 
ATOM     32  O   LIG    1       -8.014  -2.680   7.583  0.00  0.00    -0.127 OA
ATOM     33  O   LIG    1       -8.713  -4.650   8.785  0.00  0.00    -0.127 OA
BRANCH  31  34
ATOM     34  O   LIG    1       -9.302  -4.383   6.463  0.00  0.00    -0.238 OA
ATOM     35  H   LIG    1       -9.479  -5.336   6.437  0.00  0.00    +0.246 HD
ENDBRANCH  31  34
ENDBRANCH  29  31
ENDBRANCH  26  29
ENDBRANCH  22  23
ENDBRANCH   1  22
TORSDOF 13
