REMARK  Name = ZINC28570229
REMARK                            x       y       z     vdW  Elec       q    Type
REMARK                         _______ _______ _______ _____ _____    ______ ____
ROOT
ATOM      1  C   UNK    1        4.592   0.254  -1.577  0.00  0.00    +0.068 C 
ENDROOT
BRANCH   1   2
ATOM      2  S   UNK    1        3.011   1.131  -1.730  0.00  0.00    -0.156 S 
BRANCH   2   3
ATOM      3  C   UNK    1        2.498   1.415  -0.014  0.00  0.00    +0.105 C 
BRANCH   3   8
ATOM      4  C   UNK    1       -0.055   4.197   0.025  0.00  0.00    +0.000 A 
ATOM      5  C   UNK    1       -1.246   3.492   0.032  0.00  0.00    +0.001 A 
ATOM      6  C   UNK    1       -1.234   2.113   0.019  0.00  0.00    +0.019 A 
ATOM      7  C   UNK    1       -0.017   1.428   0.010  0.00  0.00    +0.056 A 
ATOM      8  C   UNK    1        1.180   2.145   0.002  0.00  0.00    -0.020 A 
ATOM      9  C   UNK    1        1.154   3.525   0.010  0.00  0.00    +0.006 A 
BRANCH   7  10
ATOM     10  C   UNK    1        0.002  -0.004   0.002  0.00  0.00    +0.099 C 
ATOM     11  N   UNK    1        0.018  -1.140  -0.004  0.00  0.00    -0.191 NA
ENDBRANCH   7  10
ENDBRANCH   3   8
ENDBRANCH   2   3
ENDBRANCH   1   2
BRANCH   1  12
ATOM     12  C   UNK    1        5.143  -0.051  -2.971  0.00  0.00    +0.005 C 
BRANCH  12  13
ATOM     13  C   UNK    1        6.477  -0.790  -2.841  0.00  0.00    +0.036 C 
BRANCH  13  14
ATOM     14  N   UNK    1        7.469   0.095  -2.216  0.00  0.00    +0.387 N 
ATOM     15  H   UNK    1        7.605   0.991  -2.840  0.00  0.00    -0.089 HD
ATOM     16  H   UNK    1        7.116   0.394  -1.218  0.00  0.00    -0.089 HD
ATOM     17  H   UNK    1        8.427  -0.436  -2.123  0.00  0.00    -0.089 HD
ENDBRANCH  13  14
BRANCH  13  18
ATOM     18  C   UNK    1        6.959  -1.199  -4.209  0.00  0.00    +0.290 C 
ATOM     19  O   UNK    1        7.804  -0.545  -4.772  0.00  0.00    -0.253 OA
BRANCH  18  20
ATOM     20  O   UNK    1        6.450  -2.291  -4.801  0.00  0.00    -0.482 OA
ATOM     21  H   UNK    1        5.795  -2.799  -4.364  0.00  0.00    +0.295 HD
ENDBRANCH  18  20
ENDBRANCH  13  18
ENDBRANCH  12  13
ENDBRANCH   1  12
TORSDOF 9
