REMARK  Name = ZINC14951244
REMARK                            x       y       z     vdW  Elec       q    Type
REMARK                         _______ _______ _______ _____ _____    ______ ____
ROOT
ATOM      1  C   LIG    1        3.769  -2.162  -0.705  0.00  0.00    +0.393 C 
ATOM      2  N   LIG    1        2.624  -2.782  -0.685  0.00  0.00    -0.129 NA
ATOM      3  H   LIG    1        2.515  -3.584  -0.151  0.00  0.00    +0.306 HD
ENDROOT
BRANCH   1   4
ATOM      4  N   LIG    1        3.894  -0.969  -1.379  0.00  0.00    -0.243 N 
ATOM      5  H   LIG    1        4.766  -0.553  -1.472  0.00  0.00    +0.265 HD
BRANCH   4   9
ATOM      6  C   LIG    1        0.531   0.857  -3.025  0.00  0.00    +0.000 A 
ATOM      7  C   LIG    1        0.396   0.015  -1.937  0.00  0.00    +0.003 A 
ATOM      8  C   LIG    1        1.509  -0.592  -1.389  0.00  0.00    +0.042 A 
ATOM      9  C   LIG    1        2.765  -0.356  -1.932  0.00  0.00    +0.100 A 
ATOM     10  C   LIG    1        2.898   0.490  -3.025  0.00  0.00    +0.042 A 
ATOM     11  C   LIG    1        1.781   1.095  -3.568  0.00  0.00    +0.003 A 
ENDBRANCH   4   9
ENDBRANCH   1   4
BRANCH   1  12
ATOM     12  N   LIG    1        4.856  -2.701  -0.049  0.00  0.00    -0.186 N 
ATOM     13  H   LIG    1        4.793  -3.583   0.352  0.00  0.00    +0.271 HD
BRANCH  12  14
ATOM     14  C   LIG    1        6.034  -1.988   0.037  0.00  0.00    +0.385 C 
ATOM     15  N   LIG    1        7.163  -2.613   0.209  0.00  0.00    -0.129 NA
ATOM     16  H   LIG    1        7.177  -3.580   0.277  0.00  0.00    +0.306 HD
BRANCH  14  17
ATOM     17  N   LIG    1        6.015  -0.617  -0.059  0.00  0.00    -0.289 N 
ATOM     18  H   LIG    1        6.840  -0.130  -0.211  0.00  0.00    +0.255 HD
ATOM     19  H   LIG    1        5.176  -0.136   0.024  0.00  0.00    +0.255 HD
ENDBRANCH  14  17
ENDBRANCH  12  14
ENDBRANCH   1  12
TORSDOF 5
