REMARK  Name = ZINC26579301
REMARK                            x       y       z     vdW  Elec       q    Type
REMARK                         _______ _______ _______ _____ _____    ______ ____
ROOT
ATOM      1  C   LIG    1        2.853   4.748  -1.006  0.00  0.00    +0.042 C 
ATOM      2  C   LIG    1        2.423   3.938   0.001  0.00  0.00    +0.076 C 
ATOM      3  C   LIG    1        3.423   3.938   1.073  0.00  0.00    +0.343 C 
ATOM      4  O   LIG    1        4.454   4.737   0.744  0.00  0.00    -0.427 OA
ATOM      5  O   LIG    1        3.334   3.307   2.108  0.00  0.00    -0.245 OA
ATOM      6  C   LIG    1        4.187   5.307  -0.567  0.00  0.00    +0.342 C 
ENDROOT
BRANCH   1  10
ATOM      7  C   LIG    1        0.843   5.550  -4.651  0.00  0.00    +0.088 A 
ATOM      8  C   LIG    1        1.045   6.570  -3.737  0.00  0.00    +0.027 A 
ATOM      9  C   LIG    1        1.697   6.318  -2.550  0.00  0.00    +0.010 A 
ATOM     10  C   LIG    1        2.157   5.026  -2.269  0.00  0.00    -0.015 A 
ATOM     11  C   LIG    1        1.954   4.001  -3.201  0.00  0.00    +0.010 A 
ATOM     12  C   LIG    1        1.294   4.269  -4.381  0.00  0.00    +0.027 A 
BRANCH   7  14
ATOM     13  C   LIG    1        1.319   6.351  -7.329  0.00  0.00    +0.200 C 
ATOM     14  S   LIG    1        0.008   5.884  -6.166  0.00  0.00    -0.006 S 
ATOM     15  O   LIG    1       -0.820   7.004  -5.885  0.00  0.00    -0.170 OA
ATOM     16  O   LIG    1       -0.563   4.639  -6.547  0.00  0.00    -0.170 OA
ENDBRANCH   7  14
ENDBRANCH   1  10
BRANCH   2  17
ATOM     17  C   LIG    1        1.153   3.175   0.008  0.00  0.00    -0.011 A 
ATOM     18  C   LIG    1        1.174   1.780   0.000  0.00  0.00    +0.009 A 
ATOM     19  C   LIG    1       -0.013   1.076   0.008  0.00  0.00    +0.001 A 
ATOM     20  C   LIG    1       -1.221   1.750   0.017  0.00  0.00    +0.000 A 
ATOM     21  C   LIG    1       -1.248   3.133   0.031  0.00  0.00    +0.001 A 
ATOM     22  C   LIG    1       -0.068   3.849   0.023  0.00  0.00    +0.009 A 
ENDBRANCH   2  17
BRANCH   6  23
ATOM     23  O   LIG    1        4.122   6.732  -0.479  0.00  0.00    -0.354 OA
ATOM     24  H   LIG    1        5.009   7.305  -0.171  0.00  0.00    +0.214 HD
ENDBRANCH   6  23
TORSDOF 4
