REMARK  Name = ZINC00028150
REMARK                            x       y       z     vdW  Elec       q    Type
REMARK                         _______ _______ _______ _____ _____    ______ ____
ROOT
ATOM      1  C   LIG    1       -0.017   1.379   0.010  0.00  0.00    +0.002 A 
ATOM      2  C   LIG    1        1.165   2.096   0.002  0.00  0.00    +0.001 A 
ATOM      3  C   LIG    1        2.380   1.430  -0.013  0.00  0.00    +0.017 A 
ATOM      4  C   LIG    1        2.404   0.049  -0.021  0.00  0.00    +0.034 A 
ATOM      5  C   LIG    1        1.212  -0.680  -0.013  0.00  0.00    +0.045 A 
ATOM      6  N   LIG    1        1.239  -2.079  -0.018  0.00  0.00    -0.313 N 
ATOM      7  H   LIG    1        0.570  -2.561  -0.529  0.00  0.00    +0.152 HD
ATOM      8  C   LIG    1        2.202  -2.802   0.694  0.00  0.00    +0.045 A 
ATOM      9  C   LIG    1        1.860  -3.987   1.328  0.00  0.00    +0.024 A 
ATOM     10  C   LIG    1        2.818  -4.697   2.030  0.00  0.00    +0.002 A 
ATOM     11  C   LIG    1        4.118  -4.233   2.106  0.00  0.00    +0.001 A 
ATOM     12  C   LIG    1        4.470  -3.051   1.476  0.00  0.00    +0.017 A 
ATOM     13  C   LIG    1        3.517  -2.338   0.773  0.00  0.00    +0.034 A 
ATOM     14  S   LIG    1        3.936  -0.828  -0.041  0.00  0.00    -0.086 S 
ATOM     15  C   LIG    1        0.002  -0.004   0.002  0.00  0.00    +0.024 A 
ENDROOT
TORSDOF 0
