REMARK  Name = ZINC26150491
REMARK                            x       y       z     vdW  Elec       q    Type
REMARK                         _______ _______ _______ _____ _____    ______ ____
ROOT
ATOM      1  C   LIG    1       -0.742   1.585  -1.213  0.00  0.00    -0.004 A 
ATOM      2  C   LIG    1       -1.677   0.781  -1.836  0.00  0.00    +0.052 A 
ATOM      3  C   LIG    1       -2.351   1.243  -2.957  0.00  0.00    +0.121 A 
ATOM      4  C   LIG    1       -2.078   2.507  -3.458  0.00  0.00    +0.049 A 
ATOM      5  C   LIG    1       -1.140   3.308  -2.839  0.00  0.00    +0.049 A 
ATOM      6  C   LIG    1       -0.469   2.849  -1.714  0.00  0.00    +0.123 A 
ENDROOT
BRANCH   3   7
ATOM      7  O   LIG    1       -3.275   0.454  -3.567  0.00  0.00    -0.495 OA
ATOM      8  C   LIG    1       -3.927   0.990  -4.720  0.00  0.00    +0.277 C 
ENDBRANCH   3   7
BRANCH   6   9
ATOM      9  O   LIG    1        0.455   3.638  -1.104  0.00  0.00    -0.495 OA
ATOM     10  C   LIG    1        0.685   4.928  -1.675  0.00  0.00    +0.277 C 
ENDBRANCH   6   9
BRANCH   1  11
ATOM     11  C   LIG    1       -0.013   1.086   0.008  0.00  0.00    +0.023 C 
BRANCH  11  12
ATOM     12  C   LIG    1       -0.729   1.579   1.267  0.00  0.00    -0.071 C 
ATOM     13  C   LIG    1        0.079   1.179   2.503  0.00  0.00    -0.013 C 
BRANCH  12  14
ATOM     14  N   LIG    1       -2.066   0.975   1.338  0.00  0.00    +0.381 N 
ATOM     15  H   LIG    1       -2.459   0.866   0.317  0.00  0.00    -0.086 HD
ATOM     16  H   LIG    1       -1.980  -0.017   1.805  0.00  0.00    -0.086 HD
BRANCH  14  17
ATOM     17  C   LIG    1       -2.980   1.811   2.128  0.00  0.00    -0.082 C 
BRANCH  17  19
ATOM     18  C   LIG    1       -5.311   2.021   3.003  0.00  0.00    +0.002 C 
ATOM     19  C   LIG    1       -4.359   1.150   2.180  0.00  0.00    -0.022 C 
ENDBRANCH  17  19
ENDBRANCH  14  17
ENDBRANCH  12  14
ENDBRANCH  11  12
ENDBRANCH   1  11
TORSDOF 7
