REMARK  Name = ZINC28096944
REMARK                            x       y       z     vdW  Elec       q    Type
REMARK                         _______ _______ _______ _____ _____    ______ ____
ROOT
ATOM      1  C   LIG    1       -0.597   1.663  -1.259  0.00  0.00    -0.061 A 
ATOM      2  C   LIG    1       -1.409   2.779  -1.171  0.00  0.00    +0.005 A 
ATOM      3  C   LIG    1       -2.030   3.274  -2.301  0.00  0.00    +0.046 A 
ATOM      4  C   LIG    1       -1.846   2.645  -3.524  0.00  0.00    +0.120 A 
ATOM      5  C   LIG    1       -1.036   1.523  -3.609  0.00  0.00    +0.046 A 
ATOM      6  C   LIG    1       -0.413   1.034  -2.477  0.00  0.00    +0.005 A 
ENDROOT
BRANCH   1  13
ATOM      7  C   LIG    1        1.185   3.246  -0.456  0.00  0.00    -0.095 C 
ATOM      8  N   LIG    1        1.086   2.096   0.454  0.00  0.00    +0.382 N 
ATOM      9  H   LIG    1        2.078   1.621   0.475  0.00  0.00    -0.081 HD
ATOM     10  C   LIG    1        0.708   2.530   1.816  0.00  0.00    -0.078 C 
ATOM     11  C   LIG    1       -0.162   1.375   2.371  0.00  0.00    -0.020 C 
ATOM     12  C   LIG    1       -0.948   0.939   1.107  0.00  0.00    -0.013 C 
ATOM     13  C   LIG    1        0.083   1.128  -0.026  0.00  0.00    -0.038 C 
ENDBRANCH   1  13
BRANCH   4  14
ATOM     14  O   LIG    1       -2.460   3.128  -4.636  0.00  0.00    -0.495 OA
ATOM     15  C   LIG    1       -3.280   4.287  -4.474  0.00  0.00    +0.277 C 
ENDBRANCH   4  14
TORSDOF 2
