REMARK  Name = ZINC49670037
REMARK                            x       y       z     vdW  Elec       q    Type
REMARK                         _______ _______ _______ _____ _____    ______ ____
ROOT
ATOM      1  C   LIG    1        9.003  -3.665   1.975  0.00  0.00    +0.100 A 
ATOM      2  C   LIG    1        9.985  -3.447   3.045  0.00  0.00    +0.022 A 
ATOM      3  C   LIG    1       11.019  -4.335   2.811  0.00  0.00    +0.123 A 
ATOM      4  N   LIG    1       10.714  -5.038   1.704  0.00  0.00    -0.239 N 
ATOM      5  N   LIG    1        9.477  -4.621   1.207  0.00  0.00    -0.166 NA
ENDROOT
BRANCH   2   6
ATOM      6  C   LIG    1        9.887  -2.481   4.144  0.00  0.00    +0.032 C 
ATOM      7  C   LIG    1       10.883  -2.396   5.064  0.00  0.00    +0.077 C 
ATOM      8  C   LIG    1       11.002  -1.518   6.242  0.00  0.00    +0.258 C 
ATOM      9  N   LIG    1       12.095  -1.651   6.975  0.00  0.00    -0.254 N 
ATOM     10  C   LIG    1       13.051  -2.547   6.656  0.00  0.00    +0.121 C 
ATOM     11  S   LIG    1       14.524  -2.866   7.469  0.00  0.00    -0.027 S 
ATOM     12  O   LIG    1       10.136  -0.711   6.527  0.00  0.00    -0.269 OA
ATOM     13  S   LIG    1       12.407  -3.324   5.183  0.00  0.00    -0.061 S 
BRANCH   9  14
ATOM     14  C   LIG    1       12.270  -0.807   8.159  0.00  0.00    +0.140 C 
BRANCH  14  15
ATOM     15  C   LIG    1       11.669  -1.508   9.379  0.00  0.00    +0.217 C 
BRANCH  15  16
ATOM     16  S   LIG    1       11.886  -0.462  10.845  0.00  0.00    +0.081 S 
ATOM     17  O   LIG    1       13.296  -0.174  11.059  0.00  0.00    -0.147 OA
ATOM     18  O   LIG    1       11.321  -1.109  12.019  0.00  0.00    -0.147 OA
BRANCH  16  19
ATOM     19  O   LIG    1       11.160   0.762  10.545  0.00  0.00    -0.254 OA
ATOM     20  H   LIG    1       10.223   0.556  10.405  0.00  0.00    +0.244 HD
ENDBRANCH  16  19
ENDBRANCH  15  16
ENDBRANCH  14  15
ENDBRANCH   9  14
ENDBRANCH   2   6
BRANCH   1  24
ATOM     21  C   LIG    1        5.318  -1.605   1.466  0.00  0.00    +0.121 A 
ATOM     22  C   LIG    1        6.046  -2.006   0.355  0.00  0.00    +0.046 A 
ATOM     23  C   LIG    1        7.242  -2.674   0.516  0.00  0.00    +0.013 A 
ATOM     24  C   LIG    1        7.719  -2.946   1.798  0.00  0.00    +0.003 A 
ATOM     25  C   LIG    1        6.986  -2.542   2.912  0.00  0.00    +0.013 A 
ATOM     26  C   LIG    1        5.793  -1.869   2.744  0.00  0.00    +0.046 A 
BRANCH  21  27
ATOM     27  O   LIG    1        4.141  -0.946   1.304  0.00  0.00    -0.487 OA
BRANCH  27  28
ATOM     28  C   LIG    1        3.711  -0.707  -0.038  0.00  0.00    +0.264 C 
BRANCH  28  32
ATOM     29  C   LIG    1       -0.017   1.378   0.010  0.00  0.00    +0.000 A 
ATOM     30  C   LIG    1        1.171   2.086   0.002  0.00  0.00    +0.000 A 
ATOM     31  C   LIG    1        2.377   1.411  -0.013  0.00  0.00    +0.007 A 
ATOM     32  C   LIG    1        2.396   0.029  -0.020  0.00  0.00    -0.010 A 
ATOM     33  C   LIG    1        1.208  -0.679  -0.012  0.00  0.00    +0.007 A 
ATOM     34  C   LIG    1        0.002  -0.004   0.002  0.00  0.00    +0.000 A 
ENDBRANCH  28  32
ENDBRANCH  27  28
ENDBRANCH  21  27
ENDBRANCH   1  24
BRANCH   4  35
ATOM     35  C   LIG    1       11.514  -6.040   1.139  0.00  0.00    +0.065 A 
ATOM     36  C   LIG    1       12.725  -6.379   1.729  0.00  0.00    +0.028 A 
ATOM     37  C   LIG    1       13.511  -7.367   1.169  0.00  0.00    +0.002 A 
ATOM     38  C   LIG    1       13.094  -8.018   0.023  0.00  0.00    +0.000 A 
ATOM     39  C   LIG    1       11.889  -7.683  -0.567  0.00  0.00    +0.002 A 
ATOM     40  C   LIG    1       11.096  -6.699  -0.009  0.00  0.00    +0.028 A 
ENDBRANCH   4  35
TORSDOF 10
