REMARK  Name = ZINC26839554
REMARK                            x       y       z     vdW  Elec       q    Type
REMARK                         _______ _______ _______ _____ _____    ______ ____
ROOT
ATOM      1  C   UNK A  2       -1.595   5.447  -1.918  0.00  0.00    +0.000 A 
ATOM      2  C   UNK A  2       -1.980   4.491  -2.839  0.00  0.00    +0.000 A 
ATOM      3  C   UNK A  2       -1.737   3.158  -2.583  0.00  0.00    +0.005 A 
ATOM      4  C   UNK A  2       -1.110   2.769  -1.407  0.00  0.00    -0.027 A 
ATOM      5  C   UNK A  2       -0.719   3.720  -0.492  0.00  0.00    -0.040 A 
ATOM      6  C   UNK A  2       -0.022   3.376   0.798  0.00  0.00    +0.069 C 
ATOM      7  C   UNK A  2       -0.250   1.911   1.165  0.00  0.00    +0.189 C 
ATOM      8  N   UNK A  2        0.005   1.098  -0.035  0.00  0.00    -0.285 N 
ATOM      9  C   TYR A  1        1.018   0.210  -0.079  0.00  0.00    +0.202 C 
ATOM     10  O   TYR A  1        1.796   0.132   0.849  0.00  0.00    -0.277 OA
ATOM     11  C   UNK A  2       -0.888   1.294  -1.182  0.00  0.00    +0.144 C 
ATOM     12  C   UNK A  2       -0.967   5.063  -0.752  0.00  0.00    +0.004 A 
ENDROOT
BRANCH   7  13
ATOM     13  C   UNK A  2        0.698   1.507   2.264  0.00  0.00    +0.326 C 
ATOM     14  O   UNK A  2        0.302   0.835   3.187  0.00  0.00    -0.249 OA
BRANCH  13  15
ATOM     15  O   UNK A  2        1.983   1.892   2.217  0.00  0.00    -0.479 OA
ATOM     16  H   UNK A  2        2.290   2.413   1.501  0.00  0.00    +0.295 HD
ENDBRANCH  13  15
ENDBRANCH   7  13
BRANCH   9  17
ATOM     17  CA  TYR A  1        1.184  -0.685  -1.280  0.00  0.00    +0.017 C 
BRANCH  17  18
ATOM     18  N   TYR A  1        2.562  -1.194  -1.324  0.00  0.00    +0.386 N 
ATOM     19  H1  TYR A  1        3.262  -0.349  -1.396  0.00  0.00    -0.089 HD
ATOM     20  H2  TYR A  1        2.771  -1.766  -0.408  0.00  0.00    -0.089 HD
ATOM     21  H3  TYR A  1        2.683  -1.847  -2.201  0.00  0.00    -0.089 HD
ENDBRANCH  17  18
BRANCH  17  22
ATOM     22  CB  TYR A  1        0.209  -1.860  -1.179  0.00  0.00    +0.028 C 
BRANCH  22  23
ATOM     23  CG  TYR A  1        0.288  -2.687  -2.436  0.00  0.00    -0.048 A 
ATOM     24  CD2 TYR A  1       -0.539  -2.398  -3.506  0.00  0.00    +0.007 A 
ATOM     25  CE2 TYR A  1       -0.465  -3.151  -4.661  0.00  0.00    +0.045 A 
ATOM     26  CZ  TYR A  1        0.434  -4.205  -4.744  0.00  0.00    +0.117 A 
ATOM     27  CE1 TYR A  1        1.259  -4.497  -3.668  0.00  0.00    +0.045 A 
ATOM     28  CD1 TYR A  1        1.185  -3.737  -2.516  0.00  0.00    +0.007 A 
BRANCH  26  29
ATOM     29  OH  TYR A  1        0.505  -4.951  -5.878  0.00  0.00    -0.507 OA
ATOM     30  HH  TYR A  1        1.218  -5.787  -5.943  0.00  0.00    +0.292 HD
ENDBRANCH  26  29
ENDBRANCH  22  23
ENDBRANCH  17  22
ENDBRANCH   9  17
TORSDOF 7
