REMARK  Name = ZINC26974195
REMARK                            x       y       z     vdW  Elec       q    Type
REMARK                         _______ _______ _______ _____ _____    ______ ____
ROOT
ATOM      1  C   LIG    1       -0.522   0.200   2.933  0.00  0.00    +0.000 A 
ATOM      2  C   LIG    1        0.704  -0.356   2.648  0.00  0.00    +0.015 A 
ATOM      3  C   LIG    1        1.699  -0.393   3.633  0.00  0.00    -0.023 A 
ATOM      4  C   LIG    1        1.440   0.137   4.903  0.00  0.00    +0.015 A 
ATOM      5  C   LIG    1        0.211   0.691   5.177  0.00  0.00    +0.000 A 
ATOM      6  C   LIG    1       -0.772   0.730   4.194  0.00  0.00    +0.124 A 
ENDROOT
BRANCH   3   7
ATOM      7  C   LIG    1        3.009  -0.985   3.335  0.00  0.00    +0.028 C 
ATOM      8  C   LIG    1        4.027  -0.865   4.225  0.00  0.00    +0.079 C 
ATOM      9  C   LIG    1        5.362  -1.506   4.231  0.00  0.00    +0.276 C 
ATOM     10  N   LIG    1        6.152  -1.197   5.236  0.00  0.00    -0.155 NA
ATOM     11  C   LIG    1        5.787  -0.362   6.195  0.00  0.00    +0.149 C 
ATOM     12  O   LIG    1        5.711  -2.278   3.352  0.00  0.00    -0.267 OA
ATOM     13  S   LIG    1        4.135   0.117   5.715  0.00  0.00    -0.052 S 
BRANCH  11  14
ATOM     14  N   LIG    1        6.506   0.043   7.289  0.00  0.00    -0.339 N 
ATOM     15  H   LIG    1        7.525  -0.339   7.450  0.00  0.00    +0.144 HD
ATOM     16  H   LIG    1        6.063   0.750   8.007  0.00  0.00    +0.144 HD
ENDBRANCH  11  14
ENDBRANCH   3   7
BRANCH   1  18
ATOM     17  C   LIG    1       -1.065  -0.397   0.589  0.00  0.00    +0.015 C 
ATOM     18  C   LIG    1       -1.594   0.240   1.875  0.00  0.00    -0.009 C 
ATOM     19  C   LIG    1       -2.821  -0.535   2.361  0.00  0.00    +0.015 C 
ATOM     20  C   LIG    1       -1.986   1.694   1.601  0.00  0.00    +0.015 C 
ENDBRANCH   1  18
BRANCH   5  21
ATOM     21  C   LIG    1       -0.069   1.263   6.543  0.00  0.00    -0.009 C 
ATOM     22  C   LIG    1       -1.248   0.520   7.176  0.00  0.00    +0.015 C 
ATOM     23  C   LIG    1       -0.413   2.748   6.414  0.00  0.00    +0.015 C 
ATOM     24  C   LIG    1        1.169   1.101   7.427  0.00  0.00    +0.015 C 
ENDBRANCH   5  21
BRANCH   6  25
ATOM     25  O   LIG    1       -1.981   1.283   4.468  0.00  0.00    -0.506 OA
ATOM     26  H   LIG    1       -2.180   1.704   5.465  0.00  0.00    +0.292 HD
ENDBRANCH   6  25
TORSDOF 5
