REMARK  Name = ZINC13809446
REMARK                            x       y       z     vdW  Elec       q    Type
REMARK                         _______ _______ _______ _____ _____    ______ ____
ROOT
ATOM      1  C1* LIG    1        1.528   2.445   1.316  0.00  0.00    +0.252 C 
ATOM      2  C2* LIG    1        1.427   1.647  -0.003  0.00  0.00    +0.195 C 
ATOM      3  C3* LIG    1       -0.013   1.086   0.008  0.00  0.00    +0.178 C 
ATOM      4  C4* LIG    1       -0.611   1.612   1.332  0.00  0.00    +0.177 C 
ATOM      5  O4* LIG    1        0.532   1.858   2.180  0.00  0.00    -0.346 OA
ENDROOT
BRANCH   1  16
ATOM      6  C   LIG    1        3.202   1.376   2.860  0.00  0.00    +0.105 A 
ATOM      7  C   LIG    1        4.501   1.505   3.177  0.00  0.00    +0.043 A 
ATOM      8  I   LIG    1        5.563   0.366   4.579  0.00  0.00    -0.041 I 
ATOM      9  C   LIG    1        5.032   2.593   2.356  0.00  0.00    +0.069 A 
ATOM     10  C   LIG    1        3.954   3.050   1.567  0.00  0.00    +0.148 A 
ATOM     11  N   LIG    1        4.168   4.055   0.724  0.00  0.00    -0.218 NA
ATOM     12  C   LIG    1        5.360   4.602   0.622  0.00  0.00    +0.225 A 
ATOM     13  N   LIG    1        6.393   4.198   1.340  0.00  0.00    -0.223 NA
ATOM     14  C   LIG    1        6.276   3.207   2.211  0.00  0.00    +0.143 A 
ATOM     15 CL   LIG    1        7.640   2.683   3.149  0.00  0.00    -0.061 Cl
ATOM     16  N   LIG    1        2.863   2.296   1.901  0.00  0.00    -0.302 N 
ENDBRANCH   1  16
BRANCH   2  17
ATOM     17  O2* LIG    1        1.620   2.509  -1.126  0.00  0.00    -0.385 OA
ATOM     18  H2* LIG    1        1.508   2.071  -1.981  0.00  0.00    +0.210 HD
ENDBRANCH   2  17
BRANCH   3  19
ATOM     19  O3* LIG    1       -0.752   1.581  -1.110  0.00  0.00    -0.386 OA
ATOM     20  H3* LIG    1       -1.671   1.284  -1.137  0.00  0.00    +0.210 HD
ENDBRANCH   3  19
BRANCH   4  21
ATOM     21  C5* LIG    1       -1.523   0.557   1.960  0.00  0.00    +0.190 C 
BRANCH  21  22
ATOM     22  O5* LIG    1       -2.156   1.104   3.119  0.00  0.00    -0.392 OA
ATOM     23  H5* LIG    1       -2.751   0.488   3.570  0.00  0.00    +0.210 HD
ENDBRANCH  21  22
ENDBRANCH   4  21
TORSDOF 5
