REMARK  Name = ZINC40979326
REMARK                            x       y       z     vdW  Elec       q    Type
REMARK                         _______ _______ _______ _____ _____    ______ ____
ROOT
ATOM      1  C   LIG    1        2.963  -0.265  -2.391  0.00  0.00    +0.219 A 
ATOM      2  N   LIG    1        2.338  -0.453  -3.546  0.00  0.00    -0.197 NA
ATOM      3  C   LIG    1        2.895  -0.086  -4.695  0.00  0.00    +0.156 A 
ATOM      4  C   LIG    1        4.169   0.508  -4.665  0.00  0.00    +0.148 A 
ATOM      5  C   LIG    1        4.791   0.686  -3.419  0.00  0.00    +0.167 A 
ATOM      6  N   LIG    1        6.001   1.278  -3.681  0.00  0.00    -0.312 N 
ATOM      7  C   LIG    1        6.091   1.443  -5.033  0.00  0.00    +0.201 A 
ATOM      8  N   LIG    1        5.015   0.991  -5.608  0.00  0.00    -0.231 NA
ATOM      9  N   LIG    1        4.159   0.295  -2.317  0.00  0.00    -0.195 NA
ENDROOT
BRANCH   6  10
ATOM     10  C   LIG    1        7.011   1.662  -2.692  0.00  0.00    +0.084 C 
ATOM     11  C   LIG    1        7.258   3.169  -2.773  0.00  0.00    +0.030 C 
ATOM     12  C   LIG    1        8.315   0.915  -2.978  0.00  0.00    +0.030 C 
ENDBRANCH   6  10
BRANCH   1  13
ATOM     13  N   LIG    1        2.338  -0.665  -1.220  0.00  0.00    -0.308 N 
ATOM     14  H   LIG    1        2.778  -0.532  -0.366  0.00  0.00    +0.149 HD
BRANCH  13  15
ATOM     15  CA  LIG    1        1.014  -1.288  -1.273  0.00  0.00    +0.098 C 
BRANCH  15  17
ATOM     16  C   LIG    1        0.031   0.423   0.259  0.00  0.00    +0.006 C 
ATOM     17  C   LIG    1        0.294  -1.071   0.060  0.00  0.00    +0.021 C 
ENDBRANCH  15  17
BRANCH  15  18
ATOM     18  C   LIG    1        1.165  -2.789  -1.532  0.00  0.00    +0.178 C 
BRANCH  18  19
ATOM     19  O   LIG    1        1.827  -3.399  -0.421  0.00  0.00    -0.393 OA
ATOM     20  H   LIG    1        1.957  -4.352  -0.516  0.00  0.00    +0.209 HD
ENDBRANCH  18  19
ENDBRANCH  15  18
ENDBRANCH  13  15
ENDBRANCH   1  13
BRANCH   3  21
ATOM     21  N   LIG    1        2.236  -0.286  -5.896  0.00  0.00    -0.298 N 
ATOM     22  H   LIG    1        2.685  -0.092  -6.734  0.00  0.00    +0.154 HD
BRANCH  21  23
ATOM     23  C   LIG    1        0.924  -0.768  -5.902  0.00  0.00    +0.033 A 
ATOM     24  C   LIG    1        0.027  -0.353  -4.924  0.00  0.00    +0.023 A 
ATOM     25  C   LIG    1       -1.271  -0.827  -4.926  0.00  0.00    +0.002 A 
ATOM     26  C   LIG    1       -1.685  -1.715  -5.899  0.00  0.00    +0.010 A 
ATOM     27  C   LIG    1       -0.792  -2.136  -6.884  0.00  0.00    +0.002 A 
ATOM     28  C   LIG    1        0.514  -1.656  -6.886  0.00  0.00    +0.033 A 
BRANCH  27  29
ATOM     29  C   LIG    1       -1.235  -3.091  -7.930  0.00  0.00    +0.071 A 
ATOM     30  C   LIG    1       -2.572  -3.478  -7.990  0.00  0.00    +0.028 A 
ATOM     31  C   LIG    1       -2.971  -4.369  -8.972  0.00  0.00    +0.004 A 
ATOM     32  C   LIG    1       -2.017  -4.844  -9.862  0.00  0.00    +0.020 A 
ATOM     33  C   LIG    1       -0.708  -4.417  -9.744  0.00  0.00    +0.111 A 
ATOM     34  N   LIG    1       -0.356  -3.564  -8.803  0.00  0.00    -0.255 NA
ENDBRANCH  27  29
ENDBRANCH  21  23
ENDBRANCH   3  21
TORSDOF 9
