REMARK  Name = ZINC23360511
REMARK                            x       y       z     vdW  Elec       q    Type
REMARK                         _______ _______ _______ _____ _____    ______ ____
ROOT
ATOM      1  C   LIG    1        0.048  -3.236   1.452  0.00  0.00    +0.160 A 
ATOM      2  C   LIG    1        0.556  -3.158   2.744  0.00  0.00    +0.092 A 
ATOM      3  C   LIG    1        0.557  -4.310   3.528  0.00  0.00    +0.131 A 
ATOM      4  N   LIG    1        0.076  -5.439   3.020  0.00  0.00    -0.209 NA
ATOM      5  C   LIG    1       -0.401  -5.477   1.782  0.00  0.00    +0.199 A 
ATOM      6  N   LIG    1       -0.422  -4.396   1.009  0.00  0.00    -0.205 NA
ENDROOT
BRANCH   1  12
ATOM      7  C   LIG    1       -0.027   1.505   0.015  0.00  0.00    +0.067 C 
ATOM      8  C   LIG    1       -0.006  -0.002   0.006  0.00  0.00    +0.061 A 
ATOM      9  C   LIG    1       -0.001  -0.814  -1.134  0.00  0.00    +0.048 A 
ATOM     10  C   LIG    1        0.020  -2.104  -0.728  0.00  0.00    +0.044 A 
ATOM     11  C   LIG    1        0.031  -3.318  -1.620  0.00  0.00    +0.066 C 
ATOM     12  N   LIG    1        0.028  -2.106   0.631  0.00  0.00    -0.219 N 
ATOM     13  N   LIG    1        0.017  -0.773   1.062  0.00  0.00    -0.170 NA
ENDBRANCH   1  12
BRANCH   5  14
ATOM     14  C   LIG    1       -0.927  -6.750   1.252  0.00  0.00    +0.172 A 
ATOM     15  C   LIG    1       -0.983  -7.932   1.924  0.00  0.00    +0.053 A 
ATOM     16  C   LIG    1       -1.553  -8.871   1.044  0.00  0.00    +0.042 A 
ATOM     17  C   LIG    1       -1.816  -8.224  -0.109  0.00  0.00    +0.196 A 
ATOM     18  O   LIG    1       -1.442  -6.942   0.022  0.00  0.00    -0.460 OA
ENDBRANCH   5  14
BRANCH   3  19
ATOM     19  N   LIG    1        1.056  -4.277   4.826  0.00  0.00    -0.269 N 
ATOM     20  H   LIG    1        1.474  -3.470   5.166  0.00  0.00    +0.156 HD
ATOM     21  C   LIG    1        0.961  -5.368   5.612  0.00  0.00    +0.232 C 
ATOM     22  O   LIG    1        0.523  -6.405   5.160  0.00  0.00    -0.274 OA
BRANCH  21  23
ATOM     23  C   LIG    1        1.396  -5.299   7.053  0.00  0.00    +0.180 C 
BRANCH  23  24
ATOM     24  N   LIG    1        1.193  -6.607   7.690  0.00  0.00    -0.298 NA
ATOM     25  C   LIG    1       -0.238  -6.934   7.778  0.00  0.00    +0.066 C 
ATOM     26  C   LIG    1       -0.404  -8.326   8.390  0.00  0.00    -0.064 C 
ATOM     27  N   LIG    1        0.204  -8.348   9.727  0.00  0.00    +0.379 N 
ATOM     28  H   LIG    1       -0.243  -7.658  10.311  0.00  0.00    -0.082 HD
ATOM     29  C   LIG    1        0.029  -9.680  10.322  0.00  0.00    -0.096 C 
ATOM     30  C   LIG    1        1.637  -8.045   9.620  0.00  0.00    -0.064 C 
ATOM     31  C   LIG    1        1.820  -6.651   9.018  0.00  0.00    +0.066 C 
ENDBRANCH  23  24
ENDBRANCH  21  23
ENDBRANCH   3  19
TORSDOF 5
