REMARK  Name = ZINC29341878
REMARK                            x       y       z     vdW  Elec       q    Type
REMARK                         _______ _______ _______ _____ _____    ______ ____
ROOT
ATOM      1  N   LIG    1       -1.162  -2.084  -0.003  0.00  0.00    -0.246 N 
ATOM      2  H   LIG    1       -0.384  -2.497   0.402  0.00  0.00    +0.265 HD
ENDROOT
BRANCH   1   3
ATOM      3  C   LIG    1       -2.361  -2.797  -0.101  0.00  0.00    +0.101 A 
ATOM      4  C   LIG    1       -3.131  -2.710  -1.254  0.00  0.00    +0.042 A 
ATOM      5  C   LIG    1       -4.314  -3.416  -1.349  0.00  0.00    +0.005 A 
ATOM      6  C   LIG    1       -4.734  -4.209  -0.297  0.00  0.00    +0.020 A 
ATOM      7  C   LIG    1       -3.970  -4.299   0.853  0.00  0.00    +0.044 A 
ATOM      8 CL   LIG    1       -4.501  -5.296   2.171  0.00  0.00    -0.083 Cl
ATOM      9  C   LIG    1       -2.782  -3.599   0.951  0.00  0.00    +0.062 A 
ENDBRANCH   1   3
BRANCH   1  10
ATOM     10  C   LIG    1       -1.087  -0.795  -0.481  0.00  0.00    +0.348 C 
ATOM     11  N   LIG    1        0.058  -0.173  -0.500  0.00  0.00    -0.291 N 
ATOM     12  H   LIG    1        0.126   0.706  -0.906  0.00  0.00    +0.255 HD
ATOM     13  H   LIG    1        0.842  -0.589  -0.110  0.00  0.00    +0.255 HD
BRANCH  10  15
ATOM     14  C   LIG    1       -2.140   1.208  -1.446  0.00  0.00    +0.239 C 
ATOM     15  N   LIG    1       -2.220  -0.164  -0.937  0.00  0.00    -0.281 N 
ATOM     16  H   LIG    1       -3.073  -0.627  -0.923  0.00  0.00    +0.257 HD
ENDBRANCH  10  15
ENDBRANCH   1  10
TORSDOF 3
