REMARK  Name = ZINC35653092
REMARK                            x       y       z     vdW  Elec       q    Type
REMARK                         _______ _______ _______ _____ _____    ______ ____
ROOT
ATOM      1  C   LIG    1       -2.507  -2.860   0.012  0.00  0.00    -0.018 A 
ATOM      2  C   LIG    1       -3.728  -2.182   0.022  0.00  0.00    +0.053 A 
ATOM      3  C   LIG    1       -4.914  -2.897   0.030  0.00  0.00    +0.121 A 
ATOM      4  C   LIG    1       -4.890  -4.285   0.028  0.00  0.00    +0.094 A 
ATOM      5  C   LIG    1       -3.679  -4.962   0.018  0.00  0.00    +0.163 A 
ATOM      6  C   LIG    1       -2.488  -4.256   0.004  0.00  0.00    +0.056 A 
ENDROOT
BRANCH   1   8
ATOM      7  C   LIG    1       -1.262  -0.760   0.011  0.00  0.00    +0.008 C 
ATOM      8  C   LIG    1       -1.242  -2.103   0.003  0.00  0.00    +0.009 C 
BRANCH   7  14
ATOM      9  C   LIG    1       -0.017   1.394   0.010  0.00  0.00    +0.011 A 
ATOM     10  C   LIG    1        1.168   2.096   0.002  0.00  0.00    +0.046 A 
ATOM     11  C   LIG    1        2.380   1.419  -0.013  0.00  0.00    +0.117 A 
ATOM     12  C   LIG    1        2.404   0.030  -0.021  0.00  0.00    +0.046 A 
ATOM     13  C   LIG    1        1.224  -0.682  -0.014  0.00  0.00    +0.011 A 
ATOM     14  C   LIG    1        0.002  -0.004   0.002  0.00  0.00    -0.025 A 
BRANCH  11  15
ATOM     15  O   LIG    1        3.546   2.116  -0.020  0.00  0.00    -0.507 OA
ATOM     16  H   LIG    1        3.892   2.313   0.861  0.00  0.00    +0.292 HD
ENDBRANCH  11  15
ENDBRANCH   7  14
ENDBRANCH   1   8
BRANCH   3  17
ATOM     17  O   LIG    1       -6.103  -2.239   0.040  0.00  0.00    -0.507 OA
ATOM     18  H   LIG    1       -6.454  -2.047  -0.841  0.00  0.00    +0.292 HD
ENDBRANCH   3  17
BRANCH   5  19
ATOM     19  O   LIG    1       -3.662  -6.321   0.017  0.00  0.00    -0.325 OA
BRANCH  19  20
ATOM     20  S   LIG    1       -3.665  -6.939  -1.373  0.00  0.00    +0.251 S 
ATOM     21  O   LIG    1       -4.664  -6.224  -2.152  0.00  0.00    -0.108 OA
ATOM     22  O   LIG    1       -4.006  -8.344  -1.211  0.00  0.00    -0.108 OA
BRANCH  20  23
ATOM     23  O   LIG    1       -2.326  -6.765  -1.916  0.00  0.00    -0.222 OA
ATOM     24  H   LIG    1       -1.690  -7.255  -1.372  0.00  0.00    +0.248 HD
ENDBRANCH  20  23
ENDBRANCH  19  20
ENDBRANCH   5  19
TORSDOF 7
