REMARK  Name = ZINC00003741
REMARK                            x       y       z     vdW  Elec       q    Type
REMARK                         _______ _______ _______ _____ _____    ______ ____
ROOT
ATOM      1  N   LIG    1       -1.717  -1.032  -1.368  0.00  0.00    -0.322 N 
ATOM      2  C   LIG    1       -2.534  -0.208  -2.125  0.00  0.00    +0.106 A 
ATOM      3  C   LIG    1       -2.694  -0.773  -3.317  0.00  0.00    +0.102 A 
ATOM      4  N   LIG    1       -1.979  -1.961  -3.325  0.00  0.00    -0.340 N 
ATOM      5  H   LIG    1       -1.915  -2.583  -4.066  0.00  0.00    +0.167 HD
ATOM      6  C   LIG    1       -1.384  -2.098  -2.123  0.00  0.00    +0.158 A 
ATOM      7  S   LIG    1       -0.383  -3.399  -1.640  0.00  0.00    -0.013 S 
ENDROOT
BRANCH   1   8
ATOM      8  C   LIG    1       -1.286  -0.786   0.011  0.00  0.00    +0.159 C 
BRANCH   8  13
ATOM      9  C   LIG    1       -0.017   1.378   0.010  0.00  0.00    +0.013 A 
ATOM     10  C   LIG    1        1.160   2.051   0.002  0.00  0.00    +0.045 A 
ATOM     11  S   LIG    1        2.348   0.719  -0.017  0.00  0.00    -0.105 S 
ATOM     12  C   LIG    1        1.196  -0.645  -0.013  0.00  0.00    +0.050 A 
ATOM     13  C   LIG    1        0.002  -0.004   0.002  0.00  0.00    -0.021 A 
ENDBRANCH   8  13
ENDBRANCH   1   8
TORSDOF 2
