REMARK  Name = ZINC13780544
REMARK                            x       y       z     vdW  Elec       q    Type
REMARK                         _______ _______ _______ _____ _____    ______ ____
ROOT
ATOM      1  N   LIG    1        2.740   1.705   0.745  0.00  0.00    -0.299 N 
ATOM      2  H   LIG    1        2.563   1.550   1.687  0.00  0.00    +0.150 HD
ATOM      3  C   LIG    1        4.001   1.638   0.276  0.00  0.00    +0.261 C 
ATOM      4  O   LIG    1        4.223   1.833  -0.904  0.00  0.00    -0.269 OA
ENDROOT
BRANCH   3   5
ATOM      5  C   LIG    1        5.111   1.330   1.191  0.00  0.00    +0.103 A 
ATOM      6  C   LIG    1        6.420   1.235   0.839  0.00  0.00    +0.040 A 
ATOM      7  C   LIG    1        7.159   0.926   2.006  0.00  0.00    +0.000 A 
ATOM      8  C   LIG    1        8.521   0.713   2.253  0.00  0.00    +0.010 A 
ATOM      9  C   LIG    1        8.945   0.424   3.518  0.00  0.00    +0.001 A 
ATOM     10  C   LIG    1        8.036   0.339   4.566  0.00  0.00    +0.002 A 
ATOM     11  C   LIG    1        6.692   0.545   4.348  0.00  0.00    +0.026 A 
ATOM     12  C   LIG    1        6.236   0.841   3.066  0.00  0.00    +0.047 A 
ATOM     13  N   LIG    1        4.989   1.096   2.547  0.00  0.00    -0.351 N 
ATOM     14  H   LIG    1        4.160   1.108   3.050  0.00  0.00    +0.166 HD
ENDBRANCH   3   5
BRANCH   1  15
ATOM     15  C   LIG    1        1.635   2.012  -0.166  0.00  0.00    +0.164 C 
BRANCH  15  18
ATOM     16  C   LIG    1        0.740   5.472  -1.532  0.00  0.00    +0.131 C 
ATOM     17  N   LIG    1        0.775   4.023  -1.321  0.00  0.00    -0.306 N 
ATOM     18  C   LIG    1        1.505   3.506  -0.313  0.00  0.00    +0.236 C 
ATOM     19  O   LIG    1        2.058   4.243   0.475  0.00  0.00    -0.274 OA
ATOM     20  C   LIG    1        0.016   3.135  -2.206  0.00  0.00    +0.131 C 
ENDBRANCH  15  18
BRANCH  15  21
ATOM     21  C   LIG    1        0.333   1.440   0.400  0.00  0.00    +0.067 C 
BRANCH  21  22
ATOM     22  C   LIG    1        0.405  -0.065   0.404  0.00  0.00    -0.045 A 
ATOM     23  C   LIG    1       -0.035  -0.781  -0.693  0.00  0.00    +0.004 A 
ATOM     24  C   LIG    1        0.036  -2.162  -0.691  0.00  0.00    +0.000 A 
ATOM     25  C   LIG    1        0.537  -2.826   0.413  0.00  0.00    +0.000 A 
ATOM     26  C   LIG    1        0.972  -2.110   1.512  0.00  0.00    +0.000 A 
ATOM     27  C   LIG    1        0.906  -0.730   1.508  0.00  0.00    +0.004 A 
ENDBRANCH  21  22
ENDBRANCH  15  21
ENDBRANCH   1  15
TORSDOF 5
