REMARK  Name = ZINC23304563
REMARK                            x       y       z     vdW  Elec       q    Type
REMARK                         _______ _______ _______ _____ _____    ______ ____
ROOT
ATOM      1  C   LIG    1       -4.165   4.904   8.617  0.00  0.00    +0.066 C 
ATOM      2  C   LIG    1       -3.061   4.834   7.593  0.00  0.00    +0.056 A 
ATOM      3  C   LIG    1       -2.064   5.790   7.569  0.00  0.00    +0.076 A 
ATOM      4  C   LIG    1       -1.044   5.692   6.594  0.00  0.00    +0.128 A 
ATOM      5  N   LIG    1       -1.055   4.707   5.731  0.00  0.00    -0.235 NA
ATOM      6  C   LIG    1       -2.019   3.779   5.750  0.00  0.00    +0.163 A 
ATOM      7  C   LIG    1       -2.255   2.651   4.957  0.00  0.00    +0.046 A 
ATOM      8  C   LIG    1       -3.424   2.045   5.433  0.00  0.00    +0.145 A 
ATOM      9  N   LIG    1       -3.876   2.738   6.449  0.00  0.00    -0.173 NA
ATOM     10  N   LIG    1       -3.030   3.829   6.676  0.00  0.00    -0.218 N 
ENDROOT
BRANCH   7  11
ATOM     11  C   LIG    1       -1.425   2.187   3.821  0.00  0.00    -0.013 A 
ATOM     12  C   LIG    1       -1.009   0.857   3.754  0.00  0.00    +0.009 A 
ATOM     13  C   LIG    1       -0.237   0.431   2.693  0.00  0.00    +0.004 A 
ATOM     14  C   LIG    1        0.125   1.319   1.696  0.00  0.00    -0.045 A 
ATOM     15  C   LIG    1       -0.280   2.640   1.760  0.00  0.00    +0.004 A 
ATOM     16  C   LIG    1       -1.057   3.078   2.813  0.00  0.00    +0.009 A 
BRANCH  14  17
ATOM     17  C   LIG    1        0.968   0.847   0.540  0.00  0.00    +0.013 C 
ATOM     18  C   LIG    1        0.204   1.059  -0.768  0.00  0.00    +0.012 C 
ATOM     19  C   LIG    1        2.274   1.643   0.503  0.00  0.00    +0.012 C 
ENDBRANCH  14  17
ENDBRANCH   7  11
BRANCH   3  20
ATOM     20  C   LIG    1       -2.063   6.896   8.547  0.00  0.00    +0.248 C 
ATOM     21  N   LIG    1       -1.023   7.751   8.596  0.00  0.00    -0.306 N 
ATOM     22  H   LIG    1       -0.174   7.625   7.907  0.00  0.00    +0.149 HD
ATOM     23  O   LIG    1       -3.002   7.036   9.307  0.00  0.00    -0.270 OA
BRANCH  21  24
ATOM     24  C   LIG    1       -1.022   8.850   9.565  0.00  0.00    +0.096 C 
ATOM     25  C   LIG    1       -1.785  10.042   8.986  0.00  0.00    +0.030 C 
BRANCH  24  26
ATOM     26  C   LIG    1        0.420   9.264   9.865  0.00  0.00    +0.181 C 
BRANCH  26  27
ATOM     27  O   LIG    1        1.016   9.803   8.684  0.00  0.00    -0.381 OA
ATOM     28  C   LIG    1        2.371  10.223   8.856  0.00  0.00    +0.194 C 
ENDBRANCH  26  27
ENDBRANCH  24  26
ENDBRANCH  21  24
ENDBRANCH   3  20
TORSDOF 6
