REMARK  Name = ZINC26150359
REMARK                            x       y       z     vdW  Elec       q    Type
REMARK                         _______ _______ _______ _____ _____    ______ ____
ROOT
ATOM      1  C   LIG    1        4.174   0.620   1.404  0.00  0.00    +0.163 C 
ENDROOT
BRANCH   1   4
ATOM      2  C   LIG    1        3.662  -2.999   2.543  0.00  0.00    +0.109 C 
ATOM      3  C   LIG    1        4.108  -1.790   1.762  0.00  0.00    +0.211 C 
ATOM      4  N   LIG    1        3.741  -0.556   2.163  0.00  0.00    -0.304 N 
ATOM      5  H   LIG    1        3.117  -0.432   3.060  0.00  0.00    +0.149 HD
ATOM      6  O   LIG    1        4.796  -1.926   0.773  0.00  0.00    -0.276 OA
ENDBRANCH   1   4
BRANCH   1   7
ATOM      7  C   LIG    1        5.680   0.677   1.381  0.00  0.00    +0.236 C 
ATOM      8  N   LIG    1        6.306   1.839   1.109  0.00  0.00    -0.299 N 
ATOM      9  C   LIG    1        5.523   3.046   0.835  0.00  0.00    +0.132 C 
ATOM     10  O   LIG    1        6.328  -0.323   1.609  0.00  0.00    -0.274 OA
BRANCH   8  11
ATOM     11  C   LIG    1        7.770   1.894   1.087  0.00  0.00    +0.142 C 
BRANCH  11  12
ATOM     12  C   LIG    1        8.263   1.593  -0.304  0.00  0.00    -0.030 A 
ATOM     13  C   LIG    1        8.543   0.290  -0.672  0.00  0.00    +0.005 A 
ATOM     14  C   LIG    1        8.991   0.014  -1.950  0.00  0.00    +0.000 A 
ATOM     15  C   LIG    1        9.169   1.041  -2.857  0.00  0.00    +0.000 A 
ATOM     16  C   LIG    1        8.895   2.345  -2.488  0.00  0.00    +0.000 A 
ATOM     17  C   LIG    1        8.442   2.621  -1.212  0.00  0.00    +0.005 A 
ENDBRANCH  11  12
ENDBRANCH   8  11
ENDBRANCH   1   7
BRANCH   1  18
ATOM     18  C   LIG    1        3.646   0.524  -0.029  0.00  0.00    +0.069 C 
BRANCH  18  19
ATOM     19  C   LIG    1        2.140   0.591  -0.015  0.00  0.00    -0.020 A 
ATOM     20  C   LIG    1        1.295  -0.452  -0.013  0.00  0.00    +0.087 A 
ATOM     21  N   LIG    1        0.002  -0.004   0.002  0.00  0.00    -0.360 N 
ATOM     22  C   LIG    1       -0.017   1.373   0.010  0.00  0.00    +0.047 A 
ATOM     23  C   LIG    1       -1.038   2.317   0.029  0.00  0.00    +0.026 A 
ATOM     24  C   LIG    1       -0.729   3.659   0.029  0.00  0.00    +0.002 A 
ATOM     25  C   LIG    1        0.593   4.082   0.019  0.00  0.00    +0.001 A 
ATOM     26  C   LIG    1        1.612   3.171   0.004  0.00  0.00    +0.010 A 
ATOM     27  H   LIG    1       -0.829  -0.724   0.006  0.00  0.00    +0.165 HD
ATOM     28  C   LIG    1        1.322   1.806  -0.001  0.00  0.00    +0.003 A 
ENDBRANCH  18  19
ENDBRANCH   1  18
TORSDOF 6
