REMARK  Name = ZINC14976393
REMARK                            x       y       z     vdW  Elec       q    Type
REMARK                         _______ _______ _______ _____ _____    ______ ____
ROOT
ATOM      1  C   LIG    1       -1.191   2.175  -0.218  0.00  0.00    -0.003 A 
ATOM      2  C   LIG    1       -1.115   3.559  -0.331  0.00  0.00    +0.029 A 
ATOM      3  C   LIG    1        0.126   4.172  -0.432  0.00  0.00    +0.112 A 
ATOM      4  N   LIG    1        1.243   3.482  -0.419  0.00  0.00    -0.255 NA
ATOM      5  C   LIG    1        1.247   2.149  -0.308  0.00  0.00    +0.075 A 
ATOM      6  C   LIG    1        2.454   1.430  -0.298  0.00  0.00    +0.074 A 
ATOM      7  C   LIG    1        2.427   0.059  -0.183  0.00  0.00    +0.123 A 
ATOM      8  C   LIG    1        1.213  -0.626  -0.078  0.00  0.00    +0.046 A 
ATOM      9  C   LIG    1        0.030   0.048  -0.085  0.00  0.00    +0.014 A 
ATOM     10  C   LIG    1        0.024   1.444  -0.201  0.00  0.00    +0.008 A 
ENDROOT
BRANCH   1  12
ATOM     11  C   LIG    1       -3.224   1.173   1.116  0.00  0.00    +0.119 A 
ATOM     12  C   LIG    1       -2.497   1.488  -0.114  0.00  0.00    +0.033 A 
ATOM     13  C   LIG    1       -3.258   1.017  -1.149  0.00  0.00    +0.048 A 
ATOM     14  N   LIG    1       -4.367   0.456  -0.638  0.00  0.00    -0.267 N 
ATOM     15  C   LIG    1       -5.227  -0.078  -1.709  0.00  0.00    +0.144 C 
ATOM     16  C   LIG    1       -4.739   0.597  -3.008  0.00  0.00    +0.029 C 
ATOM     17  C   LIG    1       -3.269   0.919  -2.661  0.00  0.00    +0.057 C 
ATOM     18  N   LIG    1       -4.333   0.567   0.763  0.00  0.00    -0.169 NA
BRANCH  11  23
ATOM     19  C   LIG    1       -3.324   1.907   4.795  0.00  0.00    +0.004 A 
ATOM     20  C   LIG    1       -1.964   2.055   5.031  0.00  0.00    +0.020 A 
ATOM     21  C   LIG    1       -1.074   1.910   3.983  0.00  0.00    +0.111 A 
ATOM     22  N   LIG    1       -1.500   1.629   2.768  0.00  0.00    -0.253 NA
ATOM     23  C   LIG    1       -2.791   1.484   2.499  0.00  0.00    +0.091 A 
ATOM     24  C   LIG    1       -3.744   1.617   3.509  0.00  0.00    +0.030 A 
ENDBRANCH  11  23
ENDBRANCH   1  12
BRANCH   7  25
ATOM     25  O   LIG    1        3.593  -0.637  -0.173  0.00  0.00    -0.491 OA
BRANCH  25  26
ATOM     26  C   LIG    1        3.501  -2.058  -0.052  0.00  0.00    +0.244 C 
BRANCH  26  27
ATOM     27  C   LIG    1        4.905  -2.663  -0.059  0.00  0.00    +0.125 C 
BRANCH  27  28
ATOM     28  N   LIG    1        5.636  -2.219   1.136  0.00  0.00    -0.295 NA
ATOM     29  C   LIG    1        7.086  -2.380   0.957  0.00  0.00    +0.112 C 
ATOM     30  C   LIG    1        7.810  -1.851   2.199  0.00  0.00    +0.175 C 
ATOM     31  O   LIG    1        7.327  -2.541   3.355  0.00  0.00    -0.377 OA
ATOM     32  C   LIG    1        5.919  -2.406   3.560  0.00  0.00    +0.175 C 
ATOM     33  C   LIG    1        5.176  -2.940   2.332  0.00  0.00    +0.112 C 
ENDBRANCH  27  28
ENDBRANCH  26  27
ENDBRANCH  25  26
ENDBRANCH   7  25
TORSDOF 6
