REMARK  Name = ZINC36270657
REMARK                            x       y       z     vdW  Elec       q    Type
REMARK                         _______ _______ _______ _____ _____    ______ ____
ROOT
ATOM      1  C   LIG    1       -1.756  -2.093  -0.015  0.00  0.00    +0.049 C 
ATOM      2  C   LIG    1       -3.154  -2.473  -0.530  0.00  0.00    -0.058 C 
ATOM      3  C   LIG    1       -4.187  -2.005   0.521  0.00  0.00    -0.016 C 
ATOM      4  C   LIG    1       -4.319  -3.190   1.500  0.00  0.00    -0.017 C 
ATOM      5  C   LIG    1       -3.354  -4.266   0.952  0.00  0.00    -0.068 C 
ATOM      6  C   LIG    1       -1.974  -4.027   1.586  0.00  0.00    -0.007 C 
ATOM      7  N   LIG    1       -3.242  -3.957  -0.514  0.00  0.00    +0.382 N 
ATOM      8  H   LIG    1       -2.410  -4.367  -0.912  0.00  0.00    -0.081 HD
ATOM      9  C   LIG    1       -4.440  -4.412  -1.231  0.00  0.00    -0.095 C 
ATOM     10  C   LIG    1       -1.622  -2.544   1.442  0.00  0.00    +0.026 C 
ENDROOT
BRANCH  10  11
ATOM     11  C   LIG    1       -2.572  -1.751   2.302  0.00  0.00    -0.044 A 
ATOM     12  C   LIG    1       -3.100  -2.314   3.449  0.00  0.00    +0.004 A 
ATOM     13  C   LIG    1       -3.971  -1.586   4.237  0.00  0.00    +0.003 A 
ATOM     14  C   LIG    1       -4.315  -0.296   3.879  0.00  0.00    -0.050 A 
ATOM     15  C   LIG    1       -5.266   0.496   4.738  0.00  0.00    +0.044 C 
ATOM     16  C   LIG    1       -3.787   0.266   2.732  0.00  0.00    +0.003 A 
ATOM     17  C   LIG    1       -2.912  -0.460   1.946  0.00  0.00    +0.004 A 
ENDBRANCH  10  11
BRANCH   1  18
ATOM     18  C   LIG    1       -1.575  -0.600  -0.100  0.00  0.00    +0.135 C 
ATOM     19  O   LIG    1       -2.354   0.068  -0.738  0.00  0.00    -0.297 OA
BRANCH  18  21
ATOM     20  C   LIG    1       -0.470   1.571   0.366  0.00  0.00    +0.012 C 
ATOM     21  C   LIG    1       -0.423   0.061   0.612  0.00  0.00    +0.071 C 
ENDBRANCH  18  21
ENDBRANCH   1  18
TORSDOF 3
