REMARK  Name = ZINC27519870
REMARK                            x       y       z     vdW  Elec       q    Type
REMARK                         _______ _______ _______ _____ _____    ______ ____
ROOT
ATOM      1  C   LIG    1       -0.153  -2.184  -5.964  0.00  0.00    +0.079 C 
ATOM      2  C   LIG    1       -0.747  -0.981  -5.538  0.00  0.00    +0.027 C 
ATOM      3  C   LIG    1       -0.735  -0.603  -4.183  0.00  0.00    +0.008 C 
ATOM      4  C   LIG    1       -1.317   0.564  -3.803  0.00  0.00    +0.023 C 
ATOM      5  C   LIG    1       -1.935   1.408  -4.733  0.00  0.00    +0.074 C 
ATOM      6  C   LIG    1       -1.978   1.091  -6.072  0.00  0.00    +0.041 C 
ATOM      7  C   LIG    1       -1.390  -0.107  -6.520  0.00  0.00    +0.060 C 
ATOM      8  N   LIG    1       -1.418  -0.436  -7.811  0.00  0.00    -0.310 NA
ATOM      9  H   LIG    1       -1.850   0.160  -8.442  0.00  0.00    +0.122 HD
ATOM     10  C   LIG    1       -0.868  -1.565  -8.258  0.00  0.00    +0.060 C 
ATOM     11  C   LIG    1       -0.909  -1.893  -9.626  0.00  0.00    +0.041 C 
ATOM     12  C   LIG    1       -0.320  -3.057 -10.063  0.00  0.00    +0.074 C 
ATOM     13  C   LIG    1        0.309  -3.935  -9.173  0.00  0.00    +0.023 C 
ATOM     14  C   LIG    1        0.373  -3.668  -7.843  0.00  0.00    +0.008 C 
ATOM     15  C   LIG    1       -0.202  -2.489  -7.338  0.00  0.00    +0.027 C 
ENDROOT
BRANCH   5  16
ATOM     16  N   LIG    1       -2.520   2.597  -4.293  0.00  0.00    -0.312 N 
ATOM     17  H   LIG    1       -2.933   2.639  -3.417  0.00  0.00    +0.149 HD
ATOM     18  C   LIG    1       -2.512   3.686  -5.087  0.00  0.00    +0.211 C 
ATOM     19  O   LIG    1       -2.070   3.611  -6.215  0.00  0.00    -0.276 OA
BRANCH  18  20
ATOM     20  C   LIG    1       -3.051   4.997  -4.574  0.00  0.00    +0.077 C 
BRANCH  20  21
ATOM     21  C   LIG    1       -2.925   6.062  -5.665  0.00  0.00    -0.070 C 
BRANCH  21  22
ATOM     22  N   LIG    1       -3.450   7.339  -5.165  0.00  0.00    +0.380 N 
ATOM     23  H   LIG    1       -4.385   7.215  -4.808  0.00  0.00    -0.082 HD
ATOM     24  C   LIG    1       -2.562   7.878  -4.104  0.00  0.00    -0.079 C 
ATOM     25  C   LIG    1       -2.895   9.391  -4.097  0.00  0.00    -0.020 C 
ATOM     26  C   LIG    1       -3.111   9.705  -5.595  0.00  0.00    -0.020 C 
ATOM     27  C   LIG    1       -3.447   8.350  -6.245  0.00  0.00    -0.079 C 
ENDBRANCH  21  22
ENDBRANCH  20  21
ENDBRANCH  18  20
ENDBRANCH   5  16
BRANCH  12  28
ATOM     28  N   LIG    1       -0.359  -3.374 -11.423  0.00  0.00    -0.312 N 
ATOM     29  H   LIG    1       -0.512  -4.290 -11.703  0.00  0.00    +0.149 HD
ATOM     30  C   LIG    1       -0.183  -2.407 -12.345  0.00  0.00    +0.211 C 
ATOM     31  O   LIG    1        0.095  -1.279 -11.997  0.00  0.00    -0.276 OA
BRANCH  30  32
ATOM     32  C   LIG    1       -0.333  -2.728 -13.810  0.00  0.00    +0.077 C 
BRANCH  32  33
ATOM     33  C   LIG    1       -0.084  -1.464 -14.637  0.00  0.00    -0.070 C 
BRANCH  33  34
ATOM     34  N   LIG    1       -0.229  -1.777 -16.065  0.00  0.00    +0.380 N 
ATOM     35  H   LIG    1        0.357  -2.561 -16.311  0.00  0.00    -0.082 HD
ATOM     36  C   LIG    1       -1.649  -2.078 -16.381  0.00  0.00    -0.079 C 
ATOM     37  C   LIG    1       -1.734  -1.823 -17.907  0.00  0.00    -0.020 C 
ATOM     38  C   LIG    1       -0.814  -0.597 -18.105  0.00  0.00    -0.020 C 
ATOM     39  C   LIG    1        0.125  -0.598 -16.884  0.00  0.00    -0.079 C 
ENDBRANCH  33  34
ENDBRANCH  32  33
ENDBRANCH  30  32
ENDBRANCH  12  28
BRANCH   1  40
ATOM     40  N   LIG    1        0.462  -3.032  -5.067  0.00  0.00    -0.340 N 
ATOM     41  H   LIG    1        1.414  -2.953  -4.899  0.00  0.00    +0.146 HD
BRANCH  40  45
ATOM     42  C   LIG    1       -1.772  -5.935  -3.077  0.00  0.00    +0.029 A 
ATOM     43  C   LIG    1       -0.449  -5.712  -2.720  0.00  0.00    +0.025 A 
ATOM     44  C   LIG    1        0.291  -4.751  -3.379  0.00  0.00    +0.025 A 
ATOM     45  C   LIG    1       -0.288  -4.007  -4.400  0.00  0.00    +0.027 A 
ATOM     46  C   LIG    1       -1.611  -4.231  -4.757  0.00  0.00    +0.025 A 
ATOM     47  C   LIG    1       -2.350  -5.196  -4.101  0.00  0.00    +0.025 A 
BRANCH  42  49
ATOM     48  C   LIG    1       -3.916  -7.149  -2.790  0.00  0.00    +0.129 C 
ATOM     49  N   LIG    1       -2.522  -6.910  -2.409  0.00  0.00    -0.336 N 
ATOM     50  C   LIG    1       -1.913  -7.690  -1.330  0.00  0.00    +0.129 C 
ENDBRANCH  42  49
ENDBRANCH  40  45
ENDBRANCH   1  40
TORSDOF 11
