REMARK  Name = ZINC13761819
REMARK                            x       y       z     vdW  Elec       q    Type
REMARK                         _______ _______ _______ _____ _____    ______ ____
ROOT
ATOM      1  C   LIG    1       -1.267  -0.759   0.000  0.00  0.00    +0.075 A 
ATOM      2  C   LIG    1       -2.538  -0.226   0.013  0.00  0.00    +0.062 A 
ATOM      3  C   LIG    1       -3.443  -1.287   0.031  0.00  0.00    +0.166 A 
ATOM      4  N   LIG    1       -2.772  -2.412   0.029  0.00  0.00    -0.162 NA
ATOM      5  N   LIG    1       -1.403  -2.120   0.004  0.00  0.00    -0.232 N 
ENDROOT
BRANCH   1  11
ATOM      6  C   LIG    1        1.153  -0.587  -0.557  0.00  0.00    +0.011 A 
ATOM      7  C   LIG    1        2.327   0.111  -0.576  0.00  0.00    +0.015 A 
ATOM      8  C   LIG    1        2.377   1.410  -0.059  0.00  0.00    +0.059 A 
ATOM      9  C   LIG    1        1.224   1.993   0.478  0.00  0.00    +0.015 A 
ATOM     10  C   LIG    1        0.051   1.294   0.497  0.00  0.00    +0.011 A 
ATOM     11  C   LIG    1        0.002  -0.004  -0.020  0.00  0.00    +0.001 A 
BRANCH   8  12
ATOM     12  C   LIG    1        3.643   2.163  -0.079  0.00  0.00    +0.337 C 
ATOM     13  O   LIG    1        4.651   1.653  -0.548  0.00  0.00    -0.245 OA
BRANCH  12  14
ATOM     14  O   LIG    1        3.686   3.299   0.374  0.00  0.00    -0.477 OA
ATOM     15  H   LIG    1        2.913   3.689   0.734  0.00  0.00    +0.295 HD
ENDBRANCH  12  14
ENDBRANCH   8  12
ENDBRANCH   1  11
BRANCH   5  16
ATOM     16  C   LIG    1       -0.359  -3.054  -0.011  0.00  0.00    +0.066 A 
ATOM     17  C   LIG    1        0.732  -2.892   0.833  0.00  0.00    +0.030 A 
ATOM     18  C   LIG    1        1.759  -3.815   0.816  0.00  0.00    +0.030 A 
ATOM     19  C   LIG    1        1.702  -4.899  -0.041  0.00  0.00    +0.105 A 
ATOM     20  C   LIG    1        0.617  -5.063  -0.883  0.00  0.00    +0.030 A 
ATOM     21  C   LIG    1       -0.416  -4.146  -0.867  0.00  0.00    +0.030 A 
BRANCH  19  22
ATOM     22  S   LIG    1        3.015  -6.074  -0.061  0.00  0.00    +0.056 S 
ATOM     23  O   LIG    1        4.168  -5.403   0.428  0.00  0.00    -0.153 OA
ATOM     24  O   LIG    1        2.981  -6.699  -1.336  0.00  0.00    -0.153 OA
BRANCH  22  25
ATOM     25  N   LIG    1        2.642  -7.244   1.050  0.00  0.00    -0.204 NA
ATOM     26  H   LIG    1        2.114  -7.020   1.832  0.00  0.00    +0.144 HD
ATOM     27  H   LIG    1        2.950  -8.154   0.918  0.00  0.00    +0.144 HD
ENDBRANCH  22  25
ENDBRANCH  19  22
ENDBRANCH   5  16
BRANCH   3  28
ATOM     28  C   LIG    1       -4.944  -1.159   0.049  0.00  0.00    +0.436 C 
ATOM     29  F   LIG    1       -5.304   0.022   0.706  0.00  0.00    -0.164 F 
ATOM     30  F   LIG    1       -5.497  -2.254   0.722  0.00  0.00    -0.164 F 
ATOM     31  F   LIG    1       -5.426  -1.128  -1.264  0.00  0.00    -0.164 F 
ENDBRANCH   3  28
TORSDOF 7
