REMARK  Name = ZINC18115268
REMARK                            x       y       z     vdW  Elec       q    Type
REMARK                         _______ _______ _______ _____ _____    ______ ____
ROOT
ATOM      1  C   LIG    1        1.456   0.284  -4.892  0.00  0.00    +0.110 C 
ENDROOT
BRANCH   1   2
ATOM      2  S   LIG    1        1.598  -0.247  -3.163  0.00  0.00    -0.151 S 
BRANCH   2   3
ATOM      3  C   LIG    1       -0.107  -0.636  -2.682  0.00  0.00    +0.124 C 
BRANCH   3   6
ATOM      4  C   LIG    1       -0.466   1.187  -0.162  0.00  0.00    +0.065 C 
ATOM      5  C   LIG    1       -0.285  -0.310  -0.166  0.00  0.00    +0.034 A 
ATOM      6  C   LIG    1       -0.131  -1.097  -1.247  0.00  0.00    +0.046 A 
ATOM      7  N   LIG    1       -0.001  -2.363  -0.823  0.00  0.00    -0.349 N 
ATOM      8  H   LIG    1        0.123  -3.137  -1.395  0.00  0.00    +0.166 HD
ATOM      9  C   LIG    1       -0.070  -2.390   0.479  0.00  0.00    +0.171 A 
ATOM     10  N   LIG    1       -0.241  -1.129   0.930  0.00  0.00    -0.350 N 
ATOM     11  H   LIG    1       -0.321  -0.854   1.857  0.00  0.00    +0.166 HD
ENDBRANCH   3   6
ENDBRANCH   2   3
ENDBRANCH   1   2
BRANCH   1  12
ATOM     12  C   LIG    1        2.841   0.647  -5.430  0.00  0.00    +0.254 C 
BRANCH  12  13
ATOM     13  N   LIG    1        2.726   1.076  -6.826  0.00  0.00    -0.112 NA
ATOM     14  C   LIG    1        3.046   2.293  -7.162  0.00  0.00    +0.395 C 
BRANCH  14  15
ATOM     15  N   LIG    1        2.824   2.733  -8.445  0.00  0.00    -0.278 N 
ATOM     16  H   LIG    1        2.430   2.136  -9.101  0.00  0.00    +0.258 HD
ATOM     17  C   LIG    1        3.184   4.102  -8.823  0.00  0.00    +0.239 C 
ENDBRANCH  14  15
BRANCH  14  18
ATOM     18  N   LIG    1        3.608   3.141  -6.230  0.00  0.00    -0.178 N 
ATOM     19  H   LIG    1        3.843   2.807  -5.350  0.00  0.00    +0.278 HD
BRANCH  18  20
ATOM     20  C   LIG    1        3.830   4.440  -6.543  0.00  0.00    +0.255 C 
ATOM     21  N   LIG    1        4.017   5.529  -6.805  0.00  0.00    -0.154 NA
ENDBRANCH  18  20
ENDBRANCH  14  18
ENDBRANCH  12  13
ENDBRANCH   1  12
TORSDOF 8
