REMARK  Name = ZINC40379917
REMARK                            x       y       z     vdW  Elec       q    Type
REMARK                         _______ _______ _______ _____ _____    ______ ____
ROOT
ATOM      1  C   LIG    1        0.640  -0.619   1.035  0.00  0.00    +0.147 C 
ATOM      2  C   LIG    1        1.191   0.135   2.032  0.00  0.00    +0.042 C 
ATOM      3  C   LIG    1        1.833  -0.497   3.104  0.00  0.00    +0.040 C 
ATOM      4  C   LIG    1        1.908  -1.911   3.148  0.00  0.00    +0.065 C 
ATOM      5  N   LIG    1        2.529  -2.493   4.187  0.00  0.00    -0.286 NA
ATOM      6  H   LIG    1        2.588  -3.460   4.232  0.00  0.00    +0.125 HD
ATOM      7  C   LIG    1        3.058  -1.758   5.146  0.00  0.00    +0.198 C 
ATOM      8  N   LIG    1        3.010  -0.429   5.143  0.00  0.00    -0.273 NA
ATOM      9  H   LIG    1        3.977  -0.105   5.170  0.00  0.00    +0.126 HD
ATOM     10  C   LIG    1        1.336  -2.663   2.116  0.00  0.00    +0.053 C 
ATOM     11  C   LIG    1        2.420   0.239   4.162  0.00  0.00    +0.129 C 
ATOM     12  C   LIG    1        0.705  -2.018   1.075  0.00  0.00    +0.148 C 
ENDROOT
BRANCH   7  13
ATOM     13  N   LIG    1        3.689  -2.396   6.199  0.00  0.00    -0.275 NA
ATOM     14  C   LIG    1        3.665  -3.861   6.309  0.00  0.00    +0.085 C 
ATOM     15  C   LIG    1        3.139  -4.242   7.697  0.00  0.00    +0.000 C 
ATOM     16  C   LIG    1        3.983  -3.545   8.767  0.00  0.00    -0.066 C 
ATOM     17  C   LIG    1        3.863  -2.028   8.605  0.00  0.00    +0.000 C 
ATOM     18  C   LIG    1        4.402  -1.622   7.224  0.00  0.00    +0.085 C 
BRANCH  16  19
ATOM     19  N   LIG    1        3.503  -3.934  10.099  0.00  0.00    +0.382 N 
ATOM     20  H   LIG    1        2.536  -3.663  10.200  0.00  0.00    -0.081 HD
ATOM     21  C   LIG    1        4.307  -3.259  11.124  0.00  0.00    -0.078 C 
ATOM     22  C   LIG    1        3.759  -3.597  12.513  0.00  0.00    -0.019 C 
ATOM     23  C   LIG    1        3.826  -5.112  12.726  0.00  0.00    -0.004 C 
ATOM     24  C   LIG    1        3.046  -5.810  11.609  0.00  0.00    -0.019 C 
ATOM     25  C   LIG    1        3.619  -5.389  10.254  0.00  0.00    -0.078 C 
ENDBRANCH  16  19
ENDBRANCH   7  13
BRANCH   1  27
ATOM     26  C   LIG    1       -0.018   1.425   0.010  0.00  0.00    +0.194 C 
ATOM     27  O   LIG    1        0.015  -0.004  -0.006  0.00  0.00    -0.377 OA
ENDBRANCH   1  27
BRANCH  11  28
ATOM     28  N   LIG    1        2.378   1.618   4.171  0.00  0.00    -0.298 NA
ATOM     29  H   LIG    1        1.944   2.095   3.447  0.00  0.00    +0.124 HD
BRANCH  28  30
ATOM     30  C   LIG    1        2.991   2.362   5.275  0.00  0.00    +0.055 C 
ATOM     31  C   LIG    1        2.005   2.400   6.460  0.00  0.00    +0.019 C 
ATOM     32  C   LIG    1        2.779   2.688   7.718  0.00  0.00    +0.002 C 
ATOM     33  C   LIG    1        2.807   4.189   8.063  0.00  0.00    +0.000 C 
ATOM     34  C   LIG    1        3.024   5.082   6.827  0.00  0.00    +0.000 C 
ATOM     35  C   LIG    1        4.061   4.526   5.889  0.00  0.00    +0.002 C 
ATOM     36  C   LIG    1        3.347   3.693   4.806  0.00  0.00    +0.019 C 
ENDBRANCH  28  30
ENDBRANCH  11  28
BRANCH  12  37
ATOM     37  O   LIG    1        0.144  -2.745   0.074  0.00  0.00    -0.377 OA
ATOM     38  C   LIG    1        0.243  -4.168   0.172  0.00  0.00    +0.194 C 
ENDBRANCH  12  37
TORSDOF 6
