REMARK  Name = ZINC19890815
REMARK                            x       y       z     vdW  Elec       q    Type
REMARK                         _______ _______ _______ _____ _____    ______ ____
ROOT
ATOM      1  C   LIG    1        0.238   1.573  -0.060  0.00  0.00    +0.001 A 
ATOM      2  C   LIG    1        1.488   2.190  -0.065  0.00  0.00    +0.002 A 
ATOM      3  C   LIG    1        2.634   1.455  -0.056  0.00  0.00    +0.028 A 
ATOM      4  C   LIG    1        2.564   0.052  -0.042  0.00  0.00    +0.073 A 
ATOM      5  C   LIG    1        1.292  -0.574  -0.037  0.00  0.00    +0.001 A 
ATOM      6  C   LIG    1        1.216  -1.978  -0.022  0.00  0.00    +0.026 A 
ATOM      7  C   LIG    1        2.404  -2.697  -0.014  0.00  0.00    +0.077 A 
ATOM      8  C   LIG    1        3.636  -2.002  -0.020  0.00  0.00    +0.129 A 
ATOM      9  N   LIG    1        3.680  -0.688  -0.033  0.00  0.00    -0.232 NA
ATOM     10  C   LIG    1        0.130   0.216  -0.046  0.00  0.00    +0.010 A 
ENDROOT
BRANCH   7  11
ATOM     11  C   LIG    1        2.381  -4.172   0.002  0.00  0.00    +0.245 C 
ATOM     12  N   LIG    1        1.210  -4.826   0.130  0.00  0.00    -0.325 N 
ATOM     13  H   LIG    1        1.194  -5.796   0.140  0.00  0.00    +0.145 HD
ATOM     14  H   LIG    1        0.382  -4.327   0.211  0.00  0.00    +0.145 HD
ATOM     15  O   LIG    1        3.419  -4.797  -0.100  0.00  0.00    -0.270 OA
ENDBRANCH   7  11
BRANCH   8  16
ATOM     16  N   LIG    1        4.818  -2.719  -0.011  0.00  0.00    -0.343 N 
ATOM     17  H   LIG    1        5.666  -2.255   0.067  0.00  0.00    +0.144 HD
ATOM     18  H   LIG    1        4.799  -3.687  -0.082  0.00  0.00    +0.144 HD
ENDBRANCH   8  16
TORSDOF 2
