REMARK  Name = ZINC29485680
REMARK                            x       y       z     vdW  Elec       q    Type
REMARK                         _______ _______ _______ _____ _____    ______ ____
ROOT
ATOM      1  C   LIG    1        0.739  -2.004  -1.265  0.00  0.00    +0.089 A 
ATOM      2  N   LIG    1        1.676  -2.755  -0.752  0.00  0.00    -0.176 NA
ATOM      3  N   LIG    1        1.352  -4.104  -0.948  0.00  0.00    -0.270 N 
ATOM      4  H   LIG    1        1.879  -4.865  -0.660  0.00  0.00    +0.189 HD
ATOM      5  C   LIG    1        0.162  -4.158  -1.620  0.00  0.00    +0.149 A 
ATOM      6  C   LIG    1       -0.656  -5.209  -2.095  0.00  0.00    +0.277 A 
ATOM      7  O   LIG    1       -0.335  -6.373  -1.930  0.00  0.00    -0.265 OA
ATOM      8  N   LIG    1       -1.801  -4.892  -2.738  0.00  0.00    -0.305 N 
ATOM      9  H   LIG    1       -2.378  -5.596  -3.073  0.00  0.00    +0.170 HD
ATOM     10  C   LIG    1       -2.152  -3.581  -2.918  0.00  0.00    +0.145 A 
ATOM     11  N   LIG    1       -1.404  -2.596  -2.482  0.00  0.00    -0.225 NA
ATOM     12  C   LIG    1       -0.247  -2.835  -1.833  0.00  0.00    +0.119 A 
ENDROOT
BRANCH  10  13
ATOM     13  C   LIG    1       -3.409  -3.267  -3.625  0.00  0.00    +0.059 A 
ATOM     14  C   LIG    1       -4.227  -4.296  -4.094  0.00  0.00    +0.015 A 
ATOM     15  C   LIG    1       -5.400  -3.996  -4.753  0.00  0.00    +0.001 A 
ATOM     16  C   LIG    1       -5.772  -2.677  -4.952  0.00  0.00    +0.004 A 
ATOM     17  C   LIG    1       -4.971  -1.649  -4.493  0.00  0.00    +0.046 A 
ATOM     18  C   LIG    1       -3.792  -1.934  -3.823  0.00  0.00    +0.127 A 
BRANCH  18  19
ATOM     19  O   LIG    1       -3.007  -0.924  -3.366  0.00  0.00    -0.506 OA
ATOM     20  H   LIG    1       -2.345  -0.622  -4.003  0.00  0.00    +0.292 HD
ENDBRANCH  18  19
ENDBRANCH  10  13
BRANCH   1  21
ATOM     21  C   LIG    1        0.718  -0.497  -1.257  0.00  0.00    +0.059 C 
BRANCH  21  23
ATOM     22  C   LIG    1       -0.019   1.526   0.010  0.00  0.00    +0.004 C 
ATOM     23  C   LIG    1        0.002  -0.004   0.002  0.00  0.00    +0.003 C 
ENDBRANCH  21  23
ENDBRANCH   1  21
TORSDOF 4
