REMARK  Name = ZINC40423330
REMARK                            x       y       z     vdW  Elec       q    Type
REMARK                         _______ _______ _______ _____ _____    ______ ____
ROOT
ATOM      1  N   LIG    1       -2.435  -0.904  -0.859  0.00  0.00    -0.295 NA
ATOM      2  C   LIG    1       -2.783   0.352  -1.538  0.00  0.00    +0.103 C 
ATOM      3  C   LIG    1       -2.699   0.148  -3.055  0.00  0.00    +0.123 C 
ATOM      4  N   LIG    1       -3.533  -1.007  -3.418  0.00  0.00    -0.295 N 
ATOM      5  C   LIG    1       -4.453  -0.915  -4.399  0.00  0.00    +0.247 C 
ATOM      6  O   LIG    1       -5.085  -1.898  -4.734  0.00  0.00    -0.270 OA
ATOM      7  C   LIG    1       -3.336  -2.266  -2.684  0.00  0.00    +0.123 C 
ATOM      8  C   LIG    1       -3.395  -1.968  -1.182  0.00  0.00    +0.103 C 
ENDROOT
BRANCH   5   9
ATOM      9  C   LIG    1       -4.694   0.381  -5.067  0.00  0.00    +0.037 A 
ATOM     10  C   LIG    1       -3.619   1.131  -5.549  0.00  0.00    +0.014 A 
ATOM     11  C   LIG    1       -3.850   2.340  -6.172  0.00  0.00    +0.021 A 
ATOM     12  C   LIG    1       -5.144   2.810  -6.320  0.00  0.00    +0.041 A 
ATOM     13 CL   LIG    1       -5.427   4.332  -7.104  0.00  0.00    -0.084 Cl
ATOM     14  C   LIG    1       -6.215   2.070  -5.844  0.00  0.00    +0.021 A 
ATOM     15  C   LIG    1       -5.997   0.857  -5.224  0.00  0.00    +0.014 A 
ENDBRANCH   5   9
BRANCH   1  16
ATOM     16  C   LIG    1       -2.336  -0.707   0.593  0.00  0.00    +0.119 C 
BRANCH  16  22
ATOM     17  C   LIG    1       -1.375   1.575   0.959  0.00  0.00    +0.007 A 
ATOM     18  C   LIG    1       -0.315   2.416   1.238  0.00  0.00    +0.026 A 
ATOM     19  C   LIG    1        0.949   1.886   1.458  0.00  0.00    +0.047 A 
ATOM     20  C   LIG    1        1.144   0.513   1.397  0.00  0.00    +0.026 A 
ATOM     21  C   LIG    1        0.081  -0.322   1.117  0.00  0.00    +0.007 A 
ATOM     22  C   LIG    1       -1.178   0.208   0.898  0.00  0.00    -0.033 A 
BRANCH  19  23
ATOM     23  N   LIG    1        2.027   2.737   1.742  0.00  0.00    -0.306 N 
ATOM     24  C   LIG    1        3.325   2.359   1.974  0.00  0.00    +0.112 A 
ATOM     25  C   LIG    1        4.024   3.487   2.202  0.00  0.00    +0.130 A 
ATOM     26  N   LIG    1        3.183   4.527   2.113  0.00  0.00    -0.244 NA
ATOM     27  C   LIG    1        1.985   4.092   1.832  0.00  0.00    +0.204 A 
ENDBRANCH  19  23
ENDBRANCH  16  22
ENDBRANCH   1  16
TORSDOF 4
