REMARK  Name = ZINC14958767
REMARK                            x       y       z     vdW  Elec       q    Type
REMARK                         _______ _______ _______ _____ _____    ______ ____
ROOT
ATOM      1  N   LIG    1        4.255   6.086   0.039  0.00  0.00    -0.273 N 
ATOM      2  C   LIG    1        3.404   6.010   1.220  0.00  0.00    +0.098 C 
ATOM      3  C   LIG    1        2.099   5.283   0.893  0.00  0.00    -0.049 C 
ATOM      4  C   LIG    1        2.436   3.958   0.199  0.00  0.00    +0.016 C 
ATOM      5  C   LIG    1        3.041   4.269  -1.172  0.00  0.00    +0.103 C 
ATOM      6  C   LIG    1        4.122   5.302  -1.031  0.00  0.00    +0.220 C 
ATOM      7  O   LIG    1        4.915   5.430  -1.939  0.00  0.00    -0.275 OA
ENDROOT
BRANCH   4   8
ATOM      8  C   LIG    1        1.181   3.142   0.026  0.00  0.00    -0.027 A 
ATOM      9  C   LIG    1        0.122   3.649  -0.704  0.00  0.00    +0.005 A 
ATOM     10  C   LIG    1       -1.030   2.901  -0.861  0.00  0.00    +0.000 A 
ATOM     11  C   LIG    1       -1.122   1.643  -0.294  0.00  0.00    +0.001 A 
ATOM     12  C   LIG    1       -0.066   1.138   0.441  0.00  0.00    +0.020 A 
ATOM     13  C   LIG    1        1.087   1.886   0.599  0.00  0.00    +0.044 A 
ATOM     14 CL   LIG    1        2.417   1.249   1.516  0.00  0.00    -0.083 Cl
ENDBRANCH   4   8
BRANCH   1  18
ATOM     15  C   LIG    1        7.296   8.934   0.005  0.00  0.00    +0.000 A 
ATOM     16  C   LIG    1        6.046   9.254  -0.491  0.00  0.00    +0.002 A 
ATOM     17  C   LIG    1        5.036   8.312  -0.481  0.00  0.00    +0.023 A 
ATOM     18  C   LIG    1        5.277   7.043   0.028  0.00  0.00    +0.036 A 
ATOM     19  C   LIG    1        6.532   6.726   0.531  0.00  0.00    +0.023 A 
ATOM     20  C   LIG    1        7.540   7.670   0.512  0.00  0.00    +0.002 A 
ENDBRANCH   1  18
BRANCH   3  21
ATOM     21  N   LIG    1        1.377   5.002   2.147  0.00  0.00    +0.381 N 
ATOM     22  H   LIG    1        1.983   4.454   2.770  0.00  0.00    -0.090 HD
ATOM     23  H   LIG    1        0.532   4.467   1.951  0.00  0.00    -0.090 HD
ATOM     24  H   LIG    1        1.127   5.874   2.609  0.00  0.00    -0.090 HD
ENDBRANCH   3  21
TORSDOF 3
