REMARK  Name = ZINC19862637
REMARK                            x       y       z     vdW  Elec       q    Type
REMARK                         _______ _______ _______ _____ _____    ______ ____
ROOT
ATOM      1  C   LIG    1       -5.771   4.114   0.331  0.00  0.00    +0.025 A 
ATOM      2  C   LIG    1       -5.939   2.742   0.333  0.00  0.00    +0.027 A 
ATOM      3  C   LIG    1       -4.837   1.908   0.224  0.00  0.00    +0.051 A 
ATOM      4  C   LIG    1       -3.557   2.454   0.126  0.00  0.00    +0.057 A 
ATOM      5  C   LIG    1       -3.392   3.830   0.125  0.00  0.00    +0.048 A 
ATOM      6  C   LIG    1       -4.499   4.661   0.227  0.00  0.00    +0.032 A 
ENDROOT
BRANCH   3   7
ATOM      7  N   LIG    1       -5.008   0.516   0.221  0.00  0.00    -0.328 N 
ATOM      8  C   LIG    1       -5.764   0.082  -0.962  0.00  0.00    +0.105 C 
ATOM      9  C   LIG    1       -5.806  -1.447  -1.009  0.00  0.00    +0.019 C 
ATOM     10  C   LIG    1       -6.471  -1.974   0.266  0.00  0.00    +0.003 C 
ATOM     11  C   LIG    1       -5.692  -1.468   1.484  0.00  0.00    +0.019 C 
ATOM     12  C   LIG    1       -5.653   0.062   1.459  0.00  0.00    +0.105 C 
ENDBRANCH   3   7
BRANCH   6  13
ATOM     13  N   LIG    1       -4.333   6.051   0.225  0.00  0.00    -0.330 N 
ATOM     14  C   LIG    1       -3.412   6.472   1.288  0.00  0.00    +0.105 C 
ATOM     15  C   LIG    1       -3.141   7.973   1.166  0.00  0.00    +0.019 C 
ATOM     16  C   LIG    1       -4.464   8.736   1.279  0.00  0.00    +0.003 C 
ATOM     17  C   LIG    1       -5.422   8.245   0.191  0.00  0.00    +0.019 C 
ATOM     18  C   LIG    1       -5.627   6.736   0.342  0.00  0.00    +0.105 C 
ENDBRANCH   6  13
BRANCH   4  19
ATOM     19  N   LIG    1       -2.442   1.613   0.023  0.00  0.00    -0.277 N 
ATOM     20  H   LIG    1       -2.488   0.588   0.419  0.00  0.00    +0.155 HD
ATOM     21  C   LIG    1       -1.313   2.060  -0.561  0.00  0.00    +0.284 C 
ATOM     22  O   LIG    1       -1.293   3.156  -1.088  0.00  0.00    -0.266 OA
BRANCH  21  23
ATOM     23  C   LIG    1       -0.104   1.223  -0.561  0.00  0.00    +0.191 A 
ATOM     24  C   LIG    1        1.097   1.556  -1.121  0.00  0.00    +0.056 A 
ATOM     25  C   LIG    1        1.964   0.480  -0.900  0.00  0.00    +0.061 A 
ATOM     26  C   LIG    1        1.249  -0.472  -0.208  0.00  0.00    +0.205 A 
ATOM     27  O   LIG    1        0.003  -0.003  -0.014  0.00  0.00    -0.440 OA
BRANCH  26  28
ATOM     28  C   LIG    1        1.746  -1.742   0.229  0.00  0.00    +0.138 C 
ATOM     29  N   LIG    1        2.140  -2.749   0.575  0.00  0.00    -0.188 NA
ENDBRANCH  26  28
ENDBRANCH  21  23
ENDBRANCH   4  19
TORSDOF 5
