REMARK  Name = ZINC29391508
REMARK                            x       y       z     vdW  Elec       q    Type
REMARK                         _______ _______ _______ _____ _____    ______ ____
ROOT
ATOM      1  C   LIG    1        1.018  -3.389  -3.377  0.00  0.00    +0.001 A 
ATOM      2  C   LIG    1        2.155  -3.148  -4.079  0.00  0.00    +0.009 A 
ATOM      3  C   LIG    1        3.237  -2.446  -3.488  0.00  0.00    -0.010 A 
ATOM      4  C   LIG    1        4.476  -2.112  -4.063  0.00  0.00    +0.031 A 
ATOM      5  C   LIG    1        5.400  -1.429  -3.335  0.00  0.00    +0.097 A 
ATOM      6  S   LIG    1        4.583  -1.204  -1.765  0.00  0.00    -0.081 S 
ATOM      7  C   LIG    1        3.055  -2.020  -2.150  0.00  0.00    +0.025 A 
ATOM      8  C   LIG    1        1.896  -2.278  -1.449  0.00  0.00    -0.013 A 
ATOM      9  C   LIG    1        0.868  -2.964  -2.063  0.00  0.00    +0.006 A 
ENDROOT
BRANCH   5  10
ATOM     10  C   LIG    1        6.740  -0.987  -3.741  0.00  0.00    +0.344 C 
ATOM     11  O   LIG    1        7.145  -1.226  -4.862  0.00  0.00    -0.245 OA
BRANCH  10  12
ATOM     12  O   LIG    1        7.521  -0.315  -2.871  0.00  0.00    -0.477 OA
ATOM     13  H   LIG    1        7.208  -0.130  -2.007  0.00  0.00    +0.295 HD
ENDBRANCH  10  12
ENDBRANCH   5  10
BRANCH   8  14
ATOM     14  C   LIG    1        1.751  -1.809  -0.024  0.00  0.00    +0.159 C 
BRANCH  14  15
ATOM     15  N   LIG    1        1.287  -0.420  -0.013  0.00  0.00    -0.334 N 
ATOM     16  C   LIG    1        2.075   0.700  -0.014  0.00  0.00    +0.105 A 
ATOM     17  C   LIG    1        1.244   1.760  -0.000  0.00  0.00    +0.101 A 
ATOM     18  N   LIG    1       -0.016   1.301   0.009  0.00  0.00    -0.352 N 
ATOM     19  H   LIG    1       -0.859   2.007   0.021  0.00  0.00    +0.166 HD
ATOM     20  C   LIG    1        0.002  -0.004   0.002  0.00  0.00    +0.174 A 
ENDBRANCH  14  15
ENDBRANCH   8  14
TORSDOF 4
