REMARK  Name = ZINC34637143
REMARK                            x       y       z     vdW  Elec       q    Type
REMARK                         _______ _______ _______ _____ _____    ______ ____
ROOT
ATOM      1  C   LIG    1        7.669  -4.058  -6.617  0.00  0.00    +0.240 A 
ATOM      2  N   LIG    1        8.958  -4.188  -6.878  0.00  0.00    -0.211 NA
ATOM      3  C   LIG    1        9.352  -4.338  -8.148  0.00  0.00    +0.097 A 
ATOM      4  C   LIG    1       10.708  -4.482  -8.486  0.00  0.00    -0.022 A 
ATOM      5  C   LIG    1       11.760  -4.469  -7.408  0.00  0.00    +0.046 C 
ATOM      6  C   LIG    1       11.069  -4.633  -9.787  0.00  0.00    +0.014 A 
ATOM      7  C   LIG    1       10.103  -4.647 -10.807  0.00  0.00    -0.015 A 
ATOM      8  C   LIG    1        8.760  -4.507 -10.507  0.00  0.00    +0.040 A 
ATOM      9  C   LIG    1        8.366  -4.351  -9.170  0.00  0.00    +0.112 A 
ATOM     10  N   LIG    1        7.080  -4.213  -8.830  0.00  0.00    -0.144 NA
ATOM     11  N   LIG    1        6.755  -4.078  -7.590  0.00  0.00    -0.112 NA
ENDROOT
BRANCH   7  12
ATOM     12  C   LIG    1       10.526  -4.813 -12.219  0.00  0.00    -0.012 A 
ATOM     13  C   LIG    1       11.307  -3.836 -12.834  0.00  0.00    -0.042 A 
ATOM     14  C   LIG    1       11.723  -2.607 -12.066  0.00  0.00    +0.044 C 
ATOM     15  C   LIG    1       11.699  -3.996 -14.148  0.00  0.00    +0.004 A 
ATOM     16  C   LIG    1       11.318  -5.122 -14.854  0.00  0.00    +0.001 A 
ATOM     17  C   LIG    1       10.542  -6.095 -14.248  0.00  0.00    +0.004 A 
ATOM     18  C   LIG    1       10.150  -5.948 -12.933  0.00  0.00    -0.042 A 
ATOM     19  C   LIG    1        9.310  -7.012 -12.273  0.00  0.00    +0.044 C 
ENDBRANCH   7  12
BRANCH   1  20
ATOM     20  N   LIG    1        7.257  -3.902  -5.305  0.00  0.00    -0.282 N 
ATOM     21  H   LIG    1        7.915  -3.806  -4.598  0.00  0.00    +0.155 HD
BRANCH  20  26
ATOM     22  C   LIG    1        3.654  -4.634  -5.428  0.00  0.00    +0.122 A 
ATOM     23  C   LIG    1        3.192  -3.842  -4.385  0.00  0.00    +0.046 A 
ATOM     24  C   LIG    1        4.078  -3.075  -3.653  0.00  0.00    +0.005 A 
ATOM     25  C   LIG    1        5.426  -3.094  -3.955  0.00  0.00    +0.023 A 
ATOM     26  C   LIG    1        5.894  -3.884  -4.998  0.00  0.00    +0.037 A 
ATOM     27  C   LIG    1        5.006  -4.659  -5.731  0.00  0.00    +0.069 A 
BRANCH  22  28
ATOM     28  O   LIG    1        2.781  -5.387  -6.147  0.00  0.00    -0.494 OA
BRANCH  28  29
ATOM     29  C   LIG    1        1.402  -5.312  -5.779  0.00  0.00    +0.210 C 
BRANCH  29  30
ATOM     30  C   LIG    1        0.596  -6.305  -6.618  0.00  0.00    -0.037 C 
BRANCH  30  31
ATOM     31  N   LIG    1        1.032  -7.673  -6.311  0.00  0.00    +0.382 N 
ATOM     32  H   LIG    1        2.031  -7.744  -6.438  0.00  0.00    -0.082 HD
BRANCH  31  34
ATOM     33  C   LIG    1        1.256  -9.372  -4.561  0.00  0.00    -0.017 C 
ATOM     34  C   LIG    1        0.691  -7.995  -4.919  0.00  0.00    -0.082 C 
ENDBRANCH  31  34
BRANCH  31  35
ATOM     35  C   LIG    1        0.356  -8.617  -7.212  0.00  0.00    -0.082 C 
ATOM     36  C   LIG    1        0.839  -8.388  -8.645  0.00  0.00    -0.017 C 
ENDBRANCH  31  35
ENDBRANCH  30  31
ENDBRANCH  29  30
ENDBRANCH  28  29
ENDBRANCH  22  28
ENDBRANCH  20  26
ENDBRANCH   1  20
TORSDOF 9
