REMARK  Name = ZINC14951170
REMARK                            x       y       z     vdW  Elec       q    Type
REMARK                         _______ _______ _______ _____ _____    ______ ____
ROOT
ATOM      1  N   LIG    1       -1.726  -1.017  -1.368  0.00  0.00    -0.364 N 
ATOM      2  H   LIG    1       -1.192  -0.691  -2.108  0.00  0.00    +0.162 HD
ATOM      3  C   LIG    1       -2.830  -1.672  -1.599  0.00  0.00    +0.125 C 
ENDROOT
BRANCH   3   4
ATOM      4  N   LIG    1       -3.588  -2.135  -0.548  0.00  0.00    -0.339 N 
ATOM      5  H   LIG    1       -4.409  -2.622  -0.720  0.00  0.00    +0.144 HD
ATOM      6  H   LIG    1       -3.301  -1.974   0.365  0.00  0.00    +0.144 HD
ENDBRANCH   3   4
BRANCH   1   7
ATOM      7  C   LIG    1       -1.293  -0.775   0.011  0.00  0.00    +0.150 C 
BRANCH   7  14
ATOM      8  C   LIG    1       -0.017   1.378   0.010  0.00  0.00    +0.007 A 
ATOM      9  C   LIG    1        1.171   2.086   0.002  0.00  0.00    +0.020 A 
ATOM     10  C   LIG    1        2.378   1.410  -0.013  0.00  0.00    +0.041 A 
ATOM     11 CL   LIG    1        3.870   2.298  -0.023  0.00  0.00    -0.084 Cl
ATOM     12  C   LIG    1        2.396   0.027  -0.021  0.00  0.00    +0.020 A 
ATOM     13  C   LIG    1        1.208  -0.679  -0.013  0.00  0.00    +0.007 A 
ATOM     14  C   LIG    1        0.002  -0.004   0.002  0.00  0.00    -0.028 A 
ENDBRANCH   7  14
ENDBRANCH   1   7
BRANCH   3  15
ATOM     15  S   LIG    1       -3.351  -1.964  -3.256  0.00  0.00    -0.093 S 
BRANCH  15  16
ATOM     16  C   LIG    1       -4.901  -2.888  -3.073  0.00  0.00    +0.077 C 
BRANCH  16  17
ATOM     17  C   LIG    1       -5.469  -3.211  -4.457  0.00  0.00    +0.017 C 
BRANCH  17  18
ATOM     18  C   LIG    1       -6.777  -3.991  -4.302  0.00  0.00    +0.055 C 
BRANCH  18  19
ATOM     19  C   LIG    1       -7.336  -4.308  -5.665  0.00  0.00    +0.035 A 
ATOM     20  C   LIG    1       -8.107  -3.506  -6.423  0.00  0.00    +0.133 A 
ATOM     21  N   LIG    1       -8.393  -4.158  -7.560  0.00  0.00    -0.244 NA
ATOM     22  C   LIG    1       -7.827  -5.334  -7.535  0.00  0.00    +0.196 A 
ATOM     23  N   LIG    1       -7.153  -5.466  -6.372  0.00  0.00    -0.348 N 
ATOM     24  H   LIG    1       -6.638  -6.237  -6.090  0.00  0.00    +0.166 HD
ENDBRANCH  18  19
ENDBRANCH  17  18
ENDBRANCH  16  17
ENDBRANCH  15  16
ENDBRANCH   3  15
TORSDOF 8
