REMARK  Name = ZINC14688371
REMARK                            x       y       z     vdW  Elec       q    Type
REMARK                         _______ _______ _______ _____ _____    ______ ____
ROOT
ATOM      1  C   LIG    1       -0.347   1.429   0.029  0.00  0.00    +0.046 C 
ATOM      2  C   LIG    1       -0.138  -0.064   0.024  0.00  0.00    -0.024 A 
ATOM      3  C   LIG    1       -0.225  -0.767  -1.165  0.00  0.00    +0.006 A 
ATOM      4  C   LIG    1       -0.034  -2.133  -1.177  0.00  0.00    +0.013 A 
ATOM      5  C   LIG    1        0.247  -2.806   0.014  0.00  0.00    +0.039 A 
ATOM      6  C   LIG    1        0.334  -2.090   1.209  0.00  0.00    +0.041 A 
ATOM      7  C   LIG    1        0.146  -0.723   1.206  0.00  0.00    +0.109 A 
ENDROOT
BRANCH   5   8
ATOM      8  C   LIG    1        0.453  -4.270   0.008  0.00  0.00    +0.244 C 
ATOM      9  N   LIG    1        0.368  -4.958  -1.148  0.00  0.00    -0.311 N 
ATOM     10  H   LIG    1        0.172  -4.493  -1.976  0.00  0.00    +0.149 HD
ATOM     11  O   LIG    1        0.698  -4.853   1.046  0.00  0.00    -0.270 OA
BRANCH   9  12
ATOM     12  C   LIG    1        0.571  -6.409  -1.153  0.00  0.00    +0.111 C 
BRANCH  12  13
ATOM     13  C   LIG    1        0.421  -6.939  -2.580  0.00  0.00    -0.013 C 
ATOM     14  C   LIG    1       -0.982  -6.619  -3.099  0.00  0.00    +0.012 C 
ATOM     15  C   LIG    1       -1.131  -7.150  -4.526  0.00  0.00    -0.010 C 
ATOM     16  C   LIG    1       -0.919  -8.665  -4.532  0.00  0.00    +0.007 C 
ATOM     17  C   LIG    1        0.484  -8.985  -4.013  0.00  0.00    -0.010 C 
ATOM     18  C   LIG    1        1.526  -8.321  -4.916  0.00  0.00    +0.007 C 
ATOM     19  C   LIG    1        1.313  -6.806  -4.910  0.00  0.00    -0.010 C 
ATOM     20  C   LIG    1       -0.090  -6.486  -5.429  0.00  0.00    +0.007 C 
ATOM     21  C   LIG    1        1.463  -6.275  -3.483  0.00  0.00    +0.012 C 
ATOM     22  C   LIG    1        0.634  -8.455  -2.586  0.00  0.00    +0.012 C 
ENDBRANCH  12  13
ENDBRANCH   9  12
ENDBRANCH   5   8
BRANCH   7  23
ATOM     23  S   LIG    1        0.262   0.183   2.713  0.00  0.00    +0.061 S 
ATOM     24  O   LIG    1        0.503  -0.768   3.741  0.00  0.00    -0.153 OA
ATOM     25  O   LIG    1       -0.849   1.069   2.740  0.00  0.00    -0.153 OA
BRANCH  23  26
ATOM     26  N   LIG    1        1.619   1.127   2.613  0.00  0.00    -0.172 NA
ATOM     27  C   LIG    1        2.946   0.583   2.942  0.00  0.00    +0.137 C 
ATOM     28  C   LIG    1        3.902   0.913   1.791  0.00  0.00    +0.177 C 
ATOM     29  O   LIG    1        3.841   2.315   1.515  0.00  0.00    -0.377 OA
ATOM     30  C   LIG    1        2.558   2.770   1.079  0.00  0.00    +0.177 C 
ATOM     31  C   LIG    1        1.534   2.533   2.188  0.00  0.00    +0.137 C 
ENDBRANCH  23  26
ENDBRANCH   7  23
TORSDOF 5
