REMARK  Name = ZINC26383047
REMARK                            x       y       z     vdW  Elec       q    Type
REMARK                         _______ _______ _______ _____ _____    ______ ____
ROOT
ATOM      1  C   LIG    1        1.204  -0.695  -0.014  0.00  0.00    +0.001 A 
ATOM      2  C   LIG    1        0.002  -0.004   0.002  0.00  0.00    +0.002 A 
ATOM      3  C   LIG    1       -0.017   1.376   0.010  0.00  0.00    +0.026 A 
ATOM      4  C   LIG    1        1.177   2.081   0.002  0.00  0.00    +0.056 A 
ATOM      5  C   LIG    1        2.397   1.382  -0.014  0.00  0.00    +0.063 A 
ATOM      6  C   LIG    1        3.648   2.162  -0.023  0.00  0.00    +0.264 A 
ATOM      7  N   LIG    1        3.561   3.510  -0.014  0.00  0.00    -0.260 N 
ATOM      8  C   LIG    1        2.372   4.132   0.001  0.00  0.00    +0.330 A 
ATOM      9  O   LIG    1        2.351   5.347   0.007  0.00  0.00    -0.246 OA
ATOM     10  O   LIG    1        4.729   1.606  -0.037  0.00  0.00    -0.267 OA
ATOM     11  N   LIG    1        1.203   3.468   0.009  0.00  0.00    -0.307 N 
ATOM     12  H   LIG    1        0.261   4.035   0.022  0.00  0.00    +0.170 HD
ATOM     13  C   LIG    1        2.402  -0.011  -0.022  0.00  0.00    +0.015 A 
ENDROOT
BRANCH   7  14
ATOM     14  C   LIG    1        4.789   4.308  -0.023  0.00  0.00    +0.132 C 
BRANCH  14  15
ATOM     15  C   LIG    1        5.202   4.594  -1.468  0.00  0.00    +0.043 C 
BRANCH  15  16
ATOM     16  C   LIG    1        6.485   5.428  -1.477  0.00  0.00    +0.124 C 
BRANCH  16  17
ATOM     17  N   LIG    1        6.880   5.702  -2.861  0.00  0.00    -0.337 N 
ATOM     18  C   LIG    1        7.704   4.933  -3.637  0.00  0.00    +0.106 A 
ATOM     19  C   LIG    1        7.796   5.545  -4.833  0.00  0.00    +0.130 A 
ATOM     20  N   LIG    1        7.055   6.662  -4.785  0.00  0.00    -0.244 NA
ATOM     21  C   LIG    1        6.504   6.763  -3.607  0.00  0.00    +0.199 A 
ENDBRANCH  16  17
ENDBRANCH  15  16
ENDBRANCH  14  15
ENDBRANCH   7  14
TORSDOF 4
