REMARK  Name = ZINC16474423
REMARK                            x       y       z     vdW  Elec       q    Type
REMARK                         _______ _______ _______ _____ _____    ______ ____
ROOT
ATOM      1  C   LIG    1        3.711  -0.707  -0.038  0.00  0.00    +0.104 C 
ATOM      2  C   LIG    1        4.019  -1.179  -1.463  0.00  0.00    +0.063 C 
ATOM      3  C   LIG    1        5.381  -1.881  -1.496  0.00  0.00    +0.215 C 
ATOM      4  N   LIG    1        5.428  -2.874  -0.418  0.00  0.00    -0.238 N 
ATOM      5  C   LIG    1        4.601  -2.858   0.655  0.00  0.00    +0.130 A 
ATOM      6  C   LIG    1        4.931  -3.938   1.452  0.00  0.00    +0.096 A 
ATOM      7  C   LIG    1        6.001  -4.609   0.809  0.00  0.00    +0.149 A 
ATOM      8  N   LIG    1        6.282  -3.969  -0.293  0.00  0.00    -0.177 NA
ATOM      9  N   LIG    1        3.630  -1.889   0.844  0.00  0.00    -0.322 N 
ATOM     10  H   LIG    1        2.935  -1.982   1.514  0.00  0.00    +0.148 HD
ENDROOT
BRANCH   1  14
ATOM     11  C   LIG    1       -0.017   1.378   0.010  0.00  0.00    +0.000 A 
ATOM     12  C   LIG    1        1.171   2.086   0.002  0.00  0.00    +0.000 A 
ATOM     13  C   LIG    1        2.377   1.411  -0.013  0.00  0.00    +0.005 A 
ATOM     14  C   LIG    1        2.396   0.029  -0.020  0.00  0.00    -0.027 A 
ATOM     15  C   LIG    1        1.208  -0.679  -0.012  0.00  0.00    +0.005 A 
ATOM     16  C   LIG    1        0.002  -0.004   0.002  0.00  0.00    +0.000 A 
ENDBRANCH   1  14
BRANCH   3  17
ATOM     17  C   LIG    1        5.568  -2.576  -2.846  0.00  0.00    +0.412 C 
ATOM     18  F   LIG    1        4.553  -3.521  -3.028  0.00  0.00    -0.168 F 
ATOM     19  F   LIG    1        6.812  -3.215  -2.873  0.00  0.00    -0.168 F 
ATOM     20  F   LIG    1        5.510  -1.626  -3.871  0.00  0.00    -0.168 F 
ENDBRANCH   3  17
BRANCH   6  21
ATOM     21  C   LIG    1        4.295  -4.316   2.720  0.00  0.00    +0.249 C 
ATOM     22  N   LIG    1        4.726  -5.402   3.392  0.00  0.00    -0.306 N 
ATOM     23  H   LIG    1        5.455  -5.934   3.038  0.00  0.00    +0.150 HD
ATOM     24  O   LIG    1        3.380  -3.648   3.165  0.00  0.00    -0.270 OA
BRANCH  22  25
ATOM     25  C   LIG    1        4.092  -5.779   4.658  0.00  0.00    +0.036 C 
ATOM     26  C   LIG    1        4.244  -4.637   5.665  0.00  0.00    +0.029 C 
ATOM     27  C   LIG    1        3.581  -5.031   6.987  0.00  0.00    -0.008 C 
ATOM     28  C   LIG    1        4.253  -6.290   7.538  0.00  0.00    +0.007 C 
ATOM     29  C   LIG    1        4.101  -7.432   6.531  0.00  0.00    -0.008 C 
ATOM     30  C   LIG    1        2.615  -7.709   6.294  0.00  0.00    +0.007 C 
ATOM     31  C   LIG    1        1.943  -6.450   5.743  0.00  0.00    -0.008 C 
ATOM     32  C   LIG    1        2.095  -5.308   6.750  0.00  0.00    +0.007 C 
ATOM     33  C   LIG    1        2.606  -6.056   4.421  0.00  0.00    +0.029 C 
ATOM     34  C   LIG    1        4.763  -7.038   5.209  0.00  0.00    +0.029 C 
ENDBRANCH  22  25
ENDBRANCH   6  21
TORSDOF 4
