REMARK  Name = ZINC22864790
REMARK                            x       y       z     vdW  Elec       q    Type
REMARK                         _______ _______ _______ _____ _____    ______ ____
ROOT
ATOM      1  C   LIG    1        2.426   3.938  -0.009  0.00  0.00    +0.083 A 
ATOM      2  C   LIG    1        2.413   5.300  -0.116  0.00  0.00    +0.078 A 
ATOM      3  S   LIG    1        4.166   5.652  -0.080  0.00  0.00    -0.041 S 
ATOM      4  C   LIG    1        4.730   3.963   0.072  0.00  0.00    +0.233 A 
ATOM      5  N   LIG    1        3.586   3.304   0.087  0.00  0.00    -0.209 NA
ENDROOT
BRANCH   1  11
ATOM      6  C   LIG    1       -1.013   2.731  -0.929  0.00  0.00    +0.001 A 
ATOM      7  C   LIG    1       -1.225   1.758   0.032  0.00  0.00    +0.001 A 
ATOM      8  C   LIG    1       -0.249   1.484   0.973  0.00  0.00    +0.020 A 
ATOM      9  C   LIG    1        0.938   2.189   0.966  0.00  0.00    +0.050 A 
ATOM     10 CL   LIG    1        2.160   1.849   2.152  0.00  0.00    -0.083 Cl
ATOM     11  C   LIG    1        1.154   3.176   0.004  0.00  0.00    +0.019 A 
ATOM     12  C   LIG    1        0.169   3.443  -0.946  0.00  0.00    +0.011 A 
ENDBRANCH   1  11
BRANCH   4  13
ATOM     13  N   LIG    1        6.027   3.474   0.157  0.00  0.00    -0.225 N 
ATOM     14  H   LIG    1        6.206   2.389   0.160  0.00  0.00    +0.267 HD
BRANCH  13  15
ATOM     15  C   LIG    1        7.089   4.348   0.238  0.00  0.00    +0.347 C 
ATOM     16  N   LIG    1        6.872   5.629   0.338  0.00  0.00    -0.292 N 
ATOM     17  H   LIG    1        5.841   6.013   0.358  0.00  0.00    +0.255 HD
ATOM     18  H   LIG    1        7.720   6.327   0.402  0.00  0.00    +0.255 HD
BRANCH  15  19
ATOM     19  N   LIG    1        8.377   3.869   0.213  0.00  0.00    -0.292 N 
ATOM     20  H   LIG    1        8.560   2.787   0.128  0.00  0.00    +0.255 HD
ATOM     21  H   LIG    1        9.225   4.566   0.277  0.00  0.00    +0.255 HD
ENDBRANCH  15  19
ENDBRANCH  13  15
ENDBRANCH   4  13
TORSDOF 4
