REMARK  Name = ZINC26404191
REMARK                            x       y       z     vdW  Elec       q    Type
REMARK                         _______ _______ _______ _____ _____    ______ ____
ROOT
ATOM      1  C   LIG    1        4.808   0.272  -0.043  0.00  0.00    -0.001 A 
ATOM      2  C   LIG    1        3.676  -0.490  -0.036  0.00  0.00    +0.019 A 
ATOM      3  C   LIG    1        2.421   0.129  -0.021  0.00  0.00    +0.018 A 
ATOM      4  C   LIG    1        1.190  -0.664  -0.013  0.00  0.00    +0.018 A 
ATOM      5  C   LIG    1        0.002  -0.004   0.002  0.00  0.00    +0.092 A 
ATOM      6  C   LIG    1       -0.017   1.406   0.010  0.00  0.00    +0.337 A 
ATOM      7  O   LIG    1        1.115   2.126   0.003  0.00  0.00    -0.422 OA
ATOM      8  O   LIG    1       -1.089   1.985   0.018  0.00  0.00    -0.245 OA
ATOM      9  C   LIG    1        2.328   1.533  -0.012  0.00  0.00    +0.143 A 
ATOM     10  C   LIG    1        3.488   2.292  -0.019  0.00  0.00    +0.092 A 
ATOM     11  C   LIG    1        4.723   1.663  -0.034  0.00  0.00    +0.124 A 
ENDROOT
BRANCH  11  12
ATOM     12  O   LIG    1        5.858   2.407  -0.042  0.00  0.00    -0.506 OA
ATOM     13  H   LIG    1        5.795   3.505  -0.035  0.00  0.00    +0.292 HD
ENDBRANCH  11  12
BRANCH   1  14
ATOM     14  C   LIG    1        6.160  -0.395  -0.059  0.00  0.00    +0.065 C 
BRANCH  14  16
ATOM     15  C   LIG    1        7.885   0.128  -1.706  0.00  0.00    +0.004 C 
ATOM     16  C   LIG    1        6.706  -0.388  -1.464  0.00  0.00    -0.030 C 
ENDBRANCH  14  16
ENDBRANCH   1  14
TORSDOF 3
