REMARK  Name = ZINC19362650
REMARK                            x       y       z     vdW  Elec       q    Type
REMARK                         _______ _______ _______ _____ _____    ______ ____
ROOT
ATOM      1  C   LIG    1       -0.562  -4.056   0.998  0.00  0.00    -0.032 C 
ATOM      2  C   LIG    1        0.313  -4.532   2.112  0.00  0.00    +0.025 C 
ATOM      3  C   LIG    1        0.716  -5.962   1.959  0.00  0.00    -0.035 A 
ATOM      4  C   LIG    1        1.994  -6.264   1.504  0.00  0.00    +0.004 A 
ATOM      5  C   LIG    1        2.362  -7.585   1.327  0.00  0.00    +0.000 A 
ATOM      6  C   LIG    1        1.467  -8.605   1.593  0.00  0.00    +0.001 A 
ATOM      7  C   LIG    1        0.200  -8.305   2.058  0.00  0.00    +0.015 A 
ATOM      8  C   LIG    1       -0.151  -6.973   2.251  0.00  0.00    +0.016 A 
ATOM      9  S   LIG    1       -1.718  -6.554   2.928  0.00  0.00    -0.089 S 
ATOM     10  C   LIG    1       -2.539  -5.589   1.711  0.00  0.00    +0.014 A 
ATOM     11  C   LIG    1       -3.889  -5.922   1.499  0.00  0.00    +0.016 A 
ATOM     12  C   LIG    1       -4.672  -5.243   0.602  0.00  0.00    +0.016 A 
ATOM     13  C   LIG    1       -4.114  -4.192  -0.116  0.00  0.00    +0.008 A 
ATOM     14  C   LIG    1       -2.788  -3.870   0.080  0.00  0.00    +0.017 A 
ATOM     15  C   LIG    1       -1.975  -4.568   0.986  0.00  0.00    -0.046 A 
ENDROOT
BRANCH   1  20
ATOM     16  C   LIG    1        0.094   1.381   2.322  0.00  0.00    +0.104 C 
ATOM     17  N   LIG    1        0.110  -0.084   2.223  0.00  0.00    -0.309 NA
ATOM     18  C   LIG    1        0.695  -0.519   0.947  0.00  0.00    +0.065 C 
ATOM     19  C   LIG    1        0.748  -2.048   0.908  0.00  0.00    -0.062 C 
ATOM     20  N   LIG    1       -0.611  -2.589   1.053  0.00  0.00    +0.386 N 
ATOM     21  H   LIG    1       -1.191  -2.243   0.303  0.00  0.00    -0.081 HD
ATOM     22  C   LIG    1       -1.173  -2.166   2.342  0.00  0.00    -0.062 C 
ATOM     23  C   LIG    1       -1.241  -0.638   2.393  0.00  0.00    +0.065 C 
ENDBRANCH   1  20
BRANCH  13  24
ATOM     24  S   LIG    1       -5.091  -3.282  -1.266  0.00  0.00    -0.129 S 
ATOM     25  C   LIG    1       -6.725  -4.064  -1.170  0.00  0.00    +0.090 C 
ENDBRANCH  13  24
TORSDOF 2
