REMARK  Name = ZINC19167170
REMARK                            x       y       z     vdW  Elec       q    Type
REMARK                         _______ _______ _______ _____ _____    ______ ____
ROOT
ATOM      1  C   LIG    1       -2.207   0.938  -1.076  0.00  0.00    +0.130 C 
ENDROOT
BRANCH   1   5
ATOM      2  C   LIG    1       -4.486   2.456  -4.354  0.00  0.00    +0.000 A 
ATOM      3  C   LIG    1       -4.561   3.070  -3.117  0.00  0.00    +0.000 A 
ATOM      4  C   LIG    1       -3.823   2.579  -2.057  0.00  0.00    +0.006 A 
ATOM      5  C   LIG    1       -3.011   1.474  -2.232  0.00  0.00    -0.021 A 
ATOM      6  C   LIG    1       -2.933   0.863  -3.470  0.00  0.00    +0.006 A 
ATOM      7  C   LIG    1       -3.674   1.352  -4.530  0.00  0.00    +0.000 A 
ENDBRANCH   1   5
BRANCH   1   8
ATOM      8  O   LIG    1       -2.132  -0.486  -1.167  0.00  0.00    -0.389 OA
ATOM      9  H   LIG    1       -1.582  -1.058  -0.405  0.00  0.00    +0.210 HD
ENDBRANCH   1   8
BRANCH   1  10
ATOM     10  C   LIG    1       -0.795   1.527  -1.120  0.00  0.00    -0.023 C 
BRANCH  10  11
ATOM     11  N   LIG    1       -0.012   1.005   0.008  0.00  0.00    +0.388 N 
ATOM     12  H   LIG    1        0.046  -0.091  -0.062  0.00  0.00    -0.061 HD
ATOM     13  H   LIG    1       -0.497   1.287   0.954  0.00  0.00    -0.061 HD
BRANCH  11  14
ATOM     14  N   LIG    1        1.339   1.544  -0.002  0.00  0.00    -0.381 NA
ATOM     15  H   LIG    1        1.797   1.354  -0.881  0.00  0.00    +0.098 HD
ATOM     16  H   LIG    1        1.877   1.186   0.772  0.00  0.00    +0.098 HD
ENDBRANCH  11  14
ENDBRANCH  10  11
ENDBRANCH   1  10
TORSDOF 5
