REMARK  Name = ZINC18128389
REMARK                            x       y       z     vdW  Elec       q    Type
REMARK                         _______ _______ _______ _____ _____    ______ ____
ROOT
ATOM      1  C   LIG    1        0.064   1.431   0.157  0.00  0.00    +0.001 A 
ATOM      2  C   LIG    1        1.263   2.133   0.112  0.00  0.00    +0.002 A 
ATOM      3  C   LIG    1        2.474   1.486   0.031  0.00  0.00    +0.026 A 
ATOM      4  C   LIG    1        2.513   0.086  -0.006  0.00  0.00    +0.049 A 
ATOM      5  N   LIG    1        3.516  -0.801  -0.082  0.00  0.00    -0.352 N 
ATOM      6  H   LIG    1        4.455  -0.562  -0.126  0.00  0.00    +0.166 HD
ATOM      7  C   LIG    1        3.056  -2.054  -0.089  0.00  0.00    +0.079 A 
ATOM      8  C   LIG    1        1.577  -2.014  -0.009  0.00  0.00    +0.094 A 
ATOM      9  C   LIG    1        3.839  -3.210  -0.159  0.00  0.00    +0.071 C 
ATOM     10  C   LIG    1        3.447  -4.523  -0.693  0.00  0.00    +0.010 A 
ATOM     11  C   LIG    1        2.268  -5.013  -1.258  0.00  0.00    +0.011 A 
ATOM     12  C   LIG    1        2.204  -6.325  -1.675  0.00  0.00    +0.016 A 
ATOM     13  C   LIG    1        3.307  -7.155  -1.534  0.00  0.00    +0.020 A 
ATOM     14 BR   LIG    1        3.205  -8.954  -2.109  0.00  0.00    -0.050 Br
ATOM     15  C   LIG    1        4.480  -6.681  -0.975  0.00  0.00    +0.039 A 
ATOM     16  C   LIG    1        4.566  -5.363  -0.549  0.00  0.00    +0.043 A 
ATOM     17  N   LIG    1        5.605  -4.646   0.035  0.00  0.00    -0.281 N 
ATOM     18  H   LIG    1        6.480  -5.015   0.235  0.00  0.00    +0.155 HD
ATOM     19  C   LIG    1        5.243  -3.376   0.282  0.00  0.00    +0.251 C 
ATOM     20  O   LIG    1        5.942  -2.516   0.781  0.00  0.00    -0.270 OA
ATOM     21  C   LIG    1        1.243  -0.647   0.043  0.00  0.00    +0.025 A 
ATOM     22  C   LIG    1        0.039   0.067   0.124  0.00  0.00    +0.012 A 
ENDROOT
BRANCH   8  23
ATOM     23  N   LIG    1        0.722  -3.074   0.009  0.00  0.00    -0.266 N 
ATOM     24  H   LIG    1        1.071  -3.977   0.061  0.00  0.00    +0.194 HD
BRANCH  23  25
ATOM     25  O   LIG    1       -0.676  -2.857  -0.047  0.00  0.00    -0.289 OA
ATOM     26  H   LIG    1       -1.202  -3.668  -0.028  0.00  0.00    +0.244 HD
ENDBRANCH  23  25
ENDBRANCH   8  23
TORSDOF 2
