REMARK  Name = ZINC51133897
REMARK                            x       y       z     vdW  Elec       q    Type
REMARK                         _______ _______ _______ _____ _____    ______ ____
ROOT
ATOM      1  C   LIG    1        0.625   1.354  -0.560  0.00  0.00    +0.158 C 
ATOM      2  N   LIG    1        0.232  -0.003  -0.175  0.00  0.00    -0.197 N 
ATOM      3  C   LIG    1       -0.311  -0.901  -1.114  0.00  0.00    +0.155 C 
ATOM      4  C   LIG    1       -0.142  -2.237  -1.020  0.00  0.00    +0.153 C 
ATOM      5  C   LIG    1        0.618  -2.902   0.046  0.00  0.00    +0.045 A 
ATOM      6  C   LIG    1        1.027  -4.232  -0.102  0.00  0.00    +0.013 A 
ATOM      7  C   LIG    1        1.740  -4.846   0.905  0.00  0.00    +0.001 A 
ATOM      8  C   LIG    1        2.057  -4.157   2.064  0.00  0.00    +0.002 A 
ATOM      9  C   LIG    1        1.655  -2.840   2.221  0.00  0.00    +0.029 A 
ATOM     10  C   LIG    1        0.943  -2.220   1.224  0.00  0.00    +0.119 A 
ATOM     11  S   LIG    1        0.418  -0.545   1.391  0.00  0.00    +0.075 S 
ATOM     12  O   LIG    1        1.504   0.178   1.955  0.00  0.00    -0.150 OA
ATOM     13  O   LIG    1       -0.876  -0.575   1.977  0.00  0.00    -0.150 OA
ENDROOT
BRANCH   3  14
ATOM     14  C   LIG    1       -1.064  -0.382  -2.199  0.00  0.00    +0.268 C 
ATOM     15  N   LIG    1       -1.808   0.730  -2.032  0.00  0.00    -0.265 N 
ATOM     16  H   LIG    1       -1.792   1.202  -1.185  0.00  0.00    +0.157 HD
ATOM     17  O   LIG    1       -1.039  -0.941  -3.280  0.00  0.00    -0.268 OA
BRANCH  15  18
ATOM     18  C   LIG    1       -2.599   1.202  -3.076  0.00  0.00    +0.125 A 
ATOM     19  C   LIG    1       -2.316   0.818  -4.383  0.00  0.00    +0.044 A 
ATOM     20  C   LIG    1       -3.110   1.293  -5.411  0.00  0.00    +0.005 A 
ATOM     21  C   LIG    1       -4.164   2.140  -5.096  0.00  0.00    +0.020 A 
ATOM     22  C   LIG    1       -4.388   2.480  -3.777  0.00  0.00    +0.113 A 
ATOM     23  N   LIG    1       -3.616   2.007  -2.816  0.00  0.00    -0.240 NA
ENDBRANCH  15  18
ENDBRANCH   3  14
BRANCH   4  24
ATOM     24  O   LIG    1       -0.712  -3.016  -1.972  0.00  0.00    -0.504 OA
ATOM     25  H   LIG    1       -1.203  -2.623  -2.666  0.00  0.00    +0.292 HD
ENDBRANCH   4  24
TORSDOF 3
