REMARK  Name = ZINC14979641
REMARK                            x       y       z     vdW  Elec       q    Type
REMARK                         _______ _______ _______ _____ _____    ______ ____
ROOT
ATOM      1  C   LIG    1        2.751  -1.983  -1.217  0.00  0.00    +0.017 C 
ENDROOT
BRANCH   1   2
ATOM      2  C   LIG    1        1.810  -1.793  -0.025  0.00  0.00    +0.055 C 
BRANCH   2   4
ATOM      3  C   LIG    1        0.002  -0.004   0.002  0.00  0.00    +0.133 A 
ATOM      4  C   LIG    1        1.296  -0.376  -0.012  0.00  0.00    +0.035 A 
ATOM      5  N   LIG    1        2.047   0.735  -0.013  0.00  0.00    -0.348 N 
ATOM      6  H   LIG    1        3.047   0.758  -0.023  0.00  0.00    +0.166 HD
ATOM      7  C   LIG    1        1.268   1.782  -0.001  0.00  0.00    +0.196 A 
ATOM      8  N   LIG    1       -0.017   1.365   0.009  0.00  0.00    -0.244 NA
ENDBRANCH   2   4
ENDBRANCH   1   2
BRANCH   1   9
ATOM      9  C   LIG    1        3.273  -3.421  -1.229  0.00  0.00    +0.077 C 
BRANCH   9  10
ATOM     10  S   LIG    1        4.385  -3.647  -2.639  0.00  0.00    -0.091 S 
BRANCH  10  11
ATOM     11  C   LIG    1        4.824  -5.339  -2.415  0.00  0.00    +0.144 C 
ATOM     12  N   LIG    1        4.331  -6.013  -1.413  0.00  0.00    -0.280 NA
ATOM     13  H   LIG    1        4.573  -6.944  -1.290  0.00  0.00    +0.189 HD
BRANCH  11  14
ATOM     14  N   LIG    1        5.687  -5.948  -3.296  0.00  0.00    -0.338 N 
ATOM     15  H   LIG    1        5.928  -6.880  -3.173  0.00  0.00    +0.144 HD
ATOM     16  H   LIG    1        6.053  -5.447  -4.041  0.00  0.00    +0.144 HD
ENDBRANCH  11  14
ENDBRANCH  10  11
ENDBRANCH   9  10
ENDBRANCH   1   9
TORSDOF 6
