REMARK  Name = ZINC22034381
REMARK                            x       y       z     vdW  Elec       q    Type
REMARK                         _______ _______ _______ _____ _____    ______ ____
ROOT
ATOM      1  N   LIG    1        0.117   1.011   6.956  0.00  0.00    -0.298 NA
ATOM      2  C   LIG    1       -1.212   0.521   6.568  0.00  0.00    +0.066 C 
ATOM      3  C   LIG    1       -1.518  -0.771   7.329  0.00  0.00    -0.063 C 
ATOM      4  N   LIG    1       -1.475  -0.510   8.774  0.00  0.00    +0.381 N 
ATOM      5  H   LIG    1       -2.155   0.198   9.008  0.00  0.00    -0.082 HD
ATOM      6  C   LIG    1       -0.134  -0.044   9.150  0.00  0.00    -0.063 C 
ATOM      7  C   LIG    1        0.183   1.254   8.404  0.00  0.00    +0.066 C 
ENDROOT
BRANCH   1   8
ATOM      8  C   LIG    1        0.472   2.222   6.203  0.00  0.00    +0.180 C 
BRANCH   8  11
ATOM      9  N   LIG    1        0.961   2.838   3.858  0.00  0.00    -0.284 N 
ATOM     10  H   LIG    1        1.040   3.760   4.149  0.00  0.00    +0.155 HD
ATOM     11  C   LIG    1        0.634   1.878   4.745  0.00  0.00    +0.231 C 
ATOM     12  O   LIG    1        0.470   0.736   4.370  0.00  0.00    -0.274 OA
BRANCH   9  20
ATOM     13  C   LIG    1        2.888   0.827   3.276  0.00  0.00    +0.045 C 
ATOM     14  C   LIG    1        2.116   1.530   2.188  0.00  0.00    -0.029 A 
ATOM     15  C   LIG    1        2.330   1.199   0.865  0.00  0.00    +0.005 A 
ATOM     16  C   LIG    1        1.623   1.844  -0.134  0.00  0.00    +0.001 A 
ATOM     17  C   LIG    1        0.699   2.820   0.190  0.00  0.00    +0.005 A 
ATOM     18  C   LIG    1        0.479   3.155   1.512  0.00  0.00    -0.029 A 
ATOM     19  C   LIG    1       -0.528   4.219   1.864  0.00  0.00    +0.045 C 
ATOM     20  C   LIG    1        1.184   2.506   2.517  0.00  0.00    +0.039 A 
ENDBRANCH   9  20
ENDBRANCH   8  11
ENDBRANCH   1   8
BRANCH   4  21
ATOM     21  C   LIG    1       -1.786  -1.747   9.504  0.00  0.00    -0.079 C 
BRANCH  21  22
ATOM     22  C   LIG    1       -1.865  -1.448  11.002  0.00  0.00    -0.018 C 
BRANCH  22  23
ATOM     23  C   LIG    1       -2.189  -2.736  11.763  0.00  0.00    +0.011 C 
BRANCH  23  24
ATOM     24  C   LIG    1       -2.267  -2.437  13.261  0.00  0.00    +0.049 C 
BRANCH  24  25
ATOM     25  C   LIG    1       -2.464  -3.724  14.020  0.00  0.00    -0.040 A 
ATOM     26  C   LIG    1       -3.481  -4.589  13.661  0.00  0.00    +0.007 A 
ATOM     27  C   LIG    1       -3.663  -5.769  14.356  0.00  0.00    +0.038 A 
ATOM     28  C   LIG    1       -2.825  -6.086  15.412  0.00  0.00    +0.123 A 
ATOM     29  F   LIG    1       -3.002  -7.240  16.093  0.00  0.00    -0.205 F 
ATOM     30  C   LIG    1       -1.807  -5.219  15.771  0.00  0.00    +0.038 A 
ATOM     31  C   LIG    1       -1.624  -4.042  15.071  0.00  0.00    +0.007 A 
ENDBRANCH  24  25
BRANCH  24  32
ATOM     32  C   LIG    1       -3.427  -1.513  13.529  0.00  0.00    -0.040 A 
ATOM     33  C   LIG    1       -4.690  -1.838  13.069  0.00  0.00    +0.007 A 
ATOM     34  C   LIG    1       -5.755  -0.992  13.315  0.00  0.00    +0.038 A 
ATOM     35  C   LIG    1       -5.556   0.182  14.022  0.00  0.00    +0.123 A 
ATOM     36  F   LIG    1       -6.596   1.010  14.262  0.00  0.00    -0.205 F 
ATOM     37  C   LIG    1       -4.291   0.506  14.482  0.00  0.00    +0.038 A 
ATOM     38  C   LIG    1       -3.229  -0.344  14.240  0.00  0.00    +0.007 A 
ENDBRANCH  24  32
ENDBRANCH  23  24
ENDBRANCH  22  23
ENDBRANCH  21  22
ENDBRANCH   4  21
TORSDOF 9
