REMARK  Name = ZINC13795220
REMARK                            x       y       z     vdW  Elec       q    Type
REMARK                         _______ _______ _______ _____ _____    ______ ____
ROOT
ATOM      1  C   LIG    1        1.810  -1.793  -0.025  0.00  0.00    +0.069 C 
ENDROOT
BRANCH   1   2
ATOM      2  C   LIG    1        1.296  -0.376  -0.012  0.00  0.00    +0.060 A 
ATOM      3  C   LIG    1        0.002  -0.004   0.002  0.00  0.00    +0.107 A 
ATOM      4  N   LIG    1       -0.017   1.365   0.009  0.00  0.00    -0.351 N 
ATOM      5  C   LIG    1        1.268   1.782  -0.001  0.00  0.00    +0.196 A 
ATOM      6  H   LIG    1       -0.829   1.947   0.020  0.00  0.00    +0.166 HD
ATOM      7  N   LIG    1        2.047   0.735  -0.013  0.00  0.00    -0.241 NA
ENDBRANCH   1   2
BRANCH   1   8
ATOM      8  C   LIG    1        2.751  -1.983  -1.217  0.00  0.00    +0.095 C 
BRANCH   8  10
ATOM      9  C   LIG    1        3.654  -4.471  -1.238  0.00  0.00    -0.102 C 
ATOM     10  C   LIG    1        3.253  -3.367  -1.229  0.00  0.00    -0.102 C 
BRANCH   9  12
ATOM     11  C   LIG    1        2.978  -6.823  -1.370  0.00  0.00    +0.017 C 
ATOM     12  C   LIG    1        4.156  -5.854  -1.251  0.00  0.00    +0.085 C 
ENDBRANCH   9  12
ENDBRANCH   8  10
ENDBRANCH   1   8
TORSDOF 4
