REMARK  Name = ZINC18115268
REMARK                            x       y       z     vdW  Elec       q    Type
REMARK                         _______ _______ _______ _____ _____    ______ ____
ROOT
ATOM      1  C   LIG    1        1.400   0.468  -4.902  0.00  0.00    +0.106 C 
ENDROOT
BRANCH   1   2
ATOM      2  S   LIG    1        1.517  -0.106  -3.186  0.00  0.00    -0.151 S 
BRANCH   2   3
ATOM      3  C   LIG    1       -0.211  -0.257  -2.654  0.00  0.00    +0.124 C 
BRANCH   3   6
ATOM      4  C   LIG    1       -0.231   1.557  -0.103  0.00  0.00    +0.065 C 
ATOM      5  C   LIG    1       -0.265   0.051  -0.130  0.00  0.00    +0.034 A 
ATOM      6  C   LIG    1       -0.257  -0.733  -1.225  0.00  0.00    +0.046 A 
ATOM      7  N   LIG    1       -0.297  -2.011  -0.821  0.00  0.00    -0.349 N 
ATOM      8  H   LIG    1       -0.301  -2.785  -1.406  0.00  0.00    +0.166 HD
ATOM      9  C   LIG    1       -0.330  -2.050   0.483  0.00  0.00    +0.171 A 
ATOM     10  N   LIG    1       -0.306  -0.784   0.954  0.00  0.00    -0.350 N 
ATOM     11  H   LIG    1       -0.317  -0.517   1.886  0.00  0.00    +0.166 HD
ENDBRANCH   3   6
ENDBRANCH   2   3
ENDBRANCH   1   2
BRANCH   1  12
ATOM     12  C   LIG    1        2.806   0.639  -5.480  0.00  0.00    +0.206 C 
BRANCH  12  13
ATOM     13  N   LIG    1        2.712   1.103  -6.866  0.00  0.00    -0.274 N 
ATOM     14  H   LIG    1        1.842   1.251  -7.270  0.00  0.00    +0.258 HD
BRANCH  13  15
ATOM     15  C   LIG    1        3.848   1.327  -7.591  0.00  0.00    +0.397 C 
ATOM     16  N   LIG    1        3.763   1.745  -8.841  0.00  0.00    +0.010 NA
BRANCH  15  17
ATOM     17  N   LIG    1        5.072   1.119  -7.022  0.00  0.00    -0.278 N 
ATOM     18  H   LIG    1        5.135   0.752  -6.127  0.00  0.00    +0.258 HD
ATOM     19  C   LIG    1        6.291   1.448  -7.766  0.00  0.00    +0.239 C 
ENDBRANCH  15  17
BRANCH  16  20
ATOM     20  C   LIG    1        4.883   2.100  -9.515  0.00  0.00    +0.295 C 
ATOM     21  N   LIG    1        5.823   2.397 -10.080  0.00  0.00    -0.151 NA
ENDBRANCH  16  20
ENDBRANCH  13  15
ENDBRANCH  12  13
ENDBRANCH   1  12
TORSDOF 8
