REMARK  Name = ZINC20246686
REMARK                            x       y       z     vdW  Elec       q    Type
REMARK                         _______ _______ _______ _____ _____    ______ ____
ROOT
ATOM      1  C   LIG    1       -0.751   1.589   1.226  0.00  0.00    +0.100 C 
ATOM      2  C   LIG    1       -1.807   2.304   0.774  0.00  0.00    +0.191 C 
ATOM      3  C   LIG    1       -1.801   2.299  -0.705  0.00  0.00    +0.282 C 
ATOM      4  N   LIG    1       -0.752   1.587  -1.156  0.00  0.00    -0.286 N 
ATOM      5  O   LIG    1       -2.622   2.854  -1.408  0.00  0.00    -0.267 OA
ATOM      6  C   LIG    1       -0.013   1.086   0.008  0.00  0.00    +0.154 C 
ENDROOT
BRANCH   1   7
ATOM      7  C   LIG    1       -0.393   1.347   2.627  0.00  0.00    +0.340 C 
ATOM      8  O   LIG    1       -1.076   1.812   3.519  0.00  0.00    -0.245 OA
BRANCH   7   9
ATOM      9  O   LIG    1        0.695   0.609   2.927  0.00  0.00    -0.462 OA
BRANCH   9  11
ATOM     10  C   LIG    1        2.250  -0.445   4.477  0.00  0.00    +0.048 C 
ATOM     11  C   LIG    1        0.990   0.410   4.335  0.00  0.00    +0.229 C 
ENDBRANCH   9  11
ENDBRANCH   7   9
ENDBRANCH   1   7
BRANCH   2  12
ATOM     12  O   LIG    1       -2.724   2.925   1.552  0.00  0.00    -0.502 OA
ATOM     13  H   LIG    1       -2.654   2.879   2.485  0.00  0.00    +0.292 HD
ENDBRANCH   2  12
BRANCH   4  14
ATOM     14  C   LIG    1       -0.409   1.354  -2.561  0.00  0.00    +0.150 C 
BRANCH  14  15
ATOM     15  C   LIG    1       -1.089   0.098  -3.043  0.00  0.00    +0.007 A 
ATOM     16  C   LIG    1       -2.312  -0.048  -3.608  0.00  0.00    +0.013 A 
ATOM     17  C   LIG    1       -2.733  -1.311  -3.979  0.00  0.00    +0.008 A 
ATOM     18  C   LIG    1       -1.915  -2.368  -3.757  0.00  0.00    +0.045 A 
ATOM     19  S   LIG    1       -0.495  -1.586  -3.009  0.00  0.00    -0.100 S 
ENDBRANCH  14  15
ENDBRANCH   4  14
TORSDOF 6
