REMARK  Name = ZINC22204868
REMARK                            x       y       z     vdW  Elec       q    Type
REMARK                         _______ _______ _______ _____ _____    ______ ____
ROOT
ATOM      1  N   LIG    1       -5.164   3.816  -0.839  0.00  0.00    -0.224 N 
ATOM      2  C   LIG    1       -4.195   4.340  -0.061  0.00  0.00    +0.244 C 
ATOM      3  C   LIG    1       -3.435   3.158   0.506  0.00  0.00    +0.169 C 
ATOM      4  C   LIG    1       -1.983   3.196   0.015  0.00  0.00    +0.069 C 
ATOM      5  C   LIG    1       -1.417   1.798   0.019  0.00  0.00    -0.015 A 
ATOM      6  C   LIG    1       -0.017   1.414   0.010  0.00  0.00    +0.003 A 
ATOM      7  C   LIG    1        1.167   2.157   0.003  0.00  0.00    +0.010 A 
ATOM      8  C   LIG    1        2.343   1.449  -0.015  0.00  0.00    +0.001 A 
ATOM      9  C   LIG    1        2.368   0.064  -0.024  0.00  0.00    +0.002 A 
ATOM     10  C   LIG    1        1.211  -0.696  -0.015  0.00  0.00    +0.026 A 
ATOM     11  C   LIG    1        0.002  -0.004   0.002  0.00  0.00    +0.047 A 
ATOM     12  N   LIG    1       -1.296  -0.427   0.013  0.00  0.00    -0.356 N 
ATOM     13  H   LIG    1       -1.523  -1.504   0.009  0.00  0.00    +0.166 HD
ATOM     14  C   LIG    1       -2.134   0.655   0.029  0.00  0.00    +0.046 A 
ATOM     15  C   LIG    1       -3.649   0.615   0.058  0.00  0.00    +0.155 C 
ATOM     16  N   LIG    1       -4.101   2.000  -0.130  0.00  0.00    -0.261 N 
ATOM     17  O   LIG    1       -3.977   5.515   0.143  0.00  0.00    -0.273 OA
ATOM     18  C   LIG    1       -5.112   2.476  -0.860  0.00  0.00    +0.313 C 
ATOM     19  O   LIG    1       -5.894   1.777  -1.474  0.00  0.00    -0.252 OA
ENDROOT
BRANCH  15  20
ATOM     20  C   LIG    1       -4.166  -0.245  -1.066  0.00  0.00    -0.021 A 
ATOM     21  C   LIG    1       -4.251   0.270  -2.346  0.00  0.00    +0.009 A 
ATOM     22  C   LIG    1       -4.719  -0.518  -3.380  0.00  0.00    +0.046 A 
ATOM     23  C   LIG    1       -5.114  -1.824  -3.130  0.00  0.00    +0.120 A 
ATOM     24  C   LIG    1       -5.033  -2.337  -1.844  0.00  0.00    +0.046 A 
ATOM     25  C   LIG    1       -4.559  -1.547  -0.815  0.00  0.00    +0.009 A 
BRANCH  23  26
ATOM     26  O   LIG    1       -5.581  -2.600  -4.144  0.00  0.00    -0.495 OA
ATOM     27  C   LIG    1       -5.637  -2.006  -5.442  0.00  0.00    +0.277 C 
ENDBRANCH  23  26
ENDBRANCH  15  20
BRANCH   1  28
ATOM     28  C   LIG    1       -6.153   4.612  -1.569  0.00  0.00    +0.118 C 
BRANCH  28  29
ATOM     29  C   LIG    1       -7.382   4.836  -0.685  0.00  0.00    +0.019 C 
BRANCH  29  31
ATOM     30  C   LIG    1       -9.643   5.892  -0.563  0.00  0.00    +0.004 C 
ATOM     31  C   LIG    1       -8.415   5.668  -1.448  0.00  0.00    -0.002 C 
ENDBRANCH  29  31
ENDBRANCH  28  29
ENDBRANCH   1  28
TORSDOF 5
