REMARK  Name = ZINC49067657
REMARK                            x       y       z     vdW  Elec       q    Type
REMARK                         _______ _______ _______ _____ _____    ______ ____
ROOT
ATOM      1  C   LIG    1        4.230  -1.649  -0.046  0.00  0.00    +0.238 A 
ATOM      2  N   LIG    1        3.379  -2.663  -0.049  0.00  0.00    -0.218 NA
ATOM      3  C   LIG    1        3.809  -3.917  -0.060  0.00  0.00    +0.144 A 
ATOM      4  C   LIG    1        5.173  -4.154  -0.069  0.00  0.00    +0.105 A 
ATOM      5  C   LIG    1        6.047  -3.059  -0.066  0.00  0.00    +0.167 A 
ATOM      6  N   LIG    1        7.330  -3.572  -0.076  0.00  0.00    -0.273 N 
ATOM      7  C   LIG    1        7.256  -4.917  -0.086  0.00  0.00    +0.329 A 
ATOM      8  O   LIG    1        8.210  -5.671  -0.096  0.00  0.00    -0.246 OA
ATOM      9  N   LIG    1        5.964  -5.300  -0.081  0.00  0.00    -0.303 N 
ATOM     10  H   LIG    1        5.641  -6.214  -0.086  0.00  0.00    +0.171 HD
ATOM     11  N   LIG    1        5.541  -1.833  -0.059  0.00  0.00    -0.192 NA
ENDROOT
BRANCH   1  16
ATOM     12  C   LIG    1       -0.017   1.385   0.010  0.00  0.00    +0.040 A 
ATOM     13  C   LIG    1        1.159   2.100   0.002  0.00  0.00    +0.033 A 
ATOM     14  C   LIG    1        2.382   1.424  -0.013  0.00  0.00    +0.090 A 
ATOM     15  C   LIG    1        2.397   0.019  -0.021  0.00  0.00    +0.079 A 
ATOM     16  N   LIG    1        3.731  -0.348  -0.035  0.00  0.00    -0.267 N 
ATOM     17  C   LIG    1        4.466   0.801  -0.036  0.00  0.00    +0.207 A 
ATOM     18  C   LIG    1        1.203  -0.686  -0.014  0.00  0.00    +0.066 A 
ATOM     19  N   LIG    1        3.678   1.835  -0.023  0.00  0.00    -0.235 NA
ATOM     20  C   LIG    1        0.002  -0.004   0.002  0.00  0.00    +0.125 A 
ATOM     21  F   LIG    1       -1.161  -0.692   0.009  0.00  0.00    -0.205 F 
ENDBRANCH   1  16
BRANCH   6  22
ATOM     22  C   LIG    1        8.565  -2.784  -0.078  0.00  0.00    +0.098 C 
ATOM     23  C   LIG    1        9.384  -3.117  -1.329  0.00  0.00    +0.053 C 
ATOM     24  C   LIG    1       10.707  -2.350  -1.284  0.00  0.00    +0.162 C 
ATOM     25  O   LIG    1       11.412  -2.690  -0.088  0.00  0.00    -0.380 OA
ATOM     26  C   LIG    1       10.716  -2.358   1.115  0.00  0.00    +0.162 C 
ATOM     27  C   LIG    1        9.393  -3.126   1.165  0.00  0.00    +0.053 C 
ENDBRANCH   6  22
TORSDOF 2
