REMARK  Name = ZINC15224796
REMARK                            x       y       z     vdW  Elec       q    Type
REMARK                         _______ _______ _______ _____ _____    ______ ____
ROOT
ATOM      1  C   LIG    1       -0.018   1.479   0.010  0.00  0.00    +0.082 A 
ATOM      2  C   LIG    1       -1.207   2.152   0.019  0.00  0.00    +0.077 A 
ATOM      3  S   LIG    1       -0.630   3.845   0.028  0.00  0.00    -0.059 S 
ATOM      4  C   LIG    1        1.120   3.484   0.010  0.00  0.00    +0.178 A 
ATOM      5  N   LIG    1        1.117   2.163   0.003  0.00  0.00    -0.224 NA
ENDROOT
BRANCH   1   8
ATOM      6  C   LIG    1       -1.170  -2.100   0.001  0.00  0.00    +0.021 A 
ATOM      7  C   LIG    1       -1.194  -0.720   0.015  0.00  0.00    +0.013 A 
ATOM      8  C   LIG    1        0.002  -0.004   0.002  0.00  0.00    +0.019 A 
ATOM      9  C   LIG    1        1.218  -0.688  -0.013  0.00  0.00    +0.052 A 
ATOM     10 CL   LIG    1        2.712   0.196  -0.021  0.00  0.00    -0.083 Cl
ATOM     11  C   LIG    1        1.231  -2.068  -0.020  0.00  0.00    +0.040 A 
ATOM     12  C   LIG    1        0.039  -2.774  -0.013  0.00  0.00    +0.042 A 
ATOM     13 CL   LIG    1        0.062  -4.509  -0.024  0.00  0.00    -0.083 Cl
ENDBRANCH   1   8
BRANCH   4  14
ATOM     14  N   LIG    1        2.196   4.358   0.004  0.00  0.00    -0.215 N 
ATOM     15  H   LIG    1        3.102   4.012  -0.007  0.00  0.00    +0.176 HD
BRANCH  14  16
ATOM     16  N   LIG    1        1.974   5.741   0.013  0.00  0.00    -0.190 NA
ATOM     17  C   LIG    1        2.967   6.548   0.007  0.00  0.00    +0.037 C 
ATOM     18  C   LIG    1        4.433   6.168  -0.002  0.00  0.00    +0.052 C 
ATOM     19  C   LIG    1        5.237   7.484  -0.000  0.00  0.00    +0.006 C 
ATOM     20  C   LIG    1        4.253   8.514   0.610  0.00  0.00    +0.006 C 
ATOM     21  C   LIG    1        2.894   8.065   0.015  0.00  0.00    +0.052 C 
ENDBRANCH  14  16
ENDBRANCH   4  14
TORSDOF 3
