REMARK  Name = ZINC15924299
REMARK                            x       y       z     vdW  Elec       q    Type
REMARK                         _______ _______ _______ _____ _____    ______ ____
ROOT
ATOM      1  C   LIG    1        0.600  -4.848  -1.094  0.00  0.00    +0.393 C 
ATOM      2  N   LIG    1        0.940  -4.170  -2.153  0.00  0.00    -0.129 NA
ATOM      3  H   LIG    1        1.043  -4.622  -3.006  0.00  0.00    +0.306 HD
ENDROOT
BRANCH   1   4
ATOM      4  N   LIG    1        0.353  -4.194   0.091  0.00  0.00    -0.243 N 
ATOM      5  H   LIG    1        0.205  -4.702   0.904  0.00  0.00    +0.265 HD
BRANCH   4  10
ATOM      6  C   LIG    1        0.196   1.475   0.223  0.00  0.00    +0.044 C 
ATOM      7  C   LIG    1        0.238  -0.031   0.188  0.00  0.00    -0.050 A 
ATOM      8  C   LIG    1       -0.234  -0.708  -0.922  0.00  0.00    +0.007 A 
ATOM      9  C   LIG    1       -0.197  -2.088  -0.957  0.00  0.00    +0.042 A 
ATOM     10  C   LIG    1        0.314  -2.796   0.123  0.00  0.00    +0.100 A 
ATOM     11  C   LIG    1        0.787  -2.112   1.236  0.00  0.00    +0.042 A 
ATOM     12  C   LIG    1        0.752  -0.732   1.263  0.00  0.00    +0.007 A 
ENDBRANCH   4  10
ENDBRANCH   1   4
BRANCH   1  13
ATOM     13  N   LIG    1        0.488  -6.221  -1.160  0.00  0.00    -0.186 N 
ATOM     14  H   LIG    1        0.751  -6.691  -1.967  0.00  0.00    +0.271 HD
BRANCH  13  15
ATOM     15  C   LIG    1        0.001  -6.926  -0.079  0.00  0.00    +0.385 C 
ATOM     16  N   LIG    1       -0.478  -6.290   0.951  0.00  0.00    -0.129 NA
ATOM     17  H   LIG    1       -0.820  -6.786   1.711  0.00  0.00    +0.306 HD
BRANCH  15  18
ATOM     18  N   LIG    1        0.021  -8.301  -0.090  0.00  0.00    -0.289 N 
ATOM     19  H   LIG    1       -0.388  -8.797   0.636  0.00  0.00    +0.255 HD
ATOM     20  H   LIG    1        0.445  -8.774  -0.823  0.00  0.00    +0.255 HD
ENDBRANCH  15  18
ENDBRANCH  13  15
ENDBRANCH   1  13
TORSDOF 5
