REMARK  Name = ZINC28565323
REMARK                            x       y       z     vdW  Elec       q    Type
REMARK                         _______ _______ _______ _____ _____    ______ ____
ROOT
ATOM      1  C   LIG    1        3.682  -0.719  -0.079  0.00  0.00    +0.103 A 
ATOM      2  C   LIG    1        3.996  -1.860   0.683  0.00  0.00    +0.055 A 
ATOM      3  C   LIG    1        5.336  -2.173   0.421  0.00  0.00    +0.077 A 
ATOM      4  C   LIG    1        6.186  -3.189   0.887  0.00  0.00    +0.028 A 
ATOM      5  C   LIG    1        7.473  -3.237   0.442  0.00  0.00    +0.004 A 
ATOM      6  C   LIG    1        7.925  -2.273  -0.472  0.00  0.00    +0.020 A 
ATOM      7  C   LIG    1        7.094  -1.302  -0.908  0.00  0.00    +0.113 A 
ATOM      8  N   LIG    1        5.802  -1.242  -0.471  0.00  0.00    -0.239 N 
ATOM      9  N   LIG    1        4.753  -0.362  -0.763  0.00  0.00    -0.166 NA
ENDROOT
BRANCH   2  10
ATOM     10  C   LIG    1        3.083  -2.591   1.589  0.00  0.00    +0.098 A 
ATOM     11  C   LIG    1        3.504  -2.938   2.873  0.00  0.00    +0.045 A 
ATOM     12  C   LIG    1        2.598  -3.626   3.681  0.00  0.00    +0.064 A 
ATOM     13  C   LIG    1        2.623  -4.162   5.040  0.00  0.00    +0.147 A 
ATOM     14  N   LIG    1        1.462  -4.719   5.266  0.00  0.00    -0.157 NA
ATOM     15  N   LIG    1        0.643  -4.595   4.140  0.00  0.00    -0.257 N 
ATOM     16  H   LIG    1       -0.265  -4.929   4.067  0.00  0.00    +0.191 HD
ATOM     17  C   LIG    1        1.321  -3.928   3.156  0.00  0.00    +0.180 A 
ATOM     18  N   LIG    1        1.022  -3.551   1.920  0.00  0.00    -0.129 NA
ATOM     19  N   LIG    1        1.857  -2.913   1.182  0.00  0.00    -0.147 NA
BRANCH  13  20
ATOM     20  N   LIG    1        3.694  -4.093   5.935  0.00  0.00    -0.341 N 
ATOM     21  H   LIG    1        3.612  -4.481   6.820  0.00  0.00    +0.144 HD
ATOM     22  H   LIG    1        4.519  -3.657   5.671  0.00  0.00    +0.144 HD
ENDBRANCH  13  20
ENDBRANCH   2  10
BRANCH   1  26
ATOM     23  C   LIG    1       -0.090   1.240  -0.176  0.00  0.00    +0.000 A 
ATOM     24  C   LIG    1        0.422   0.792   1.027  0.00  0.00    +0.001 A 
ATOM     25  C   LIG    1        1.646   0.155   1.065  0.00  0.00    +0.010 A 
ATOM     26  C   LIG    1        2.366  -0.036  -0.113  0.00  0.00    +0.003 A 
ATOM     27  C   LIG    1        1.844   0.418  -1.323  0.00  0.00    +0.010 A 
ATOM     28  C   LIG    1        0.620   1.054  -1.349  0.00  0.00    +0.001 A 
ENDBRANCH   1  26
TORSDOF 3
