REMARK  Name = ZINC15869361
REMARK                            x       y       z     vdW  Elec       q    Type
REMARK                         _______ _______ _______ _____ _____    ______ ____
ROOT
ATOM      1  C   LIG    1       -0.018   1.461   0.010  0.00  0.00    +0.155 C 
ATOM      2  N   LIG    1        0.002  -0.004   0.002  0.00  0.00    -0.279 N 
ATOM      3  C   LIG    1       -1.187  -0.713   0.004  0.00  0.00    +0.170 A 
ATOM      4  C   LIG    1       -1.142  -2.126  -0.005  0.00  0.00    +0.168 A 
ATOM      5  C   LIG    1        0.103  -2.761  -0.014  0.00  0.00    +0.226 A 
ATOM      6  N   LIG    1        1.236  -2.004  -0.016  0.00  0.00    -0.266 N 
ATOM      7  C   LIG    1        2.543  -2.666  -0.026  0.00  0.00    +0.157 C 
ATOM      8  N   LIG    1       -2.420  -2.551   0.000  0.00  0.00    -0.219 NA
ATOM      9  C   LIG    1       -3.205  -1.489   0.010  0.00  0.00    +0.163 A 
ATOM     10  N   LIG    1       -2.463  -0.374   0.013  0.00  0.00    -0.208 NA
ATOM     11  C   LIG    1        1.177  -0.661  -0.013  0.00  0.00    +0.333 A 
ATOM     12  O   LIG    1        2.213  -0.023  -0.019  0.00  0.00    -0.246 OA
ENDROOT
BRANCH   9  13
ATOM     13  C   LIG    1       -4.686  -1.525   0.019  0.00  0.00    +0.019 A 
ATOM     14  C   LIG    1       -5.415  -0.336   0.024  0.00  0.00    +0.015 A 
ATOM     15  C   LIG    1       -6.793  -0.373   0.032  0.00  0.00    +0.046 A 
ATOM     16  C   LIG    1       -7.456  -1.594   0.033  0.00  0.00    +0.120 A 
ATOM     17  C   LIG    1       -6.733  -2.780   0.029  0.00  0.00    +0.046 A 
ATOM     18  C   LIG    1       -5.355  -2.749   0.015  0.00  0.00    +0.015 A 
BRANCH  16  19
ATOM     19  O   LIG    1       -8.814  -1.627   0.041  0.00  0.00    -0.495 OA
ATOM     20  C   LIG    1       -9.431  -2.916   0.042  0.00  0.00    +0.277 C 
ENDBRANCH  16  19
ENDBRANCH   9  13
BRANCH   5  21
ATOM     21  O   LIG    1        0.182  -4.104  -0.023  0.00  0.00    -0.492 OA
ATOM     22  H   LIG    1       -0.601  -4.619  -0.022  0.00  0.00    +0.294 HD
ENDBRANCH   5  21
TORSDOF 3
