REMARK  Name = ZINC24987226
REMARK                            x       y       z     vdW  Elec       q    Type
REMARK                         _______ _______ _______ _____ _____    ______ ____
ROOT
ATOM      1  C   LIG    1       -1.416  -2.058  -0.121  0.00  0.00    +0.015 C 
ENDROOT
BRANCH   1   2
ATOM      2  N   LIG    1       -0.875  -2.427  -1.436  0.00  0.00    +0.386 N 
ATOM      3  H   LIG    1        0.065  -2.071  -1.526  0.00  0.00    -0.089 HD
ATOM      4  H   LIG    1       -1.455  -2.033  -2.161  0.00  0.00    -0.089 HD
ATOM      5  H   LIG    1       -0.863  -3.432  -1.524  0.00  0.00    -0.089 HD
ENDBRANCH   1   2
BRANCH   1   6
ATOM      6  C   LIG    1       -2.819  -2.590   0.013  0.00  0.00    +0.221 C 
ATOM      7  N   LIG    1       -3.370  -2.737   1.234  0.00  0.00    -0.199 N 
ATOM      8  H   LIG    1       -2.864  -2.501   2.026  0.00  0.00    +0.182 HD
ATOM      9  O   LIG    1       -3.453  -2.886  -0.979  0.00  0.00    -0.276 OA
BRANCH   7  10
ATOM     10  O   LIG    1       -4.689  -3.238   1.359  0.00  0.00    -0.295 OA
ATOM     11  H   LIG    1       -4.998  -3.308   2.273  0.00  0.00    +0.241 HD
ENDBRANCH   7  10
ENDBRANCH   1   6
BRANCH   1  12
ATOM     12  C   LIG    1       -1.433  -0.534   0.013  0.00  0.00    -0.004 C 
BRANCH  12  14
ATOM     13  C   LIG    1       -0.019   1.526   0.010  0.00  0.00    +0.007 C 
ATOM     14  C   LIG    1        0.002  -0.004   0.002  0.00  0.00    -0.018 C 
ATOM     15  C   LIG    1        0.742  -0.511   1.242  0.00  0.00    +0.007 C 
ENDBRANCH  12  14
ENDBRANCH   1  12
TORSDOF 5
