REMARK  Name = ZINC19868053
REMARK                            x       y       z     vdW  Elec       q    Type
REMARK                         _______ _______ _______ _____ _____    ______ ____
ROOT
ATOM      1  N   LIG    1        0.503   4.059  -1.041  0.00  0.00    -0.300 NA
ATOM      2  C   LIG    1        1.284   3.537   0.089  0.00  0.00    +0.100 C 
ATOM      3  C   LIG    1        1.347   2.010   0.000  0.00  0.00    +0.100 C 
ATOM      4  N   LIG    1       -0.018   1.465   0.010  0.00  0.00    -0.296 NA
ATOM      5  C   LIG    1       -0.799   1.987  -1.120  0.00  0.00    +0.100 C 
ATOM      6  C   LIG    1       -0.862   3.514  -1.031  0.00  0.00    +0.100 C 
ENDROOT
BRANCH   1   7
ATOM      7  C   LIG    1        0.483   5.528  -1.033  0.00  0.00    +0.085 C 
BRANCH   7   8
ATOM      8  C   LIG    1       -0.119   6.037  -2.344  0.00  0.00    +0.020 C 
BRANCH   8   9
ATOM      9  C   LIG    1       -0.139   7.567  -2.336  0.00  0.00    +0.036 C 
BRANCH   9  13
ATOM     10  C   LIG    1       -1.819   8.989  -5.997  0.00  0.00    +0.000 A 
ATOM     11  C   LIG    1       -2.638   8.741  -4.911  0.00  0.00    +0.000 A 
ATOM     12  C   LIG    1       -2.094   8.281  -3.726  0.00  0.00    +0.003 A 
ATOM     13  C   LIG    1       -0.732   8.068  -3.627  0.00  0.00    -0.047 A 
ATOM     14  C   LIG    1        0.088   8.321  -4.712  0.00  0.00    +0.003 A 
ATOM     15  C   LIG    1       -0.456   8.777  -5.898  0.00  0.00    +0.000 A 
ENDBRANCH   9  13
ENDBRANCH   8   9
ENDBRANCH   7   8
ENDBRANCH   1   7
BRANCH   4  16
ATOM     16  C   LIG    1        0.002  -0.004   0.002  0.00  0.00    +0.119 C 
BRANCH  16  17
ATOM     17  C   LIG    1       -1.388  -0.527   0.259  0.00  0.00    -0.031 A 
ATOM     18  C   LIG    1       -1.804  -0.775   1.554  0.00  0.00    +0.005 A 
ATOM     19  C   LIG    1       -3.080  -1.251   1.790  0.00  0.00    +0.003 A 
ATOM     20  C   LIG    1       -3.937  -1.486   0.731  0.00  0.00    +0.032 A 
ATOM     21  C   LIG    1       -3.519  -1.242  -0.564  0.00  0.00    +0.122 A 
ATOM     22  C   LIG    1       -2.244  -0.763  -0.800  0.00  0.00    +0.037 A 
BRANCH  21  23
ATOM     23  N   LIG    1       -4.437  -1.495  -1.698  0.00  0.00    +0.006 N 
ATOM     24  O   LIG    1       -4.068  -1.280  -2.838  0.00  0.00    -0.130 OA
BRANCH  23  25
ATOM     25  O   LIG    1       -5.560  -1.917  -1.490  0.00  0.00    -0.396 OA
ATOM     26  H   LIG    1       -5.843  -2.082  -0.612  0.00  0.00    +0.329 HD
ENDBRANCH  23  25
ENDBRANCH  21  23
ENDBRANCH  16  17
ENDBRANCH   4  16
TORSDOF 8
