REMARK  Name = ZINC58511927
REMARK                            x       y       z     vdW  Elec       q    Type
REMARK                         _______ _______ _______ _____ _____    ______ ____
ROOT
ATOM      1  C   LIG    1       -0.018   1.503   0.010  0.00  0.00    +0.066 C 
ATOM      2  C   LIG    1        0.002  -0.004   0.002  0.00  0.00    +0.044 A 
ATOM      3  C   LIG    1        0.006  -0.696  -1.195  0.00  0.00    +0.051 A 
ATOM      4  C   LIG    1        0.025  -2.096  -1.156  0.00  0.00    +0.069 A 
ATOM      5  N   LIG    1        0.039  -2.708   0.030  0.00  0.00    -0.215 NA
ATOM      6  C   LIG    1        0.035  -2.005   1.151  0.00  0.00    +0.213 A 
ATOM      7  N   LIG    1        0.022  -0.679   1.141  0.00  0.00    -0.220 NA
ENDROOT
BRANCH   6   8
ATOM      8  N   LIG    1        0.049  -2.670   2.364  0.00  0.00    -0.327 N 
ATOM      9  H   LIG    1        0.046  -2.166   3.193  0.00  0.00    +0.145 HD
ATOM     10  H   LIG    1        0.062  -3.639   2.386  0.00  0.00    +0.145 HD
ENDBRANCH   6   8
BRANCH   4  11
ATOM     11  C   LIG    1        0.029  -2.880  -2.402  0.00  0.00    +0.028 C 
ATOM     12  C   LIG    1        0.048  -4.223  -2.352  0.00  0.00    +0.010 C 
BRANCH  12  13
ATOM     13  C   LIG    1        0.052  -5.007  -3.599  0.00  0.00    -0.025 A 
ATOM     14  C   LIG    1        0.043  -4.358  -4.837  0.00  0.00    +0.008 A 
ATOM     15  C   LIG    1        0.047  -5.098  -6.000  0.00  0.00    +0.001 A 
ATOM     16  C   LIG    1        0.060  -6.481  -5.944  0.00  0.00    +0.000 A 
ATOM     17  C   LIG    1        0.069  -7.131  -4.722  0.00  0.00    +0.001 A 
ATOM     18  C   LIG    1        0.071  -6.403  -3.550  0.00  0.00    +0.008 A 
ENDBRANCH  12  13
ENDBRANCH   4  11
TORSDOF 3
