REMARK  Name = ZINC28233945
REMARK                            x       y       z     vdW  Elec       q    Type
REMARK                         _______ _______ _______ _____ _____    ______ ____
ROOT
ATOM      1  C   LIG    1       -0.152   5.629   0.178  0.00  0.00    -0.095 C 
ATOM      2  N   LIG    1       -1.510   5.085   0.044  0.00  0.00    +0.384 N 
ATOM      3  H   LIG    1       -1.913   5.419  -0.923  0.00  0.00    -0.081 HD
ENDROOT
BRANCH   2   4
ATOM      4  C   LIG    1       -1.490   3.616   0.041  0.00  0.00    -0.039 C 
ATOM      5  C   LIG    1       -0.454   3.121  -0.970  0.00  0.00    -0.013 C 
ATOM      6  C   LIG    1       -0.434   1.591  -0.972  0.00  0.00    -0.001 C 
ATOM      7  C   LIG    1       -1.817   1.064  -1.360  0.00  0.00    +0.002 C 
ATOM      8  C   LIG    1       -2.853   1.558  -0.348  0.00  0.00    +0.030 C 
ATOM      9  C   LIG    1       -2.873   3.088  -0.346  0.00  0.00    +0.101 C 
BRANCH   9  10
ATOM     10  O   LIG    1       -3.216   3.562  -1.650  0.00  0.00    -0.393 OA
ATOM     11  H   LIG    1       -4.180   3.284  -2.100  0.00  0.00    +0.210 HD
ENDBRANCH   9  10
ENDBRANCH   2   4
BRANCH   2  12
ATOM     12  C   LIG    1       -2.389   5.598   1.102  0.00  0.00    -0.043 C 
BRANCH  12  13
ATOM     13  C   LIG    1       -2.579   7.082   0.923  0.00  0.00    -0.064 A 
ATOM     14  C   LIG    1       -1.715   7.968   1.538  0.00  0.00    +0.002 A 
ATOM     15  C   LIG    1       -1.886   9.330   1.370  0.00  0.00    +0.000 A 
ATOM     16  C   LIG    1       -2.926   9.805   0.594  0.00  0.00    +0.000 A 
ATOM     17  C   LIG    1       -3.793   8.919  -0.018  0.00  0.00    +0.000 A 
ATOM     18  C   LIG    1       -3.619   7.557   0.147  0.00  0.00    +0.002 A 
ENDBRANCH  12  13
ENDBRANCH   2  12
TORSDOF 4
