REMARK  Name = ZINC00004140
REMARK                            x       y       z     vdW  Elec       q    Type
REMARK                         _______ _______ _______ _____ _____    ______ ____
ROOT
ATOM      1  C   LIG    1       -0.769   1.601  -1.218  0.00  0.00    +0.043 C 
ATOM      2  C   LIG    1       -0.013   1.086   0.008  0.00  0.00    +0.141 C 
ATOM      3  C   LIG    1       -0.683   1.584   1.274  0.00  0.00    -0.046 C 
ATOM      4  C   LIG    1        0.396   2.377   2.003  0.00  0.00    +0.067 C 
ATOM      5  C   LIG    1        1.691   1.826   1.370  0.00  0.00    +0.071 C 
ATOM      6  C   LIG    1        2.807   2.859   1.466  0.00  0.00    +0.017 C 
ATOM      7  C   LIG    1        4.091   2.276   0.870  0.00  0.00    -0.076 C 
ATOM      8  N   LIG    1        4.451   1.051   1.616  0.00  0.00    +0.378 N 
ATOM      9  H   LIG    1        4.523   1.278   2.615  0.00  0.00    -0.082 HD
ATOM     10  C   LIG    1        5.754   0.538   1.146  0.00  0.00    -0.096 C 
ATOM     11  C   LIG    1        3.407   0.019   1.433  0.00  0.00    -0.076 C 
ATOM     12  C   LIG    1        2.099   0.524   2.049  0.00  0.00    +0.017 C 
ATOM     13  C   LIG    1       -1.919   1.378   1.658  0.00  0.00    +0.010 C 
ATOM     14  O   LIG    1        1.334   1.592  -0.002  0.00  0.00    -0.366 OA
ENDROOT
TORSDOF 0
