REMARK  Name = ZINC21288966
REMARK                            x       y       z     vdW  Elec       q    Type
REMARK                         _______ _______ _______ _____ _____    ______ ____
ROOT
ATOM      1  C   LIG    1        5.513   3.905   1.881  0.00  0.00    +0.043 A 
ATOM      2  C   LIG    1        6.802   4.395   1.732  0.00  0.00    +0.127 A 
ATOM      3  C   LIG    1        7.068   5.430   0.843  0.00  0.00    +0.092 A 
ATOM      4  C   LIG    1        6.045   5.984   0.096  0.00  0.00    +0.135 A 
ATOM      5  C   LIG    1        4.741   5.494   0.241  0.00  0.00    +0.106 A 
ATOM      6  C   LIG    1        3.623   6.055  -0.535  0.00  0.00    +0.197 A 
ATOM      7  O   LIG    1        3.795   6.964  -1.330  0.00  0.00    -0.287 OA
ATOM      8  C   LIG    1        2.339   5.493  -0.328  0.00  0.00    +0.098 A 
ATOM      9  C   LIG    1        2.187   4.484   0.571  0.00  0.00    +0.141 A 
ATOM     10  O   LIG    1        3.215   3.981   1.273  0.00  0.00    -0.454 OA
ATOM     11  C   LIG    1        4.475   4.447   1.141  0.00  0.00    +0.150 A 
ENDROOT
BRANCH   1  17
ATOM     12  C   LIG    1        6.090  -0.024   5.962  0.00  0.00    -0.096 C 
ATOM     13  N   LIG    1        6.176   1.047   4.960  0.00  0.00    +0.380 N 
ATOM     14  H   LIG    1        7.188   1.474   5.006  0.00  0.00    -0.082 HD
ATOM     15  C   LIG    1        5.974   0.518   3.606  0.00  0.00    -0.078 C 
ATOM     16  C   LIG    1        6.213   1.629   2.580  0.00  0.00    -0.008 C 
ATOM     17  C   LIG    1        5.242   2.782   2.849  0.00  0.00    +0.051 C 
ATOM     18  C   LIG    1        5.439   3.283   4.282  0.00  0.00    +0.106 C 
ATOM     19  C   LIG    1        5.222   2.124   5.257  0.00  0.00    -0.047 C 
BRANCH  18  20
ATOM     20  O   LIG    1        6.767   3.790   4.432  0.00  0.00    -0.393 OA
ATOM     21  H   LIG    1        7.095   4.196   5.401  0.00  0.00    +0.210 HD
ENDBRANCH  18  20
ENDBRANCH   1  17
BRANCH   9  22
ATOM     22  C   LIG    1        0.841   3.915   0.777  0.00  0.00    +0.036 A 
ATOM     23  C   LIG    1        0.648   2.532   0.726  0.00  0.00    +0.013 A 
ATOM     24  C   LIG    1       -0.612   2.007   0.920  0.00  0.00    +0.001 A 
ATOM     25  C   LIG    1       -1.687   2.847   1.160  0.00  0.00    +0.001 A 
ATOM     26  C   LIG    1       -1.504   4.216   1.217  0.00  0.00    +0.021 A 
ATOM     27  C   LIG    1       -0.247   4.757   1.024  0.00  0.00    +0.052 A 
ATOM     28 CL   LIG    1       -0.020   6.476   1.089  0.00  0.00    -0.083 Cl
ENDBRANCH   9  22
BRANCH   2  29
ATOM     29  O   LIG    1        7.813   3.858   2.461  0.00  0.00    -0.506 OA
ATOM     30  H   LIG    1        8.838   4.243   2.347  0.00  0.00    +0.292 HD
ENDBRANCH   2  29
BRANCH   4  31
ATOM     31  O   LIG    1        6.302   6.995  -0.773  0.00  0.00    -0.506 OA
ATOM     32  H   LIG    1        5.486   7.432  -1.366  0.00  0.00    +0.292 HD
ENDBRANCH   4  31
TORSDOF 5
