REMARK  Name = ZINC00002365
REMARK                            x       y       z     vdW  Elec       q    Type
REMARK                         _______ _______ _______ _____ _____    ______ ____
ROOT
ATOM      1  C   LIG    1        0.044   5.263  -0.572  0.00  0.00    -0.095 C 
ATOM      2  N   LIG    1       -0.105   3.938   0.036  0.00  0.00    +0.383 N 
ATOM      3  H   LIG    1       -0.427   4.053   1.005  0.00  0.00    -0.081 HD
ATOM      4  C   LIG    1        1.200   3.248   0.054  0.00  0.00    -0.036 C 
ATOM      5  C   LIG    1        2.155   3.753  -1.027  0.00  0.00    -0.005 C 
ATOM      6  C   LIG    1        3.573   3.231  -0.748  0.00  0.00    +0.043 C 
ATOM      7  C   LIG    1        3.525   1.771  -0.465  0.00  0.00    +0.018 A 
ATOM      8  C   LIG    1        2.423   1.024  -0.112  0.00  0.00    +0.078 A 
ATOM      9  N   LIG    1        2.611  -0.283   0.098  0.00  0.00    -0.225 NA
ATOM     10  C   LIG    1        3.800  -0.844  -0.025  0.00  0.00    +0.156 A 
ATOM     11  S   LIG    1        4.814   0.556  -0.485  0.00  0.00    -0.057 S 
ATOM     12  C   LIG    1        1.116   1.751   0.001  0.00  0.00    -0.039 C 
ATOM     13  C   LIG    1       -0.013   1.076   0.008  0.00  0.00    -0.025 C 
ATOM     14  C   LIG    1       -1.330   1.815   0.018  0.00  0.00    +0.009 C 
ATOM     15  C   LIG    1       -1.120   3.148  -0.708  0.00  0.00    -0.074 C 
ENDROOT
BRANCH  10  16
ATOM     16  N   LIG    1        4.165  -2.168   0.154  0.00  0.00    -0.338 N 
ATOM     17  H   LIG    1        3.498  -2.825   0.407  0.00  0.00    +0.144 HD
ATOM     18  H   LIG    1        5.088  -2.438   0.028  0.00  0.00    +0.144 HD
ENDBRANCH  10  16
TORSDOF 1
