REMARK  Name = ZINC13759785
REMARK                            x       y       z     vdW  Elec       q    Type
REMARK                         _______ _______ _______ _____ _____    ______ ____
ROOT
ATOM      1  C   LIG    1       -1.430   3.559   2.472  0.00  0.00    -0.067 C 
ATOM      2  C   LIG    1       -1.964   4.970   2.200  0.00  0.00    -0.011 C 
ATOM      3  C   LIG    1       -2.866   5.377   3.364  0.00  0.00    +0.037 C 
ATOM      4  C   LIG    1       -2.162   5.165   4.678  0.00  0.00    -0.003 A 
ATOM      5  C   LIG    1       -1.053   4.359   4.804  0.00  0.00    -0.042 A 
ATOM      6  C   LIG    1       -0.459   4.194   6.049  0.00  0.00    +0.004 A 
ATOM      7  C   LIG    1       -0.967   4.835   7.161  0.00  0.00    +0.004 A 
ATOM      8  C   LIG    1       -2.076   5.649   7.039  0.00  0.00    +0.046 A 
ATOM      9  C   LIG    1       -2.673   5.814   5.800  0.00  0.00    +0.124 A 
ATOM     10  C   LIG    1       -0.442   3.633   3.634  0.00  0.00    +0.020 C 
ENDROOT
BRANCH   1  11
ATOM     11  N   LIG    1       -0.745   3.054   1.267  0.00  0.00    +0.381 N 
ATOM     12  H   LIG    1        0.221   3.403   1.256  0.00  0.00    -0.086 HD
ATOM     13  H   LIG    1       -1.239   3.388   0.431  0.00  0.00    -0.086 HD
BRANCH  11  15
ATOM     14  C   LIG    1       -0.013   1.086   0.008  0.00  0.00    -0.017 C 
ATOM     15  C   LIG    1       -0.729   1.579   1.267  0.00  0.00    -0.086 C 
ENDBRANCH  11  15
ENDBRANCH   1  11
BRANCH   9  16
ATOM     16  O   LIG    1       -3.764   6.615   5.678  0.00  0.00    -0.495 OA
ATOM     17  C   LIG    1       -4.237   7.252   6.867  0.00  0.00    +0.277 C 
ENDBRANCH   9  16
TORSDOF 3
