REMARK  Name = ZINC30691809
REMARK                            x       y       z     vdW  Elec       q    Type
REMARK                         _______ _______ _______ _____ _____    ______ ____
ROOT
ATOM      1  C   LIG    1        1.441   6.144   4.276  0.00  0.00    +0.135 C 
ENDROOT
BRANCH   1   2
ATOM      2  O   LIG    1        0.177   6.793   4.431  0.00  0.00    -0.390 OA
ATOM      3  H   LIG    1       -0.607   6.329   5.048  0.00  0.00    +0.210 HD
ENDBRANCH   1   2
BRANCH   1   4
ATOM      4  C   LIG    1        2.343   6.993   3.378  0.00  0.00    -0.047 C 
BRANCH   4   5
ATOM      5  N   LIG    1        2.639   8.268   4.046  0.00  0.00    +0.384 N 
ATOM      6  H   LIG    1        1.693   8.793   4.240  0.00  0.00    -0.085 HD
ATOM      7  H   LIG    1        3.144   8.056   5.001  0.00  0.00    -0.085 HD
BRANCH   5   9
ATOM      8  C   LIG    1        4.822   8.380   2.942  0.00  0.00    -0.010 C 
ATOM      9  C   LIG    1        3.505   9.111   3.211  0.00  0.00    -0.074 C 
ATOM     10  C   LIG    1        2.804   9.405   1.884  0.00  0.00    -0.010 C 
BRANCH   9  11
ATOM     11  C   LIG    1        3.791  10.426   3.939  0.00  0.00    -0.009 C 
BRANCH  11  12
ATOM     12  C   LIG    1        4.446  10.130   5.290  0.00  0.00    -0.004 C 
ATOM     13  C   LIG    1        3.417   9.550   6.283  0.00  0.00    +0.039 C 
ATOM     14  C   LIG    1        3.815  10.114   7.634  0.00  0.00    -0.044 A 
ATOM     15  C   LIG    1        3.466   9.709   8.912  0.00  0.00    +0.004 A 
ATOM     16  C   LIG    1        3.958  10.381  10.013  0.00  0.00    +0.000 A 
ATOM     17  C   LIG    1        4.803  11.462   9.840  0.00  0.00    +0.000 A 
ATOM     18  C   LIG    1        5.152  11.867   8.567  0.00  0.00    +0.004 A 
ATOM     19  C   LIG    1        4.659  11.194   7.462  0.00  0.00    -0.044 A 
ATOM     20  C   LIG    1        4.886  11.436   5.985  0.00  0.00    +0.039 C 
ENDBRANCH  11  12
ENDBRANCH   9  11
ENDBRANCH   5   9
ENDBRANCH   4   5
ENDBRANCH   1   4
BRANCH   1  21
ATOM     21  C   LIG    1        1.234   4.770   3.638  0.00  0.00    +0.258 C 
BRANCH  21  22
ATOM     22  O   LIG    1        0.489   3.938   4.529  0.00  0.00    -0.487 OA
BRANCH  22  23
ATOM     23  C   LIG    1        0.216   2.673   4.110  0.00  0.00    +0.159 A 
ATOM     24  C   LIG    1        0.661   2.241   2.870  0.00  0.00    +0.052 A 
ATOM     25  C   LIG    1        0.380   0.958   2.443  0.00  0.00    -0.041 A 
ATOM     26  C   LIG    1       -0.337   0.098   3.255  0.00  0.00    +0.045 A 
ATOM     27  C   LIG    1       -0.779   0.523   4.496  0.00  0.00    +0.162 A 
ATOM     28  F   LIG    1       -1.480  -0.318   5.288  0.00  0.00    -0.202 F 
ATOM     29  C   LIG    1       -0.503   1.810   4.926  0.00  0.00    +0.200 A 
ATOM     30  F   LIG    1       -0.934   2.226   6.138  0.00  0.00    -0.199 F 
BRANCH  25  31
ATOM     31  C   LIG    1        0.859   0.491   1.092  0.00  0.00    +0.046 C 
BRANCH  31  32
ATOM     32  C   LIG    1       -0.208   0.796   0.039  0.00  0.00    +0.125 C 
BRANCH  32  33
ATOM     33  C   LIG    1        0.272   0.330  -1.311  0.00  0.00    +0.305 C 
ATOM     34  O   LIG    1        1.357  -0.192  -1.420  0.00  0.00    -0.251 OA
BRANCH  33  35
ATOM     35  O   LIG    1       -0.505   0.494  -2.393  0.00  0.00    -0.481 OA
ATOM     36  H   LIG    1       -1.346   0.899  -2.309  0.00  0.00    +0.295 HD
ENDBRANCH  33  35
ENDBRANCH  32  33
ENDBRANCH  31  32
ENDBRANCH  25  31
ENDBRANCH  22  23
ENDBRANCH  21  22
ENDBRANCH   1  21
TORSDOF 13
