REMARK  Name = ZINC29394024
REMARK                            x       y       z     vdW  Elec       q    Type
REMARK                         _______ _______ _______ _____ _____    ______ ____
ROOT
ATOM      1  C   LIG    1       -0.391   2.808  -1.771  0.00  0.00    +0.006 A 
ATOM      2  C   LIG    1       -1.038   3.278  -2.877  0.00  0.00    +0.010 A 
ATOM      3  C   LIG    1       -2.066   2.523  -3.457  0.00  0.00    +0.000 A 
ATOM      4  C   LIG    1       -2.908   2.726  -4.576  0.00  0.00    +0.042 A 
ATOM      5  CA  LIG    1       -3.733   1.650  -4.673  0.00  0.00    +0.125 A 
ATOM      6  N   LIG    1       -3.446   0.765  -3.652  0.00  0.00    -0.349 N 
ATOM      7  H   LIG    1       -4.012  -0.174  -3.561  0.00  0.00    +0.166 HD
ATOM      8  C   LIG    1       -2.423   1.282  -2.892  0.00  0.00    +0.047 A 
ATOM      9  C   LIG    1       -1.745   0.822  -1.767  0.00  0.00    +0.031 A 
ATOM     10  C   LIG    1       -0.742   1.585  -1.213  0.00  0.00    -0.026 A 
ENDROOT
BRANCH   5  11
ATOM     11  C   LIG    1       -4.766   1.459  -5.700  0.00  0.00    +0.353 C 
ATOM     12  O   LIG    1       -4.936   2.305  -6.557  0.00  0.00    -0.243 OA
BRANCH  11  13
ATOM     13  OXT LIG    1       -5.525   0.344  -5.694  0.00  0.00    -0.476 OA
ATOM     14  HXT LIG    1       -5.395  -0.308  -5.034  0.00  0.00    +0.295 HD
ENDBRANCH  11  13
ENDBRANCH   5  11
BRANCH  10  15
ATOM     15  C   LIG    1       -0.013   1.086   0.008  0.00  0.00    +0.158 C 
BRANCH  15  16
ATOM     16  N   LIG    1       -0.698   1.558   1.213  0.00  0.00    -0.332 N 
ATOM     17  C   LIG    1       -0.451   2.726   1.884  0.00  0.00    +0.107 A 
ATOM     18  C   LIG    1       -1.304   2.766   2.925  0.00  0.00    +0.130 A 
ATOM     19  N   LIG    1       -2.046   1.649   2.896  0.00  0.00    -0.244 NA
ATOM     20  C   LIG    1       -1.689   0.920   1.874  0.00  0.00    +0.199 A 
ENDBRANCH  15  16
ENDBRANCH  10  15
TORSDOF 4
