REMARK  Name = ZINC14951658
REMARK                            x       y       z     vdW  Elec       q    Type
REMARK                         _______ _______ _______ _____ _____    ______ ____
ROOT
ATOM      1  C   LIG    1        4.586   2.211   4.232  0.00  0.00    +0.163 C 
ENDROOT
BRANCH   1   4
ATOM      2  N   LIG    1        5.537   0.755   2.473  0.00  0.00    -0.302 N 
ATOM      3  H   LIG    1        5.265   1.419   1.820  0.00  0.00    +0.150 HD
ATOM      4  C   LIG    1        5.288   0.956   3.782  0.00  0.00    +0.234 C 
ATOM      5  O   LIG    1        5.628   0.126   4.599  0.00  0.00    -0.274 OA
BRANCH   2   6
ATOM      6  C   LIG    1        6.219  -0.466   2.036  0.00  0.00    +0.163 C 
BRANCH   6   7
ATOM      7  C   LIG    1        7.710  -0.274   2.143  0.00  0.00    +0.231 C 
ATOM      8  N   LIG    1        8.545  -1.272   1.792  0.00  0.00    -0.328 N 
ATOM      9  H   LIG    1        9.505  -1.148   1.860  0.00  0.00    +0.145 HD
ATOM     10  H   LIG    1        8.186  -2.114   1.471  0.00  0.00    +0.145 HD
ATOM     11  O   LIG    1        8.159   0.779   2.544  0.00  0.00    -0.274 OA
ENDBRANCH   6   7
BRANCH   6  12
ATOM     12  C   LIG    1        5.846  -0.766   0.583  0.00  0.00    +0.067 C 
BRANCH  12  16
ATOM     13  C   LIG    1        1.675  -1.653   0.336  0.00  0.00    +0.000 A 
ATOM     14  C   LIG    1        2.114  -0.350   0.198  0.00  0.00    +0.000 A 
ATOM     15  C   LIG    1        3.464  -0.063   0.278  0.00  0.00    +0.004 A 
ATOM     16  C   LIG    1        4.375  -1.079   0.497  0.00  0.00    -0.045 A 
ATOM     17  C   LIG    1        3.936  -2.382   0.636  0.00  0.00    +0.004 A 
ATOM     18  C   LIG    1        2.586  -2.670   0.554  0.00  0.00    +0.000 A 
ENDBRANCH  12  16
ENDBRANCH   6  12
ENDBRANCH   2   6
ENDBRANCH   1   4
BRANCH   1  19
ATOM     19  N   LIG    1        4.435   2.191   5.689  0.00  0.00    -0.302 N 
ATOM     20  H   LIG    1        5.123   2.578   6.253  0.00  0.00    +0.150 HD
ATOM     21  C   LIG    1        3.340   1.636   6.245  0.00  0.00    +0.234 C 
ATOM     22  O   LIG    1        2.438   1.236   5.540  0.00  0.00    -0.274 OA
BRANCH  21  23
ATOM     23  C   LIG    1        3.236   1.514   7.744  0.00  0.00    +0.162 C 
ATOM     24  C   LIG    1        3.918   0.212   8.213  0.00  0.00    +0.033 C 
ATOM     25  C   LIG    1        2.982  -0.282   9.347  0.00  0.00    +0.021 C 
ATOM     26  C   LIG    1        1.592   0.140   8.809  0.00  0.00    +0.108 C 
ATOM     27  N   LIG    1        1.822   1.438   8.142  0.00  0.00    -0.289 N 
ATOM     28  C   LIG    1        0.895   2.393   7.933  0.00  0.00    +0.233 C 
ATOM     29  O   LIG    1        1.180   3.387   7.299  0.00  0.00    -0.274 OA
BRANCH  28  30
ATOM     30  C   LIG    1       -0.497   2.225   8.486  0.00  0.00    +0.142 C 
BRANCH  30  31
ATOM     31  N   LIG    1       -1.157   3.535   8.556  0.00  0.00    -0.320 NA
ATOM     32  H   LIG    1       -1.221   3.958   7.642  0.00  0.00    +0.119 HD
ATOM     33  H   LIG    1       -0.682   4.146   9.204  0.00  0.00    +0.119 HD
ENDBRANCH  30  31
BRANCH  30  34
ATOM     34  C   LIG    1       -1.301   1.297   7.572  0.00  0.00    +0.063 C 
BRANCH  34  35
ATOM     35  C   LIG    1       -2.650   1.032   8.188  0.00  0.00    -0.045 A 
ATOM     36  C   LIG    1       -2.818  -0.039   9.046  0.00  0.00    +0.007 A 
ATOM     37  C   LIG    1       -4.055  -0.285   9.611  0.00  0.00    +0.045 A 
ATOM     38  C   LIG    1       -5.128   0.543   9.318  0.00  0.00    +0.117 A 
ATOM     39  C   LIG    1       -4.957   1.617   8.456  0.00  0.00    +0.045 A 
ATOM     40  C   LIG    1       -3.717   1.862   7.898  0.00  0.00    +0.007 A 
BRANCH  38  41
ATOM     41  O   LIG    1       -6.345   0.303   9.872  0.00  0.00    -0.507 OA
ATOM     42  H   LIG    1       -6.487   0.749  10.718  0.00  0.00    +0.292 HD
ENDBRANCH  38  41
ENDBRANCH  34  35
ENDBRANCH  30  34
ENDBRANCH  28  30
ENDBRANCH  21  23
ENDBRANCH   1  19
BRANCH   1  43
ATOM     43  C   LIG    1        5.412   3.432   3.821  0.00  0.00    +0.069 C 
BRANCH  43  44
ATOM     44  C   LIG    1        4.673   4.689   4.200  0.00  0.00    -0.020 A 
ATOM     45  C   LIG    1        3.838   5.391   3.418  0.00  0.00    +0.087 A 
ATOM     46  N   LIG    1        3.355   6.472   4.103  0.00  0.00    -0.360 N 
ATOM     47  C   LIG    1        3.881   6.494   5.375  0.00  0.00    +0.047 A 
ATOM     48  C   LIG    1        3.729   7.351   6.460  0.00  0.00    +0.026 A 
ATOM     49  C   LIG    1        4.396   7.090   7.637  0.00  0.00    +0.002 A 
ATOM     50  C   LIG    1        5.231   5.986   7.748  0.00  0.00    +0.001 A 
ATOM     51  C   LIG    1        5.398   5.134   6.693  0.00  0.00    +0.010 A 
ATOM     52  H   LIG    1        2.734   7.127   3.746  0.00  0.00    +0.165 HD
ATOM     53  C   LIG    1        4.725   5.374   5.494  0.00  0.00    +0.003 A 
ENDBRANCH  43  44
ENDBRANCH   1  43
TORSDOF 14
