REMARK  Name = ZINC16052171
REMARK                            x       y       z     vdW  Elec       q    Type
REMARK                         _______ _______ _______ _____ _____    ______ ____
ROOT
ATOM      1  C   LIG    1        4.258  -1.921  -0.054  0.00  0.00    +0.135 C 
ATOM      2  N   LIG    1        3.841  -0.519  -0.139  0.00  0.00    -0.272 N 
ATOM      3  C   LIG    1        2.576  -0.052  -0.199  0.00  0.00    +0.316 C 
ATOM      4  N   LIG    1        2.529   1.284  -0.269  0.00  0.00    -0.192 N 
ATOM      5  C   LIG    1        3.767   1.826  -0.267  0.00  0.00    +0.253 C 
ATOM      6  O   LIG    1        4.056   3.002  -0.325  0.00  0.00    -0.272 OA
ATOM      7  O   LIG    1        1.592  -0.765  -0.191  0.00  0.00    -0.252 OA
ATOM      8  C   LIG    1        4.710   0.656  -0.174  0.00  0.00    +0.136 C 
ATOM      9  C   LIG    1        5.665   0.615  -1.374  0.00  0.00    +0.121 C 
ATOM     10  N   LIG    1        6.944   0.105  -0.810  0.00  0.00    -0.294 NA
ATOM     11  C   LIG    1        7.043   0.752   0.524  0.00  0.00    +0.095 C 
ATOM     12  C   LIG    1        5.597   0.741   1.073  0.00  0.00    +0.067 C 
ENDROOT
BRANCH   4  13
ATOM     13  C   LIG    1        1.343   2.029  -0.343  0.00  0.00    +0.048 A 
ATOM     14  C   LIG    1        0.122   1.380  -0.472  0.00  0.00    +0.044 A 
ATOM     15  C   LIG    1       -1.045   2.116  -0.549  0.00  0.00    +0.044 A 
ATOM     16 CL   LIG    1       -2.571   1.306  -0.718  0.00  0.00    -0.083 Cl
ATOM     17  C   LIG    1       -0.999   3.498  -0.486  0.00  0.00    +0.040 A 
ATOM     18  C   LIG    1        0.216   4.146  -0.357  0.00  0.00    +0.044 A 
ATOM     19 CL   LIG    1        0.271   5.880  -0.285  0.00  0.00    -0.083 Cl
ATOM     20  C   LIG    1        1.387   3.415  -0.285  0.00  0.00    +0.044 A 
ENDBRANCH   4  13
BRANCH  12  21
ATOM     21  C   LIG    1        5.314   2.011   1.833  0.00  0.00    -0.040 A 
ATOM     22  C   LIG    1        5.863   3.207   1.405  0.00  0.00    +0.005 A 
ATOM     23  C   LIG    1        5.604   4.374   2.094  0.00  0.00    +0.019 A 
ATOM     24  C   LIG    1        4.795   4.345   3.231  0.00  0.00    +0.052 A 
ATOM     25  C   LIG    1        4.248   3.134   3.660  0.00  0.00    +0.019 A 
ATOM     26  C   LIG    1        4.511   1.975   2.959  0.00  0.00    +0.005 A 
BRANCH  24  27
ATOM     27  C   LIG    1        4.525   5.551   3.954  0.00  0.00    +0.099 C 
ATOM     28  N   LIG    1        4.312   6.509   4.527  0.00  0.00    -0.191 NA
ENDBRANCH  24  27
ENDBRANCH  12  21
BRANCH  10  29
ATOM     29  C   LIG    1        8.081   0.478  -1.662  0.00  0.00    +0.127 C 
BRANCH  29  30
ATOM     30  C   LIG    1        9.369   0.165  -0.946  0.00  0.00    +0.005 A 
ATOM     31  C   LIG    1       10.085  -0.976  -0.972  0.00  0.00    +0.027 A 
ATOM     32  C   LIG    1       11.294  -1.009  -0.186  0.00  0.00    +0.066 A 
ATOM     33  C   LIG    1       11.613   0.131   0.523  0.00  0.00    +0.060 A 
ATOM     34  S   LIG    1       10.320   1.215   0.133  0.00  0.00    -0.099 S 
BRANCH  32  35
ATOM     35  C   LIG    1       12.150  -2.204  -0.144  0.00  0.00    +0.337 C 
ATOM     36  O   LIG    1       11.844  -3.194  -0.780  0.00  0.00    -0.245 OA
BRANCH  35  37
ATOM     37  O   LIG    1       13.274  -2.203   0.600  0.00  0.00    -0.477 OA
ATOM     38  H   LIG    1       13.510  -1.440   1.091  0.00  0.00    +0.295 HD
ENDBRANCH  35  37
ENDBRANCH  32  35
ENDBRANCH  29  30
ENDBRANCH  10  29
TORSDOF 7
