REMARK  Name = ZINC31343462
REMARK                            x       y       z     vdW  Elec       q    Type
REMARK                         _______ _______ _______ _____ _____    ______ ____
ROOT
ATOM      1  C   LIG    1       -1.254  -0.752   0.010  0.00  0.00    +0.059 C 
ATOM      2  C   LIG    1       -1.239  -2.109  -0.100  0.00  0.00    +0.049 C 
ATOM      3  C   LIG    1       -0.059  -2.997  -0.127  0.00  0.00    +0.008 A 
ATOM      4  C   LIG    1        1.313  -2.761  -0.056  0.00  0.00    +0.010 A 
ATOM      5  C   LIG    1        2.193  -3.823  -0.108  0.00  0.00    +0.001 A 
ATOM      6  C   LIG    1        1.714  -5.116  -0.233  0.00  0.00    +0.002 A 
ATOM      7  C   LIG    1        0.356  -5.361  -0.305  0.00  0.00    +0.024 A 
ATOM      8  C   LIG    1       -0.547  -4.306  -0.253  0.00  0.00    +0.042 A 
ATOM      9  N   LIG    1       -1.938  -4.279  -0.304  0.00  0.00    -0.281 N 
ATOM     10  H   LIG    1       -2.497  -5.067  -0.390  0.00  0.00    +0.155 HD
ATOM     11  C   LIG    1       -2.408  -3.023  -0.213  0.00  0.00    +0.249 C 
ATOM     12  O   LIG    1       -3.577  -2.693  -0.224  0.00  0.00    -0.270 OA
ENDROOT
BRANCH   1  14
ATOM     13  C   LIG    1       -0.036   1.509  -0.119  0.00  0.00    +0.091 C 
ATOM     14  C   LIG    1       -0.083   0.027  -0.388  0.00  0.00    +0.154 C 
ATOM     15  O   LIG    1        0.852  -0.520  -0.936  0.00  0.00    -0.293 OA
ENDBRANCH   1  14
TORSDOF 1
