REMARK  Name = ZINC40641191
REMARK                            x       y       z     vdW  Elec       q    Type
REMARK                         _______ _______ _______ _____ _____    ______ ____
ROOT
ATOM      1  C   LIG    1        0.020  -2.136  -1.177  0.00  0.00    +0.157 C 
ATOM      2  C   LIG    1        1.466  -2.634  -1.082  0.00  0.00    +0.195 C 
ATOM      3  C   LIG    1        2.168  -2.385  -2.389  0.00  0.00    +0.068 C 
ATOM      4  C   LIG    1        1.508  -2.140  -3.513  0.00  0.00    +0.204 C 
ATOM      5  O   LIG    1        0.155  -2.087  -3.577  0.00  0.00    -0.477 OA
ATOM      6  C   LIG    1       -0.583  -2.655  -2.490  0.00  0.00    +0.228 C 
ENDROOT
BRANCH   1   9
ATOM      7  C   LIG    1       -0.018   1.503   0.010  0.00  0.00    +0.109 C 
ATOM      8  C   LIG    1        0.002  -0.004   0.002  0.00  0.00    +0.210 C 
ATOM      9  N   LIG    1        0.000  -0.672  -1.169  0.00  0.00    -0.305 N 
ATOM     10  H   LIG    1       -0.015  -0.182  -2.006  0.00  0.00    +0.149 HD
ATOM     11  O   LIG    1        0.020  -0.616   1.049  0.00  0.00    -0.276 OA
ENDBRANCH   1   9
BRANCH   2  12
ATOM     12  N   LIG    1        1.470  -4.070  -0.792  0.00  0.00    -0.270 N 
ATOM     13  H   LIG    1        0.709  -4.617  -1.040  0.00  0.00    +0.258 HD
BRANCH  12  14
ATOM     14  C   LIG    1        2.548  -4.639  -0.170  0.00  0.00    +0.341 C 
ATOM     15  N   LIG    1        2.552  -5.944   0.094  0.00  0.00    -0.292 N 
ATOM     16  H   LIG    1        3.316  -6.348   0.534  0.00  0.00    +0.255 HD
ATOM     17  H   LIG    1        1.791  -6.492  -0.155  0.00  0.00    +0.255 HD
BRANCH  14  18
ATOM     18  N   LIG    1        3.594  -3.887   0.171  0.00  0.00    -0.292 N 
ATOM     19  H   LIG    1        4.358  -4.291   0.611  0.00  0.00    +0.255 HD
ATOM     20  H   LIG    1        3.591  -2.937  -0.022  0.00  0.00    +0.255 HD
ENDBRANCH  14  18
ENDBRANCH  12  14
ENDBRANCH   2  12
BRANCH   4  21
ATOM     21  C   LIG    1        2.278  -1.915  -4.746  0.00  0.00    +0.372 C 
ATOM     22  O   LIG    1        3.501  -1.956  -4.719  0.00  0.00    -0.242 OA
BRANCH  21  23
ATOM     23  O   LIG    1        1.696  -1.687  -5.798  0.00  0.00    -0.475 OA
ATOM     24  H   LIG    1        0.760  -1.656  -5.818  0.00  0.00    +0.296 HD
ENDBRANCH  21  23
ENDBRANCH   4  21
BRANCH   6  25
ATOM     25  C   LIG    1       -2.050  -2.233  -2.585  0.00  0.00    +0.187 C 
BRANCH  25  26
ATOM     26  O   LIG    1       -2.776  -2.780  -1.482  0.00  0.00    -0.385 OA
ATOM     27  H   LIG    1       -2.759  -3.746  -1.440  0.00  0.00    +0.210 HD
ENDBRANCH  25  26
BRANCH  25  28
ATOM     28  C   LIG    1       -2.646  -2.753  -3.895  0.00  0.00    +0.172 C 
BRANCH  28  29
ATOM     29  O   LIG    1       -2.453  -4.166  -3.979  0.00  0.00    -0.387 OA
ATOM     30  H   LIG    1       -2.867  -4.663  -3.260  0.00  0.00    +0.210 HD
ENDBRANCH  28  29
BRANCH  28  31
ATOM     31  C   LIG    1       -4.143  -2.440  -3.934  0.00  0.00    +0.189 C 
BRANCH  31  32
ATOM     32  O   LIG    1       -4.677  -2.820  -5.204  0.00  0.00    -0.392 OA
ATOM     33  H   LIG    1       -5.624  -2.649  -5.300  0.00  0.00    +0.210 HD
ENDBRANCH  31  32
ENDBRANCH  28  31
ENDBRANCH  25  28
ENDBRANCH   6  25
TORSDOF 12
