REMARK  Name = ZINC27181667
REMARK                            x       y       z     vdW  Elec       q    Type
REMARK                         _______ _______ _______ _____ _____    ______ ____
ROOT
ATOM      1  C   LIG    1       -1.202   0.699   2.121  0.00  0.00    +0.023 C 
ATOM      2  C   LIG    1       -0.740   1.570   1.234  0.00  0.00    -0.044 C 
ENDROOT
BRANCH   1   4
ATOM      3  C   LIG    1       -1.462  -1.753   2.697  0.00  0.00    +0.111 A 
ATOM      4  C   LIG    1       -0.954  -0.746   1.935  0.00  0.00    +0.081 A 
ATOM      5  N   LIG    1       -0.178  -1.306   0.983  0.00  0.00    -0.237 NA
ATOM      6  C   LIG    1       -0.193  -2.601   1.125  0.00  0.00    +0.197 A 
ATOM      7  N   LIG    1       -0.981  -2.921   2.176  0.00  0.00    -0.350 N 
ATOM      8  H   LIG    1       -1.263  -3.883   2.628  0.00  0.00    +0.166 HD
ENDBRANCH   1   4
BRANCH   2   9
ATOM      9  C   LIG    1       -0.182   1.085  -0.079  0.00  0.00    -0.059 C 
BRANCH   9  10
ATOM     10  N   LIG    1        1.230   1.476  -0.186  0.00  0.00    +0.380 N 
ATOM     11  H   LIG    1        1.311   2.571  -0.135  0.00  0.00    -0.090 HD
ATOM     12  H   LIG    1        1.798   1.027   0.642  0.00  0.00    -0.090 HD
ATOM     13  H   LIG    1        1.637   1.121  -1.145  0.00  0.00    -0.090 HD
ENDBRANCH   9  10
ENDBRANCH   2   9
TORSDOF 3
