REMARK  Name = ZINC13826985
REMARK                            x       y       z     vdW  Elec       q    Type
REMARK                         _______ _______ _______ _____ _____    ______ ____
ROOT
ATOM      1  C   LIG    1        3.082   0.238  -0.026  0.00  0.00    +0.151 C 
ATOM      2  N   LIG    1        2.531   1.595  -0.013  0.00  0.00    -0.322 N 
ATOM      3  C   LIG    1        3.240   2.763  -0.013  0.00  0.00    +0.136 A 
ATOM      4  N   LIG    1        2.397   3.783   0.000  0.00  0.00    -0.210 NA
ATOM      5  C   LIG    1        1.144   3.335   0.009  0.00  0.00    +0.168 A 
ATOM      6  N   LIG    1       -0.094   3.960   0.024  0.00  0.00    -0.280 N 
ATOM      7  C   LIG    1       -0.175   5.422   0.033  0.00  0.00    +0.155 C 
ATOM      8  C   LIG    1       -1.222   3.224   0.031  0.00  0.00    +0.333 A 
ATOM      9  O   LIG    1       -2.298   3.789   0.045  0.00  0.00    -0.246 OA
ATOM     10  N   LIG    1       -1.188   1.880   0.018  0.00  0.00    -0.262 N 
ATOM     11  C   LIG    1       -2.444   1.127   0.019  0.00  0.00    +0.157 C 
ATOM     12  C   LIG    1       -0.014   1.214   0.009  0.00  0.00    +0.282 A 
ATOM     13  O   LIG    1        0.002  -0.004   0.002  0.00  0.00    -0.265 OA
ATOM     14  C   LIG    1        1.192   1.943   0.001  0.00  0.00    +0.152 A 
ENDROOT
BRANCH   3  15
ATOM     15  C   LIG    1        4.699   2.869  -0.026  0.00  0.00    +0.047 C 
ATOM     16  C   LIG    1        5.287   4.084  -0.025  0.00  0.00    +0.015 C 
BRANCH  16  17
ATOM     17  C   LIG    1        6.753   4.191  -0.037  0.00  0.00    +0.021 A 
ATOM     18  C   LIG    1        7.541   3.034  -0.050  0.00  0.00    +0.015 A 
ATOM     19  C   LIG    1        8.914   3.137  -0.062  0.00  0.00    +0.050 A 
ATOM     20  C   LIG    1        9.523   4.387  -0.061  0.00  0.00    +0.165 A 
ATOM     21  C   LIG    1        8.751   5.543  -0.049  0.00  0.00    +0.204 A 
ATOM     22  C   LIG    1        7.367   5.453  -0.042  0.00  0.00    +0.172 A 
BRANCH  20  23
ATOM     23  O   LIG    1       10.879   4.478  -0.073  0.00  0.00    -0.491 OA
ATOM     24  C   LIG    1       11.612   3.252  -0.085  0.00  0.00    +0.277 C 
ENDBRANCH  20  23
BRANCH  21  25
ATOM     25  O   LIG    1        9.353   6.764  -0.048  0.00  0.00    -0.488 OA
ATOM     26  C   LIG    1        9.629   7.352  -1.321  0.00  0.00    +0.277 C 
ENDBRANCH  21  25
BRANCH  22  27
ATOM     27  O   LIG    1        6.610   6.580  -0.035  0.00  0.00    -0.491 OA
ATOM     28  C   LIG    1        6.259   7.118   1.242  0.00  0.00    +0.277 C 
ENDBRANCH  22  27
ENDBRANCH  16  17
ENDBRANCH   3  15
TORSDOF 5
