REMARK  Name = ZINC28129559
REMARK                            x       y       z     vdW  Elec       q    Type
REMARK                         _______ _______ _______ _____ _____    ______ ____
ROOT
ATOM      1  C   LIG    1       -2.403  -0.491  -0.327  0.00  0.00    +0.243 C 
ATOM      2  N   LIG    1       -3.574  -1.159  -0.313  0.00  0.00    -0.312 N 
ATOM      3  H   LIG    1       -3.580  -2.129  -0.333  0.00  0.00    +0.149 HD
ATOM      4  O   LIG    1       -2.396   0.727  -0.302  0.00  0.00    -0.270 OA
ENDROOT
BRANCH   1   7
ATOM      5  C   LIG    1        0.019   0.955  -0.354  0.00  0.00    +0.066 C 
ATOM      6  C   LIG    1        0.011  -0.552  -0.384  0.00  0.00    +0.048 C 
ATOM      7  C   LIG    1       -1.188  -1.202  -0.369  0.00  0.00    +0.047 C 
ATOM      8  C   LIG    1       -1.165  -2.720  -0.400  0.00  0.00    +0.094 C 
ATOM      9  C   LIG    1        0.211  -3.360  -0.445  0.00  0.00    +0.065 C 
ATOM     10  C   LIG    1        1.312  -2.501  -0.453  0.00  0.00    +0.049 C 
ATOM     11  C   LIG    1        2.700  -3.086  -0.496  0.00  0.00    +0.066 C 
ATOM     12  C   LIG    1        0.367  -4.728  -0.476  0.00  0.00    +0.285 C 
ATOM     13  N   LIG    1        1.169  -1.196  -0.428  0.00  0.00    -0.256 NA
BRANCH   8  14
ATOM     14  C   LIG    1       -1.932  -3.177  -1.614  0.00  0.00    -0.035 A 
ATOM     15  C   LIG    1       -1.519  -2.797  -2.877  0.00  0.00    +0.007 A 
ATOM     16  C   LIG    1       -2.223  -3.217  -3.990  0.00  0.00    +0.033 A 
ATOM     17  C   LIG    1       -3.340  -4.018  -3.840  0.00  0.00    +0.122 A 
ATOM     18  C   LIG    1       -3.752  -4.399  -2.577  0.00  0.00    +0.033 A 
ATOM     19  C   LIG    1       -3.046  -3.982  -1.464  0.00  0.00    +0.007 A 
BRANCH  17  20
ATOM     20  N   LIG    1       -4.094  -4.467  -5.032  0.00  0.00    +0.006 N 
ATOM     21  O   LIG    1       -3.733  -4.133  -6.136  0.00  0.00    -0.130 OA
BRANCH  20  22
ATOM     22  O   LIG    1       -5.071  -5.167  -4.900  0.00  0.00    -0.396 OA
ATOM     23  H   LIG    1       -5.351  -5.425  -4.044  0.00  0.00    +0.329 HD
ENDBRANCH  20  22
ENDBRANCH  17  20
ENDBRANCH   8  14
BRANCH  12  24
ATOM     24  O   LIG    1        1.593  -5.263  -0.640  0.00  0.00    -0.467 OA
ATOM     25  C   LIG    1        1.681  -6.689  -0.663  0.00  0.00    +0.280 C 
ENDBRANCH  12  24
BRANCH  12  26
ATOM     26  O   LIG    1       -0.707  -5.532  -0.343  0.00  0.00    -0.480 OA
ATOM     27  H   LIG    1       -1.559  -5.160  -0.229  0.00  0.00    +0.295 HD
ENDBRANCH  12  26
ENDBRANCH   1   7
BRANCH   2  28
ATOM     28  C   LIG    1       -4.838  -0.420  -0.269  0.00  0.00    +0.102 C 
BRANCH  28  29
ATOM     29  C   LIG    1       -6.007  -1.407  -0.262  0.00  0.00    +0.000 C 
BRANCH  29  30
ATOM     30  C   LIG    1       -7.327  -0.635  -0.216  0.00  0.00    -0.077 C 
BRANCH  30  31
ATOM     31  N   LIG    1       -8.449  -1.584  -0.210  0.00  0.00    +0.380 N 
ATOM     32  H   LIG    1       -8.336  -2.231   0.556  0.00  0.00    -0.082 HD
ATOM     33  C   LIG    1       -8.467  -2.326  -1.476  0.00  0.00    -0.078 C 
ATOM     34  C   LIG    1       -9.584  -3.371  -1.442  0.00  0.00    -0.003 C 
ATOM     35  C   LIG    1      -10.929  -2.667  -1.242  0.00  0.00    +0.017 C 
ATOM     36  C   LIG    1      -10.873  -1.837   0.044  0.00  0.00    -0.003 C 
ATOM     37  C   LIG    1       -9.708  -0.848  -0.045  0.00  0.00    -0.078 C 
BRANCH  35  38
ATOM     38  C   LIG    1      -11.204  -1.762  -2.415  0.00  0.00    -0.037 A 
ATOM     39  C   LIG    1      -11.122  -2.256  -3.703  0.00  0.00    +0.004 A 
ATOM     40  C   LIG    1      -11.374  -1.426  -4.779  0.00  0.00    +0.000 A 
ATOM     41  C   LIG    1      -11.709  -0.102  -4.567  0.00  0.00    +0.000 A 
ATOM     42  C   LIG    1      -11.792   0.392  -3.279  0.00  0.00    +0.000 A 
ATOM     43  C   LIG    1      -11.544  -0.439  -2.202  0.00  0.00    +0.004 A 
ENDBRANCH  35  38
BRANCH  35  44
ATOM     44  C   LIG    1      -12.025  -3.696  -1.129  0.00  0.00    -0.037 A 
ATOM     45  C   LIG    1      -11.709  -5.042  -1.106  0.00  0.00    +0.004 A 
ATOM     46  C   LIG    1      -12.714  -5.985  -1.003  0.00  0.00    +0.000 A 
ATOM     47  C   LIG    1      -14.034  -5.583  -0.922  0.00  0.00    +0.000 A 
ATOM     48  C   LIG    1      -14.350  -4.237  -0.945  0.00  0.00    +0.000 A 
ATOM     49  C   LIG    1      -13.344  -3.294  -1.044  0.00  0.00    +0.004 A 
ENDBRANCH  35  44
ENDBRANCH  30  31
ENDBRANCH  29  30
ENDBRANCH  28  29
ENDBRANCH   2  28
TORSDOF 12
