REMARK  Name = ZINC58575561
REMARK                            x       y       z     vdW  Elec       q    Type
REMARK                         _______ _______ _______ _____ _____    ______ ____
ROOT
ATOM      1  C   LIG    1        5.675  -0.603  -0.057  0.00  0.00    +0.069 A 
ATOM      2  C   LIG    1        6.359  -1.829  -0.076  0.00  0.00    +0.047 A 
ATOM      3  C   LIG    1        7.739  -1.811  -0.090  0.00  0.00    +0.116 A 
ATOM      4  N   LIG    1        8.373  -0.647  -0.085  0.00  0.00    -0.223 NA
ATOM      5  C   LIG    1        7.704   0.497  -0.067  0.00  0.00    +0.213 A 
ATOM      6  N   LIG    1        6.382   0.530  -0.058  0.00  0.00    -0.215 NA
ENDROOT
BRANCH   5   7
ATOM      7  N   LIG    1        8.408   1.689  -0.063  0.00  0.00    -0.327 N 
ATOM      8  H   LIG    1        7.931   2.534  -0.050  0.00  0.00    +0.145 HD
ATOM      9  H   LIG    1        9.378   1.680  -0.073  0.00  0.00    +0.145 HD
ENDBRANCH   5   7
BRANCH   1  11
ATOM     10  C   LIG    1        3.560   0.617  -0.029  0.00  0.00    +0.048 C 
ATOM     11  C   LIG    1        4.206  -0.568  -0.042  0.00  0.00    +0.031 C 
BRANCH  10  14
ATOM     12  C   LIG    1       -0.016   1.346   0.009  0.00  0.00    +0.042 A 
ATOM     13  C   LIG    1        1.321   1.778  -0.001  0.00  0.00    +0.049 A 
ATOM     14  C   LIG    1        2.097   0.653  -0.015  0.00  0.00    +0.128 A 
ATOM     15  O   LIG    1        1.278  -0.419  -0.012  0.00  0.00    -0.464 OA
ATOM     16  C   LIG    1        0.002  -0.004   0.002  0.00  0.00    +0.195 A 
ENDBRANCH  10  14
ENDBRANCH   1  11
TORSDOF 3
