REMARK  Name = ZINC17994427
REMARK                            x       y       z     vdW  Elec       q    Type
REMARK                         _______ _______ _______ _____ _____    ______ ____
ROOT
ATOM      1  C   LIG    1        1.948   1.884  -3.607  0.00  0.00    +0.001 A 
ATOM      2  C   LIG    1        3.209   2.472  -3.558  0.00  0.00    +0.002 A 
ATOM      3  C   LIG    1        3.811   2.745  -2.366  0.00  0.00    +0.028 A 
ATOM      4  C   LIG    1        3.150   2.434  -1.169  0.00  0.00    +0.078 A 
ATOM      5  N   LIG    1        3.700   2.676   0.028  0.00  0.00    -0.229 NA
ATOM      6  C   LIG    1        3.053   2.366   1.135  0.00  0.00    +0.141 A 
ATOM      7  N   LIG    1        1.843   1.808   1.130  0.00  0.00    -0.306 N 
ATOM      8  H   LIG    1        1.340   1.575   2.080  0.00  0.00    +0.170 HD
ATOM      9  C   LIG    1        1.222   1.521  -0.001  0.00  0.00    +0.259 A 
ATOM     10  O   LIG    1       -0.005   0.949   0.007  0.00  0.00    -0.267 OA
ATOM     11  C   LIG    1        1.868   1.831  -1.221  0.00  0.00    +0.065 A 
ATOM     12  C   LIG    1        1.279   1.564  -2.462  0.00  0.00    +0.015 A 
ENDROOT
BRANCH   6  13
ATOM     13  C   LIG    1        3.697   2.651   2.439  0.00  0.00    +0.017 A 
ATOM     14  C   LIG    1        4.965   3.230   2.481  0.00  0.00    +0.013 A 
ATOM     15  C   LIG    1        5.559   3.499   3.697  0.00  0.00    +0.021 A 
ATOM     16  C   LIG    1        4.902   3.184   4.875  0.00  0.00    +0.041 A 
ATOM     17 CL   LIG    1        5.657   3.518   6.402  0.00  0.00    -0.084 Cl
ATOM     18  C   LIG    1        3.645   2.604   4.839  0.00  0.00    +0.021 A 
ATOM     19  C   LIG    1        3.041   2.337   3.628  0.00  0.00    +0.013 A 
ENDBRANCH   6  13
TORSDOF 1
