REMARK  Name = ZINC40935136
REMARK                            x       y       z     vdW  Elec       q    Type
REMARK                         _______ _______ _______ _____ _____    ______ ____
ROOT
ATOM      1  C   LIG    1        0.050  -2.682   2.491  0.00  0.00    +0.092 A 
ATOM      2  C   LIG    1        0.516  -2.163   3.686  0.00  0.00    +0.075 A 
ATOM      3  N   LIG    1        0.337  -3.152   4.634  0.00  0.00    -0.327 N 
ATOM      4  C   LIG    1       -0.220  -4.221   4.001  0.00  0.00    +0.169 A 
ATOM      5  H   LIG    1        0.566  -3.095   5.575  0.00  0.00    +0.169 HD
ATOM      6  N   LIG    1       -0.392  -3.932   2.734  0.00  0.00    -0.326 N 
ATOM      7  H   LIG    1       -0.776  -4.527   2.071  0.00  0.00    +0.169 HD
ENDROOT
BRANCH   2   8
ATOM      8  C   LIG    1        1.088  -0.822   3.904  0.00  0.00    +0.003 A 
ATOM      9  C   LIG    1        2.033  -0.309   2.994  0.00  0.00    +0.012 A 
ATOM     10  C   LIG    1        2.573   0.922   3.173  0.00  0.00    +0.030 A 
ATOM     11  C   LIG    1        2.193   1.705   4.280  0.00  0.00    +0.089 A 
ATOM     12  C   LIG    1        1.242   1.199   5.205  0.00  0.00    +0.090 A 
ATOM     13  N   LIG    1        0.881   1.945   6.256  0.00  0.00    -0.252 NA
ATOM     14  C   LIG    1        1.410   3.137   6.421  0.00  0.00    +0.131 A 
ATOM     15  C   LIG    1        2.345   3.634   5.512  0.00  0.00    +0.131 A 
ATOM     16  N   LIG    1        2.716   2.920   4.472  0.00  0.00    -0.252 NA
ATOM     17  C   LIG    1        0.690  -0.073   5.000  0.00  0.00    +0.040 A 
ENDBRANCH   2   8
BRANCH   1  24
ATOM     18  C   LIG    1       -0.018   1.503   0.010  0.00  0.00    +0.068 C 
ATOM     19  C   LIG    1        0.002  -0.004   0.002  0.00  0.00    +0.074 A 
ATOM     20  C   LIG    1        0.005  -0.681  -1.206  0.00  0.00    +0.144 A 
ATOM     21  F   LIG    1       -0.010   0.003  -2.371  0.00  0.00    -0.204 F 
ATOM     22  C   LIG    1        0.024  -2.071  -1.209  0.00  0.00    +0.042 A 
ATOM     23  C   LIG    1        0.039  -2.733   0.005  0.00  0.00    +0.033 A 
ATOM     24  C   LIG    1        0.035  -1.988   1.185  0.00  0.00    +0.090 A 
ATOM     25  N   LIG    1        0.022  -0.660   1.144  0.00  0.00    -0.247 NA
ENDBRANCH   1  24
BRANCH   4  26
ATOM     26  N   LIG    1       -0.557  -5.419   4.601  0.00  0.00    -0.330 N 
ATOM     27  H   LIG    1       -0.951  -6.131   4.074  0.00  0.00    +0.145 HD
ATOM     28  H   LIG    1       -0.399  -5.548   5.550  0.00  0.00    +0.145 HD
ENDBRANCH   4  26
TORSDOF 3
