REMARK  Name = ZINC15924305
REMARK                            x       y       z     vdW  Elec       q    Type
REMARK                         _______ _______ _______ _____ _____    ______ ____
ROOT
ATOM      1  N   LIG    1        3.878   2.026  -0.167  0.00  0.00    -0.073 NA
ATOM      2  C   LIG    1        4.566   1.686   0.897  0.00  0.00    +0.394 C 
ENDROOT
BRANCH   1   5
ATOM      3  C   LIG    1        0.229   1.839  -0.173  0.00  0.00    +0.005 A 
ATOM      4  C   LIG    1        1.507   2.328   0.007  0.00  0.00    +0.046 A 
ATOM      5  C   LIG    1        2.607   1.545  -0.343  0.00  0.00    +0.143 A 
ATOM      6  C   LIG    1        2.408   0.269  -0.874  0.00  0.00    +0.065 A 
ATOM      7  C   LIG    1        1.125  -0.209  -1.049  0.00  0.00    +0.044 A 
ATOM      8 CL   LIG    1        0.874  -1.795  -1.710  0.00  0.00    -0.083 Cl
ATOM      9  C   LIG    1        0.038   0.574  -0.700  0.00  0.00    +0.020 A 
ENDBRANCH   1   5
BRANCH   2  10
ATOM     10  N   LIG    1        5.884   2.051   1.008  0.00  0.00    -0.288 N 
ATOM     11  H   LIG    1        6.494   1.514   1.537  0.00  0.00    +0.255 HD
ATOM     12  H   LIG    1        6.206   2.847   0.556  0.00  0.00    +0.255 HD
ENDBRANCH   2  10
BRANCH   2  13
ATOM     13  N   LIG    1        3.966   0.962   1.903  0.00  0.00    -0.186 N 
ATOM     14  H   LIG    1        3.064   0.625   1.787  0.00  0.00    +0.271 HD
BRANCH  13  15
ATOM     15  C   LIG    1        4.648   0.717   3.077  0.00  0.00    +0.385 C 
ATOM     16  N   LIG    1        5.799   1.287   3.294  0.00  0.00    -0.129 NA
ATOM     17  H   LIG    1        6.278   1.114   4.119  0.00  0.00    +0.306 HD
BRANCH  15  18
ATOM     18  N   LIG    1        4.112  -0.130   4.019  0.00  0.00    -0.289 N 
ATOM     19  H   LIG    1        4.592  -0.303   4.844  0.00  0.00    +0.255 HD
ATOM     20  H   LIG    1        3.255  -0.555   3.857  0.00  0.00    +0.255 HD
ENDBRANCH  15  18
ENDBRANCH  13  15
ENDBRANCH   2  13
TORSDOF 5
