REMARK  Name = ZINC43197966
REMARK                            x       y       z     vdW  Elec       q    Type
REMARK                         _______ _______ _______ _____ _____    ______ ____
ROOT
ATOM      1  N   LIG    1       -5.226  -2.062  -0.028  0.00  0.00    -0.284 NA
ATOM      2  C   LIG    1       -6.322  -1.390   0.684  0.00  0.00    +0.105 C 
ATOM      3  C   LIG    1       -7.459  -1.120  -0.309  0.00  0.00    +0.122 C 
ATOM      4  N   LIG    1       -7.747  -2.361  -1.042  0.00  0.00    -0.311 N 
ATOM      5  C   LIG    1       -6.650  -3.033  -1.754  0.00  0.00    +0.122 C 
ATOM      6  C   LIG    1       -5.515  -3.300  -0.765  0.00  0.00    +0.105 C 
ENDROOT
BRANCH   4   7
ATOM      7  C   LIG    1       -9.027  -2.888  -1.062  0.00  0.00    +0.152 A 
ATOM      8  C   LIG    1       -9.911  -2.595  -2.126  0.00  0.00    +0.026 A 
ATOM      9  C   LIG    1       -9.555  -1.774  -3.201  0.00  0.00    +0.012 A 
ATOM     10  C   LIG    1      -10.462  -1.537  -4.191  0.00  0.00    +0.001 A 
ATOM     11  C   LIG    1      -11.735  -2.099  -4.149  0.00  0.00    +0.001 A 
ATOM     12  C   LIG    1      -12.115  -2.904  -3.116  0.00  0.00    +0.010 A 
ATOM     13  C   LIG    1      -11.208  -3.168  -2.082  0.00  0.00    +0.009 A 
ATOM     14  C   LIG    1      -11.524  -3.989  -0.983  0.00  0.00    +0.076 A 
ATOM     15  N   LIG    1      -10.619  -4.188  -0.053  0.00  0.00    -0.152 NA
ATOM     16  N   LIG    1       -9.445  -3.679  -0.089  0.00  0.00    -0.133 NA
BRANCH  14  17
ATOM     17  C   LIG    1      -12.885  -4.628  -0.874  0.00  0.00    +0.093 C 
BRANCH  17  18
ATOM     18  C   LIG    1      -12.861  -5.976  -1.547  0.00  0.00    -0.042 A 
ATOM     19  C   LIG    1      -13.167  -6.083  -2.891  0.00  0.00    +0.004 A 
ATOM     20  C   LIG    1      -13.146  -7.320  -3.509  0.00  0.00    +0.000 A 
ATOM     21  C   LIG    1      -12.817  -8.449  -2.782  0.00  0.00    +0.000 A 
ATOM     22  C   LIG    1      -12.510  -8.342  -1.439  0.00  0.00    +0.000 A 
ATOM     23  C   LIG    1      -12.527  -7.105  -0.822  0.00  0.00    +0.004 A 
ENDBRANCH  17  18
ENDBRANCH  14  17
ENDBRANCH   4   7
BRANCH   1  27
ATOM     24  C   LIG    1       -1.412  -0.524   0.015  0.00  0.00    +0.034 C 
ATOM     25  C   LIG    1       -2.430   0.220   0.597  0.00  0.00    +0.010 C 
ATOM     26  C   LIG    1       -3.714  -0.295   0.585  0.00  0.00    +0.035 C 
ATOM     27  C   LIG    1       -3.941  -1.533  -0.008  0.00  0.00    +0.124 C 
ATOM     28  N   LIG    1       -2.944  -2.212  -0.553  0.00  0.00    -0.301 NA
ATOM     29  H   LIG    1       -3.125  -3.073  -0.961  0.00  0.00    +0.123 HD
ATOM     30  C   LIG    1       -1.710  -1.743  -0.561  0.00  0.00    +0.088 C 
BRANCH  24  32
ATOM     31  C   LIG    1       -0.018   1.526  -0.020  0.00  0.00    +0.041 C 
ATOM     32  C   LIG    1        0.002  -0.004   0.005  0.00  0.00    +0.064 C 
ATOM     33  C   LIG    1        0.730  -0.483   1.262  0.00  0.00    +0.041 C 
BRANCH  32  34
ATOM     34  O   LIG    1        0.681  -0.490  -1.154  0.00  0.00    -0.389 OA
ATOM     35  H   LIG    1        0.732  -1.455  -1.204  0.00  0.00    +0.210 HD
ENDBRANCH  32  34
ENDBRANCH  24  32
ENDBRANCH   1  27
TORSDOF 6
