REMARK  Name = ZINC28564081
REMARK                            x       y       z     vdW  Elec       q    Type
REMARK                         _______ _______ _______ _____ _____    ______ ____
ROOT
ATOM      1  C   LIG    1        0.456   7.575   3.222  0.00  0.00    +0.152 C 
ATOM      2  N   LIG    1        0.177   6.929   1.937  0.00  0.00    -0.314 N 
ATOM      3  C   LIG    1       -1.012   7.098   1.222  0.00  0.00    +0.053 A 
ATOM      4  C   LIG    1       -2.140   7.853   1.511  0.00  0.00    +0.038 A 
ATOM      5  C   LIG    1       -3.216   7.857   0.627  0.00  0.00    +0.022 A 
ATOM      6  C   LIG    1       -4.528   8.517   0.613  0.00  0.00    +0.049 A 
ATOM      7  C   LIG    1       -5.130   8.129  -0.519  0.00  0.00    +0.196 A 
ATOM      8  O   LIG    1       -4.330   7.298  -1.208  0.00  0.00    -0.463 OA
ATOM      9  C   LIG    1       -3.164   7.103  -0.558  0.00  0.00    +0.135 A 
ATOM     10  C   LIG    1       -2.029   6.353  -0.836  0.00  0.00    +0.057 A 
ATOM     11  C   LIG    1       -0.973   6.354   0.044  0.00  0.00    +0.019 A 
ATOM     12  C   LIG    1        0.369   5.658   0.027  0.00  0.00    +0.106 A 
ATOM     13  C   LIG    1        1.034   6.106   1.311  0.00  0.00    +0.206 A 
ENDROOT
BRANCH  12  14
ATOM     14  C   LIG    1        0.188   4.162   0.022  0.00  0.00    +0.255 C 
ATOM     15  N   LIG    1        1.265   3.352   0.007  0.00  0.00    -0.259 N 
ATOM     16  H   LIG    1        2.277   3.784  -0.000  0.00  0.00    +0.157 HD
ATOM     17  O   LIG    1       -0.928   3.686   0.030  0.00  0.00    -0.270 OA
BRANCH  15  18
ATOM     18  C   LIG    1        1.098   1.972   0.002  0.00  0.00    +0.188 A 
ATOM     19  N   LIG    1       -0.015   1.258   0.009  0.00  0.00    -0.126 NA
ATOM     20  N   LIG    1        0.002  -0.004   0.002  0.00  0.00    -0.148 NA
ATOM     21  C   LIG    1        1.145  -0.660  -0.012  0.00  0.00    +0.183 A 
ATOM     22  S   LIG    1        2.295   0.710  -0.016  0.00  0.00    -0.039 S 
ENDBRANCH  15  18
ENDBRANCH  12  14
BRANCH  13  23
ATOM     23  O   LIG    1        2.136   5.782   1.702  0.00  0.00    -0.493 OA
ATOM     24  H   LIG    1        2.461   6.116   2.515  0.00  0.00    +0.294 HD
ENDBRANCH  13  23
TORSDOF 3
