REMARK  Name = ZINC15011580
REMARK                            x       y       z     vdW  Elec       q    Type
REMARK                         _______ _______ _______ _____ _____    ______ ____
ROOT
ATOM      1  C   LIG    1        1.090   2.018  -0.160  0.00  0.00    +0.162 A 
ATOM      2  C   LIG    1        2.309   1.374  -0.240  0.00  0.00    +0.057 A 
ATOM      3  C   LIG    1        2.394   0.006   0.046  0.00  0.00    -0.020 A 
ATOM      4  C   LIG    1        1.242  -0.702   0.411  0.00  0.00    +0.012 A 
ATOM      5  C   LIG    1        0.031  -0.051   0.488  0.00  0.00    +0.050 A 
ATOM      6  C   LIG    1       -0.052   1.306   0.204  0.00  0.00    +0.162 A 
ENDROOT
BRANCH   3   7
ATOM      7  C   LIG    1        3.688  -0.685  -0.035  0.00  0.00    +0.028 C 
ATOM      8  C   LIG    1        3.755  -1.944  -0.539  0.00  0.00    +0.077 C 
ATOM      9  C   LIG    1        2.711  -2.747  -1.207  0.00  0.00    +0.256 C 
ATOM     10  N   LIG    1        3.059  -3.960  -1.601  0.00  0.00    -0.270 N 
ATOM     11  H   LIG    1        2.403  -4.521  -2.044  0.00  0.00    +0.156 HD
ATOM     12  C   LIG    1        4.305  -4.436  -1.402  0.00  0.00    +0.118 C 
ATOM     13  S   LIG    1        4.941  -5.964  -1.836  0.00  0.00    -0.027 S 
ATOM     14  O   LIG    1        1.588  -2.314  -1.386  0.00  0.00    -0.269 OA
ATOM     15  S   LIG    1        5.132  -3.082  -0.582  0.00  0.00    -0.061 S 
ENDBRANCH   3   7
BRANCH   1  17
ATOM     16  C   LIG    1        2.213   4.013  -0.803  0.00  0.00    +0.277 C 
ATOM     17  O   LIG    1        1.004   3.346  -0.437  0.00  0.00    -0.491 OA
ENDBRANCH   1  17
BRANCH   6  18
ATOM     18  O   LIG    1       -1.251   1.940   0.276  0.00  0.00    -0.484 OA
BRANCH  18  19
ATOM     19  C   LIG    1       -2.382   1.151   0.649  0.00  0.00    +0.264 C 
BRANCH  19  20
ATOM     20  C   LIG    1       -3.614   2.018   0.676  0.00  0.00    -0.010 A 
ATOM     21  C   LIG    1       -3.979   2.665   1.842  0.00  0.00    +0.008 A 
ATOM     22  C   LIG    1       -5.105   3.465   1.866  0.00  0.00    +0.020 A 
ATOM     23  C   LIG    1       -5.874   3.610   0.725  0.00  0.00    +0.041 A 
ATOM     24 CL   LIG    1       -7.293   4.610   0.755  0.00  0.00    -0.084 Cl
ATOM     25  C   LIG    1       -5.512   2.958  -0.441  0.00  0.00    +0.020 A 
ATOM     26  C   LIG    1       -4.382   2.163  -0.464  0.00  0.00    +0.008 A 
ENDBRANCH  19  20
ENDBRANCH  18  19
ENDBRANCH   6  18
TORSDOF 5
