REMARK  Name = ZINC38367317
REMARK                            x       y       z     vdW  Elec       q    Type
REMARK                         _______ _______ _______ _____ _____    ______ ____
ROOT
ATOM      1  C   LIG    1        3.686  -0.706  -0.024  0.00  0.00    +0.024 A 
ATOM      2  C   LIG    1        4.028  -1.577  -1.077  0.00  0.00    +0.070 A 
ATOM      3  C   LIG    1        5.289  -2.208  -1.040  0.00  0.00    +0.180 A 
ATOM      4  N   LIG    1        6.110  -1.965  -0.025  0.00  0.00    -0.129 NA
ATOM      5  N   LIG    1        5.798  -1.171   0.934  0.00  0.00    -0.147 NA
ATOM      6  N   LIG    1        5.367  -2.987  -2.161  0.00  0.00    -0.257 N 
ATOM      7  N   LIG    1        4.185  -2.858  -2.898  0.00  0.00    -0.158 NA
ATOM      8  H   LIG    1        6.124  -3.542  -2.407  0.00  0.00    +0.191 HD
ATOM      9  C   LIG    1        3.368  -2.035  -2.293  0.00  0.00    +0.136 A 
ATOM     10  C   LIG    1        4.638  -0.523   0.992  0.00  0.00    +0.102 A 
ENDROOT
BRANCH   1  14
ATOM     11  C   LIG    1       -0.061   1.297   0.064  0.00  0.00    +0.000 A 
ATOM     12  C   LIG    1        1.103   2.021  -0.126  0.00  0.00    +0.001 A 
ATOM     13  C   LIG    1        2.323   1.376  -0.156  0.00  0.00    +0.008 A 
ATOM     14  C   LIG    1        2.381  -0.008   0.007  0.00  0.00    -0.015 A 
ATOM     15  C   LIG    1        1.204  -0.732   0.199  0.00  0.00    +0.008 A 
ATOM     16  C   LIG    1       -0.010  -0.076   0.226  0.00  0.00    +0.001 A 
ENDBRANCH   1  14
BRANCH  10  17
ATOM     17  C   LIG    1        4.348   0.383   2.128  0.00  0.00    +0.003 A 
ATOM     18  C   LIG    1        3.102   0.348   2.752  0.00  0.00    +0.010 A 
ATOM     19  C   LIG    1        2.838   1.194   3.809  0.00  0.00    +0.001 A 
ATOM     20  C   LIG    1        3.808   2.076   4.251  0.00  0.00    +0.000 A 
ATOM     21  C   LIG    1        5.047   2.116   3.637  0.00  0.00    +0.001 A 
ATOM     22  C   LIG    1        5.324   1.270   2.582  0.00  0.00    +0.010 A 
ENDBRANCH  10  17
BRANCH   9  23
ATOM     23  N   LIG    1        2.094  -1.664  -2.732  0.00  0.00    -0.379 N 
ATOM     24  H   LIG    1        1.562  -1.044  -2.209  0.00  0.00    +0.127 HD
BRANCH  23  25
ATOM     25  N   LIG    1        1.598  -2.175  -3.898  0.00  0.00    +0.392 N 
ATOM     26  H   LIG    1        2.204  -1.918  -4.663  0.00  0.00    -0.059 HD
ATOM     27  H   LIG    1        0.674  -1.804  -4.061  0.00  0.00    -0.059 HD
ATOM     28  H   LIG    1        1.549  -3.180  -3.831  0.00  0.00    -0.059 HD
ENDBRANCH  23  25
ENDBRANCH   9  23
TORSDOF 4
