REMARK  Name = ZINC53259691
REMARK                            x       y       z     vdW  Elec       q    Type
REMARK                         _______ _______ _______ _____ _____    ______ ____
ROOT
ATOM      1  CA  PHE A  3        3.814  -0.541   1.001  0.00  0.00    +0.163 C 
ENDROOT
BRANCH   1   2
ATOM      2  C   PHE A  3        5.207  -0.859   0.522  0.00  0.00    +0.237 C 
ATOM      3  N   PRO A  4        5.416  -1.910  -0.295  0.00  0.00    -0.288 N 
ATOM      4  CD  PRO A  4        4.367  -2.766  -0.879  0.00  0.00    +0.109 C 
ATOM      5  CG  PRO A  4        5.011  -3.368  -2.153  0.00  0.00    +0.021 C 
ATOM      6  CB  PRO A  4        6.473  -3.595  -1.686  0.00  0.00    +0.033 C 
ATOM      7  CA  PRO A  4        6.727  -2.391  -0.755  0.00  0.00    +0.162 C 
ATOM      8  O   PHE A  3        6.140  -0.167   0.871  0.00  0.00    -0.274 OA
BRANCH   7   9
ATOM      9  C   PRO A  4        7.557  -2.825   0.425  0.00  0.00    +0.234 C 
ATOM     10  N   GLY A  5        8.803  -3.303   0.234  0.00  0.00    -0.303 N 
ATOM     11  H   GLY A  5        9.165  -3.367  -0.664  0.00  0.00    +0.149 HD
ATOM     12  O   PRO A  4        7.104  -2.744   1.548  0.00  0.00    -0.274 OA
BRANCH  10  13
ATOM     13  CA  GLY A  5        9.610  -3.725   1.381  0.00  0.00    +0.224 C 
BRANCH  13  14
ATOM     14  C   GLY A  5       10.951  -4.215   0.899  0.00  0.00    +0.322 C 
ATOM     15  O   GLY A  5       11.208  -4.212  -0.293  0.00  0.00    -0.249 OA
BRANCH  14  16
ATOM     16  OXT GLY A  5       11.778  -4.614   1.700  0.00  0.00    -0.480 OA
ATOM     17  HXT GLY A  5       11.580  -4.617   2.616  0.00  0.00    +0.295 HD
ENDBRANCH  14  16
ENDBRANCH  13  14
ENDBRANCH  10  13
ENDBRANCH   7   9
ENDBRANCH   1   2
BRANCH   1  18
ATOM     18  N   PHE A  3        3.889   0.261   2.224  0.00  0.00    -0.302 N 
ATOM     19  H   PHE A  3        4.665   0.818   2.392  0.00  0.00    +0.150 HD
ATOM     20  C   PRO A  2        2.880   0.225   3.117  0.00  0.00    +0.234 C 
ATOM     21  O   PRO A  2        1.952  -0.540   2.953  0.00  0.00    -0.274 OA
BRANCH  20  22
ATOM     22  CA  PRO A  2        2.904   1.134   4.319  0.00  0.00    +0.162 C 
ATOM     23  CB  PRO A  2        3.656   0.450   5.480  0.00  0.00    +0.033 C 
ATOM     24  CG  PRO A  2        2.830   0.870   6.724  0.00  0.00    +0.021 C 
ATOM     25  CD  PRO A  2        1.390   0.877   6.154  0.00  0.00    +0.108 C 
ATOM     26  N   PRO A  2        1.531   1.393   4.777  0.00  0.00    -0.289 N 
ATOM     27  C   TYR A  1        0.565   2.001   4.059  0.00  0.00    +0.233 C 
ATOM     28  O   TYR A  1        0.768   2.303   2.902  0.00  0.00    -0.274 OA
BRANCH  27  29
ATOM     29  CA  TYR A  1       -0.768   2.304   4.694  0.00  0.00    +0.142 C 
BRANCH  29  30
ATOM     30  N   TYR A  1       -1.776   2.505   3.644  0.00  0.00    -0.320 NA
ATOM     31  H1  TYR A  1       -1.522   3.274   3.042  0.00  0.00    +0.119 HD
ATOM     32  H2  TYR A  1       -2.691   2.646   4.045  0.00  0.00    +0.119 HD
ENDBRANCH  29  30
BRANCH  29  33
ATOM     33  CB  TYR A  1       -0.652   3.573   5.541  0.00  0.00    +0.063 C 
BRANCH  33  34
ATOM     34  CG  TYR A  1       -1.949   3.808   6.273  0.00  0.00    -0.045 A 
ATOM     35  CD2 TYR A  1       -2.946   4.562   5.684  0.00  0.00    +0.007 A 
ATOM     36  CE2 TYR A  1       -4.136   4.779   6.353  0.00  0.00    +0.045 A 
ATOM     37  CZ  TYR A  1       -4.328   4.239   7.616  0.00  0.00    +0.117 A 
ATOM     38  CE1 TYR A  1       -3.325   3.482   8.205  0.00  0.00    +0.045 A 
ATOM     39  CD1 TYR A  1       -2.140   3.264   7.529  0.00  0.00    +0.007 A 
BRANCH  37  40
ATOM     40  OH  TYR A  1       -5.497   4.452   8.277  0.00  0.00    -0.507 OA
ATOM     41  HH  TYR A  1       -6.173   3.783   8.104  0.00  0.00    +0.292 HD
ENDBRANCH  37  40
ENDBRANCH  33  34
ENDBRANCH  29  33
ENDBRANCH  27  29
ENDBRANCH  20  22
ENDBRANCH   1  18
BRANCH   1  42
ATOM     42  CB  PHE A  3        3.070   0.245  -0.080  0.00  0.00    +0.067 C 
BRANCH  42  46
ATOM     43  CZ  PHE A  3        5.127   3.909  -0.849  0.00  0.00    +0.000 A 
ATOM     44  CE1 PHE A  3        5.423   2.781  -1.591  0.00  0.00    +0.000 A 
ATOM     45  CD1 PHE A  3        4.757   1.596  -1.342  0.00  0.00    +0.004 A 
ATOM     46  CG  PHE A  3        3.796   1.538  -0.350  0.00  0.00    -0.045 A 
ATOM     47  CD2 PHE A  3        3.500   2.665   0.393  0.00  0.00    +0.004 A 
ATOM     48  CE2 PHE A  3        4.165   3.851   0.143  0.00  0.00    +0.000 A 
ENDBRANCH  42  46
ENDBRANCH   1  42
TORSDOF 14
