REMARK  Name = ZINC20477318
REMARK                            x       y       z     vdW  Elec       q    Type
REMARK                         _______ _______ _______ _____ _____    ______ ____
ROOT
ATOM      1  N   LIG    1        1.359   2.036   0.000  0.00  0.00    +0.382 N 
ATOM      2  H   LIG    1        1.867   1.609  -0.877  0.00  0.00    -0.081 HD
ATOM      3  C   LIG    1       -0.019   1.526   0.010  0.00  0.00    -0.077 C 
ATOM      4  C   LIG    1        0.002  -0.004   0.002  0.00  0.00    -0.000 C 
ATOM      5  C   LIG    1        0.761  -0.506   1.233  0.00  0.00    +0.050 C 
ATOM      6  C   LIG    1        2.177   0.078   1.224  0.00  0.00    -0.000 C 
ATOM      7  C   LIG    1        2.093   1.605   1.197  0.00  0.00    -0.077 C 
ENDROOT
BRANCH   5   8
ATOM      8  N   LIG    1        0.835  -1.973   1.200  0.00  0.00    -0.310 NA
ATOM      9  H   LIG    1       -0.090  -2.377   0.762  0.00  0.00    +0.122 HD
BRANCH   8  10
ATOM     10  C   LIG    1        0.995  -2.523   2.553  0.00  0.00    +0.108 C 
BRANCH  10  11
ATOM     11  C   LIG    1        1.066  -4.026   2.479  0.00  0.00    -0.011 C 
ATOM     12  C   LIG    1        2.098  -4.667   3.011  0.00  0.00    +0.005 C 
BRANCH  12  13
ATOM     13  C   LIG    1        2.168  -6.142   2.938  0.00  0.00    -0.025 A 
ATOM     14  C   LIG    1        1.148  -6.862   2.316  0.00  0.00    +0.008 A 
ATOM     15  C   LIG    1        1.222  -8.238   2.247  0.00  0.00    +0.001 A 
ATOM     16  C   LIG    1        2.300  -8.905   2.803  0.00  0.00    +0.000 A 
ATOM     17  C   LIG    1        3.312  -8.197   3.426  0.00  0.00    +0.001 A 
ATOM     18  C   LIG    1        3.252  -6.820   3.497  0.00  0.00    +0.008 A 
ENDBRANCH  12  13
ENDBRANCH  10  11
ENDBRANCH   8  10
ENDBRANCH   5   8
BRANCH   1  19
ATOM     19  C   LIG    1        1.378   3.499  -0.132  0.00  0.00    -0.043 C 
BRANCH  19  23
ATOM     20  C   LIG    1        5.343   4.938   0.543  0.00  0.00    +0.000 A 
ATOM     21  C   LIG    1        4.939   4.597  -0.734  0.00  0.00    +0.000 A 
ATOM     22  C   LIG    1        3.656   4.131  -0.953  0.00  0.00    +0.002 A 
ATOM     23  C   LIG    1        2.776   4.006   0.106  0.00  0.00    -0.064 A 
ATOM     24  C   LIG    1        3.178   4.353   1.383  0.00  0.00    +0.002 A 
ATOM     25  C   LIG    1        4.463   4.814   1.602  0.00  0.00    +0.000 A 
ENDBRANCH  19  23
ENDBRANCH   1  19
TORSDOF 6
