REMARK  Name = ZINC30691792
REMARK                            x       y       z     vdW  Elec       q    Type
REMARK                         _______ _______ _______ _____ _____    ______ ____
ROOT
ATOM      1  C   LIG    1        4.854  -2.999   0.369  0.00  0.00    +0.154 C 
ATOM      2  N   LIG    1        3.571  -2.299   0.274  0.00  0.00    -0.293 N 
ATOM      3  C   LIG    1        2.405  -3.021   0.285  0.00  0.00    +0.148 A 
ATOM      4  C   LIG    1        1.166  -2.349   0.193  0.00  0.00    +0.039 A 
ATOM      5  C   LIG    1       -0.012  -3.104   0.206  0.00  0.00    +0.126 A 
ATOM      6  N   LIG    1        0.084  -4.418   0.303  0.00  0.00    -0.222 NA
ATOM      7  C   LIG    1        1.266  -5.018   0.388  0.00  0.00    +0.217 A 
ATOM      8  C   LIG    1        1.150  -0.893   0.088  0.00  0.00    +0.065 A 
ATOM      9  C   LIG    1        2.341  -0.233   0.082  0.00  0.00    +0.193 A 
ATOM     10  N   LIG    1        2.407  -4.345   0.380  0.00  0.00    -0.196 NA
ATOM     11  C   LIG    1        3.554  -0.958   0.171  0.00  0.00    +0.295 A 
ATOM     12  O   LIG    1        4.610  -0.350   0.160  0.00  0.00    -0.264 OA
ENDROOT
BRANCH   7  13
ATOM     13  N   LIG    1        1.307  -6.395   0.488  0.00  0.00    -0.310 N 
ATOM     14  H   LIG    1        2.275  -6.912   0.559  0.00  0.00    +0.149 HD
BRANCH  13  15
ATOM     15  C   LIG    1        0.062  -7.166   0.499  0.00  0.00    +0.077 C 
BRANCH  15  16
ATOM     16  C   LIG    1       -0.488  -7.226   1.926  0.00  0.00    +0.050 C 
BRANCH  16  17
ATOM     17  C   LIG    1       -0.879  -5.818   2.381  0.00  0.00    +0.157 C 
BRANCH  17  18
ATOM     18  O   LIG    1       -1.393  -5.874   3.713  0.00  0.00    -0.395 OA
ATOM     19  H   LIG    1       -1.728  -4.952   4.212  0.00  0.00    +0.209 HD
ENDBRANCH  17  18
ENDBRANCH  16  17
ENDBRANCH  15  16
BRANCH  15  20
ATOM     20  C   LIG    1        0.337  -8.586  -0.001  0.00  0.00    +0.050 C 
BRANCH  20  21
ATOM     21  C   LIG    1        0.768  -8.535  -1.468  0.00  0.00    +0.157 C 
BRANCH  21  22
ATOM     22  O   LIG    1        1.024  -9.861  -1.935  0.00  0.00    -0.395 OA
ATOM     23  H   LIG    1        1.347 -10.025  -2.974  0.00  0.00    +0.209 HD
ENDBRANCH  21  22
ENDBRANCH  20  21
ENDBRANCH  15  20
ENDBRANCH  13  15
ENDBRANCH   7  13
BRANCH   9  24
ATOM     24  O   LIG    1        2.366   1.123  -0.015  0.00  0.00    -0.448 OA
BRANCH  24  25
ATOM     25  C   LIG    1        1.179   1.786   0.011  0.00  0.00    +0.164 A 
ATOM     26  C   LIG    1        0.596   2.211  -1.173  0.00  0.00    +0.052 A 
ATOM     27  C   LIG    1       -0.607   2.890  -1.146  0.00  0.00    +0.042 A 
ATOM     28  C   LIG    1       -1.236   3.139   0.063  0.00  0.00    +0.126 A 
ATOM     29  F   LIG    1       -2.414   3.799   0.087  0.00  0.00    -0.205 F 
ATOM     30  C   LIG    1       -0.656   2.716   1.246  0.00  0.00    +0.080 A 
ATOM     31  C   LIG    1        0.550   2.040   1.223  0.00  0.00    +0.168 A 
ATOM     32  F   LIG    1        1.117   1.627   2.378  0.00  0.00    -0.202 F 
ENDBRANCH  24  25
ENDBRANCH   9  24
TORSDOF 10
