REMARK  Name = ZINC00057908
REMARK                            x       y       z     vdW  Elec       q    Type
REMARK                         _______ _______ _______ _____ _____    ______ ____
ROOT
ATOM      1  C   LIG    1       -0.018   1.460   0.010  0.00  0.00    +0.018 A 
ATOM      2  C   LIG    1        1.171   2.118   0.002  0.00  0.00    +0.092 A 
ATOM      3  C   LIG    1        2.377   1.388  -0.013  0.00  0.00    +0.337 A 
ATOM      4  O   LIG    1        2.388   0.046  -0.020  0.00  0.00    -0.422 OA
ATOM      5  C   LIG    1        1.242  -0.669  -0.013  0.00  0.00    +0.143 A 
ATOM      6  C   LIG    1        1.275  -2.056  -0.021  0.00  0.00    +0.096 A 
ATOM      7  C   LIG    1        0.093  -2.776  -0.014  0.00  0.00    +0.162 A 
ATOM      8  C   LIG    1       -1.139  -2.117   0.001  0.00  0.00    +0.159 A 
ATOM      9  C   LIG    1       -1.189  -0.740   0.009  0.00  0.00    +0.060 A 
ATOM     10  O   LIG    1        3.435   1.991  -0.020  0.00  0.00    -0.245 OA
ATOM     11  C   LIG    1        0.002  -0.004   0.002  0.00  0.00    +0.021 A 
ENDROOT
BRANCH   7  12
ATOM     12  O   LIG    1        0.132  -4.134  -0.022  0.00  0.00    -0.503 OA
ATOM     13  H   LIG    1        0.135  -4.522  -0.907  0.00  0.00    +0.292 HD
ENDBRANCH   7  12
BRANCH   8  14
ATOM     14  O   LIG    1       -2.293  -2.838   0.007  0.00  0.00    -0.503 OA
ATOM     15  H   LIG    1       -2.635  -3.041  -0.874  0.00  0.00    +0.292 HD
ENDBRANCH   8  14
TORSDOF 2
