REMARK  Name = ZINC18187616
REMARK                            x       y       z     vdW  Elec       q    Type
REMARK                         _______ _______ _______ _____ _____    ______ ____
ROOT
ATOM      1  C   LIG    1       -0.018   1.503   0.010  0.00  0.00    +0.042 C 
ATOM      2  C   LIG    1        1.264   1.869   0.000  0.00  0.00    +0.194 C 
ATOM      3  N   LIG    1        2.105   0.803   0.026  0.00  0.00    -0.251 N 
ATOM      4  H   LIG    1        3.067   0.874  -0.075  0.00  0.00    +0.310 HD
ATOM      5  C   LIG    1        1.491  -0.304   0.197  0.00  0.00    +0.269 C 
ATOM      6  N   LIG    1        1.875  -1.583   0.535  0.00  0.00    -0.152 N 
ATOM      7  H   LIG    1        2.622  -2.043   0.123  0.00  0.00    +0.304 HD
ATOM      8  C   LIG    1        1.083  -2.143   1.523  0.00  0.00    +0.397 C 
ATOM      9  N   LIG    1       -0.096  -1.636   1.824  0.00  0.00    +0.001 NA
ATOM     10  C   LIG    1       -0.678  -0.611   1.202  0.00  0.00    +0.329 C 
ATOM     11  O   LIG    1       -1.741  -0.173   1.597  0.00  0.00    -0.253 OA
ATOM     12  C   LIG    1        0.002  -0.004   0.002  0.00  0.00    +0.232 C 
ENDROOT
BRANCH   8  13
ATOM     13  N   LIG    1        1.531  -3.239   2.197  0.00  0.00    -0.246 N 
ATOM     14  H   LIG    1        2.410  -3.626   1.980  0.00  0.00    +0.242 HD
ATOM     15  H   LIG    1        0.984  -3.639   2.891  0.00  0.00    +0.242 HD
ENDBRANCH   8  13
TORSDOF 1
