REMARK  Name = ZINC16052617
REMARK                            x       y       z     vdW  Elec       q    Type
REMARK                         _______ _______ _______ _____ _____    ______ ____
ROOT
ATOM      1  C   LIG    1       10.123  -2.641  -2.268  0.00  0.00    -0.051 C 
ENDROOT
BRANCH   1   2
ATOM      2  N   LIG    1        9.973  -1.778  -3.453  0.00  0.00    +0.381 N 
ATOM      3  H   LIG    1       10.767  -1.130  -3.501  0.00  0.00    -0.090 HD
ATOM      4  H   LIG    1        9.109  -1.242  -3.387  0.00  0.00    -0.090 HD
ATOM      5  H   LIG    1        9.956  -2.346  -4.298  0.00  0.00    -0.090 HD
ENDBRANCH   1   2
BRANCH   1   6
ATOM      6  C   LIG    1        8.979  -3.654  -2.195  0.00  0.00    +0.020 C 
BRANCH   6  10
ATOM      7  C   LIG    1        5.287  -1.589  -1.586  0.00  0.00    +0.121 A 
ATOM      8  C   LIG    1        6.040  -2.003  -0.496  0.00  0.00    +0.046 A 
ATOM      9  C   LIG    1        7.230  -2.675  -0.696  0.00  0.00    +0.007 A 
ATOM     10  C   LIG    1        7.677  -2.925  -1.980  0.00  0.00    -0.049 A 
ATOM     11  C   LIG    1        6.931  -2.509  -3.068  0.00  0.00    +0.007 A 
ATOM     12  C   LIG    1        5.738  -1.841  -2.873  0.00  0.00    +0.046 A 
BRANCH   7  13
ATOM     13  O   LIG    1        4.113  -0.932  -1.392  0.00  0.00    -0.487 OA
BRANCH  13  14
ATOM     14  C   LIG    1        3.711  -0.707  -0.039  0.00  0.00    +0.264 C 
BRANCH  14  18
ATOM     15  C   LIG    1       -0.017   1.378   0.010  0.00  0.00    +0.000 A 
ATOM     16  C   LIG    1        1.171   2.086   0.002  0.00  0.00    +0.000 A 
ATOM     17  C   LIG    1        2.377   1.411  -0.014  0.00  0.00    +0.007 A 
ATOM     18  C   LIG    1        2.396   0.029  -0.022  0.00  0.00    -0.010 A 
ATOM     19  C   LIG    1        1.208  -0.679  -0.014  0.00  0.00    +0.007 A 
ATOM     20  C   LIG    1        0.002  -0.004   0.002  0.00  0.00    +0.000 A 
ENDBRANCH  14  18
ENDBRANCH  13  14
ENDBRANCH   7  13
ENDBRANCH   6  10
ENDBRANCH   1   6
BRANCH   1  21
ATOM     21  C   LIG    1       11.457  -3.385  -2.361  0.00  0.00    +0.124 C 
BRANCH  21  22
ATOM     22  N   LIG    1       12.543  -2.420  -2.550  0.00  0.00    -0.185 N 
ATOM     23  C   LIG    1       12.965  -1.669  -1.514  0.00  0.00    +0.238 C 
ATOM     24  O   LIG    1       12.446  -1.792  -0.425  0.00  0.00    -0.274 OA
BRANCH  22  25
ATOM     25  O   LIG    1       13.148  -2.276  -3.822  0.00  0.00    -0.293 OA
ATOM     26  H   LIG    1       13.854  -1.616  -3.849  0.00  0.00    +0.242 HD
ENDBRANCH  22  25
BRANCH  23  27
ATOM     27  C   LIG    1       14.081  -0.675  -1.709  0.00  0.00    +0.098 C 
BRANCH  27  28
ATOM     28  C   LIG    1       14.364   0.040  -0.387  0.00  0.00    +0.010 C 
BRANCH  28  29
ATOM     29  C   LIG    1       15.498   1.048  -0.585  0.00  0.00    +0.012 C 
BRANCH  29  30
ATOM     30  C   LIG    1       15.780   1.764   0.738  0.00  0.00    +0.120 C 
BRANCH  30  31
ATOM     31  C   LIG    1       16.897   2.757   0.543  0.00  0.00    +0.305 C 
ATOM     32  O   LIG    1       17.414   2.880  -0.542  0.00  0.00    -0.251 OA
BRANCH  31  33
ATOM     33  O   LIG    1       17.318   3.505   1.575  0.00  0.00    -0.481 OA
ATOM     34  H   LIG    1       16.917   3.410   2.417  0.00  0.00    +0.295 HD
ENDBRANCH  31  33
ENDBRANCH  30  31
ENDBRANCH  29  30
ENDBRANCH  28  29
ENDBRANCH  27  28
ENDBRANCH  23  27
ENDBRANCH  21  22
ENDBRANCH   1  21
TORSDOF 15
