REMARK  Name = ZINC00001995
REMARK                            x       y       z     vdW  Elec       q    Type
REMARK                         _______ _______ _______ _____ _____    ______ ____
ROOT
ATOM      1  C   LIG    1       -1.313   2.037  -0.826  0.00  0.00    +0.044 C 
ATOM      2  C   LIG    1        0.000   1.328  -0.618  0.00  0.00    -0.048 A 
ATOM      3  C   LIG    1        1.184   2.052  -0.646  0.00  0.00    +0.004 A 
ATOM      4  C   LIG    1        2.388   1.429  -0.465  0.00  0.00    +0.012 A 
ATOM      5  C   LIG    1        2.424   0.050  -0.251  0.00  0.00    +0.025 A 
ATOM      6  C   LIG    1        1.224  -0.688  -0.223  0.00  0.00    +0.056 A 
ATOM      7  N   LIG    1        1.294  -2.051  -0.009  0.00  0.00    -0.289 N 
ATOM      8  C   LIG    1        2.486  -2.648   0.167  0.00  0.00    +0.350 A 
ATOM      9  N   LIG    1        3.641  -1.981   0.147  0.00  0.00    -0.192 NA
ATOM     10  O   LIG    1        2.513  -3.852   0.353  0.00  0.00    -0.244 OA
ATOM     11  C   LIG    1        3.687  -0.672  -0.050  0.00  0.00    +0.085 A 
ATOM     12  C   LIG    1        0.013  -0.036  -0.408  0.00  0.00    +0.030 A 
ENDROOT
BRANCH  11  13
ATOM     13  C   LIG    1        4.979   0.045  -0.069  0.00  0.00    +0.001 A 
ATOM     14  C   LIG    1        5.203   1.063  -0.998  0.00  0.00    +0.010 A 
ATOM     15  C   LIG    1        6.410   1.732  -1.006  0.00  0.00    +0.001 A 
ATOM     16  C   LIG    1        7.401   1.388  -0.104  0.00  0.00    +0.000 A 
ATOM     17  C   LIG    1        7.188   0.376   0.816  0.00  0.00    +0.001 A 
ATOM     18  C   LIG    1        5.984  -0.297   0.838  0.00  0.00    +0.010 A 
ENDBRANCH  11  13
BRANCH   7  19
ATOM     19  C   LIG    1        0.066  -2.848   0.027  0.00  0.00    +0.086 C 
ATOM     20  C   LIG    1       -0.061  -3.529   1.391  0.00  0.00    +0.031 C 
ATOM     21  C   LIG    1        0.116  -3.912  -1.072  0.00  0.00    +0.031 C 
ENDBRANCH   7  19
TORSDOF 2
