REMARK  Name = ZINC20289402
REMARK                            x       y       z     vdW  Elec       q    Type
REMARK                         _______ _______ _______ _____ _____    ______ ____
ROOT
ATOM      1  C   LIG    1        0.918   5.160   0.021  0.00  0.00    +0.114 C 
ENDROOT
BRANCH   1   2
ATOM      2  N   LIG    1        2.073   5.277  -0.880  0.00  0.00    -0.290 NA
ATOM      3  C   LIG    1        2.641   6.632  -0.834  0.00  0.00    +0.104 C 
ATOM      4  C   LIG    1        3.886   6.690  -1.723  0.00  0.00    +0.120 C 
ATOM      5  N   LIG    1        3.521   6.321  -3.098  0.00  0.00    -0.327 N 
ATOM      6  C   LIG    1        2.953   4.967  -3.143  0.00  0.00    +0.120 C 
ATOM      7  C   LIG    1        1.708   4.909  -2.255  0.00  0.00    +0.104 C 
BRANCH   5   8
ATOM      8  C   LIG    1        4.621   6.433  -3.955  0.00  0.00    +0.030 A 
ATOM      9  C   LIG    1        5.035   5.336  -4.700  0.00  0.00    +0.027 A 
ATOM     10  C   LIG    1        6.117   5.449  -5.551  0.00  0.00    +0.047 A 
ATOM     11  C   LIG    1        6.798   6.653  -5.653  0.00  0.00    +0.120 A 
ATOM     12  C   LIG    1        6.388   7.747  -4.905  0.00  0.00    +0.047 A 
ATOM     13  C   LIG    1        5.303   7.638  -4.058  0.00  0.00    +0.027 A 
BRANCH  11  14
ATOM     14  O   LIG    1        7.867   6.761  -6.486  0.00  0.00    -0.495 OA
ATOM     15  C   LIG    1        8.234   5.595  -7.226  0.00  0.00    +0.277 C 
ENDBRANCH  11  14
ENDBRANCH   5   8
ENDBRANCH   1   2
BRANCH   1  16
ATOM     16  C   LIG    1        0.421   3.738   0.017  0.00  0.00    +0.009 A 
ATOM     17  C   LIG    1       -0.855   3.279   0.027  0.00  0.00    +0.013 A 
ATOM     18  C   LIG    1       -1.077   1.915   0.017  0.00  0.00    +0.008 A 
ATOM     19  C   LIG    1       -0.013   1.076   0.008  0.00  0.00    +0.045 A 
ATOM     20  S   LIG    1        1.359   2.219   0.001  0.00  0.00    -0.100 S 
ENDBRANCH   1  16
BRANCH   1  22
ATOM     21  C   LIG    1        2.534   4.703   1.870  0.00  0.00    +0.030 C 
ATOM     22  C   LIG    1        1.336   5.551   1.439  0.00  0.00    +0.092 C 
BRANCH  22  23
ATOM     23  N   LIG    1        0.219   5.321   2.359  0.00  0.00    -0.303 N 
ATOM     24  H   LIG    1       -0.553   4.577   2.111  0.00  0.00    +0.149 HD
ATOM     25  C   LIG    1        0.137   6.021   3.508  0.00  0.00    +0.299 C 
ATOM     26  O   LIG    1        0.988   6.841   3.781  0.00  0.00    -0.265 OA
BRANCH  25  27
ATOM     27  C   LIG    1       -1.003   5.786   4.446  0.00  0.00    +0.299 C 
ATOM     28  N   LIG    1       -1.085   6.485   5.595  0.00  0.00    -0.300 N 
ATOM     29  H   LIG    1       -0.314   7.229   5.842  0.00  0.00    +0.150 HD
ATOM     30  O   LIG    1       -1.855   4.965   4.172  0.00  0.00    -0.265 OA
BRANCH  28  31
ATOM     31  C   LIG    1       -2.203   6.255   6.514  0.00  0.00    +0.179 C 
BRANCH  31  32
ATOM     32  C   LIG    1       -2.060   7.156   7.713  0.00  0.00    +0.122 A 
ATOM     33  C   LIG    1       -2.565   8.398   7.829  0.00  0.00    +0.046 A 
ATOM     34  C   LIG    1       -2.195   8.873   9.108  0.00  0.00    +0.041 A 
ATOM     35  C   LIG    1       -1.486   7.894   9.697  0.00  0.00    +0.195 A 
ATOM     36  O   LIG    1       -1.413   6.854   8.850  0.00  0.00    -0.466 OA
ENDBRANCH  31  32
ENDBRANCH  28  31
ENDBRANCH  25  27
ENDBRANCH  22  23
ENDBRANCH   1  22
TORSDOF 9
