REMARK  Name = ZINC15821823
REMARK                            x       y       z     vdW  Elec       q    Type
REMARK                         _______ _______ _______ _____ _____    ______ ____
ROOT
ATOM      1  C   LIG    1        1.248   1.716  -0.001  0.00  0.00    +0.137 C 
ENDROOT
BRANCH   1   2
ATOM      2  C   LIG    1        2.316   0.912   0.695  0.00  0.00    +0.022 A 
ATOM      3  C   LIG    1        2.258  -0.479   0.662  0.00  0.00    +0.030 A 
ATOM      4  C   LIG    1        3.208  -1.235   1.280  0.00  0.00    +0.051 A 
ATOM      5 CL   LIG    1        3.117  -2.967   1.225  0.00  0.00    -0.083 Cl
ATOM      6  C   LIG    1        4.263  -0.605   1.963  0.00  0.00    +0.022 A 
ATOM      7  C   LIG    1        5.263  -1.351   2.614  0.00  0.00    +0.013 A 
ATOM      8  C   LIG    1        6.258  -0.671   3.257  0.00  0.00    +0.020 A 
ATOM      9  C   LIG    1        6.261   0.722   3.256  0.00  0.00    +0.111 A 
ATOM     10  N   LIG    1        5.328   1.413   2.648  0.00  0.00    -0.251 NA
ATOM     11  C   LIG    1        4.327   0.810   2.001  0.00  0.00    +0.114 A 
ATOM     12  C   LIG    1        3.328   1.558   1.344  0.00  0.00    +0.148 A 
BRANCH  12  13
ATOM     13  O   LIG    1        3.370   2.917   1.362  0.00  0.00    -0.504 OA
ATOM     14  H   LIG    1        2.903   3.315   2.108  0.00  0.00    +0.292 HD
ENDBRANCH  12  13
ENDBRANCH   1   2
BRANCH   1  19
ATOM     15  C   LIG    1        2.962   2.942  -5.381  0.00  0.00    +0.044 C 
ATOM     16  C   LIG    1        2.514   2.623  -3.978  0.00  0.00    -0.050 A 
ATOM     17  C   LIG    1        2.629   3.574  -2.982  0.00  0.00    +0.004 A 
ATOM     18  C   LIG    1        2.219   3.281  -1.695  0.00  0.00    +0.006 A 
ATOM     19  C   LIG    1        1.694   2.036  -1.404  0.00  0.00    -0.023 A 
ATOM     20  C   LIG    1        1.584   1.082  -2.399  0.00  0.00    +0.006 A 
ATOM     21  C   LIG    1        1.989   1.378  -3.687  0.00  0.00    +0.004 A 
ENDBRANCH   1  19
BRANCH   1  22
ATOM     22  N   LIG    1        0.006   0.940  -0.048  0.00  0.00    -0.302 N 
ATOM     23  H   LIG    1        0.039  -0.030  -0.047  0.00  0.00    +0.150 HD
ATOM     24  C   LIG    1       -1.183   1.573  -0.100  0.00  0.00    +0.251 C 
ATOM     25  O   LIG    1       -1.225   2.785  -0.101  0.00  0.00    -0.272 OA
BRANCH  24  26
ATOM     26  C   LIG    1       -2.460   0.775  -0.155  0.00  0.00    +0.324 C 
BRANCH  26  27
ATOM     27  O   LIG    1       -3.576   1.666  -0.203  0.00  0.00    -0.483 OA
BRANCH  27  28
ATOM     28  C   LIG    1       -4.813   1.104  -0.257  0.00  0.00    +0.121 A 
ATOM     29  C   LIG    1       -4.948  -0.277  -0.269  0.00  0.00    +0.045 A 
ATOM     30  C   LIG    1       -6.206  -0.846  -0.317  0.00  0.00    +0.004 A 
ATOM     31  C   LIG    1       -7.329  -0.041  -0.366  0.00  0.00    +0.000 A 
ATOM     32  C   LIG    1       -7.196   1.335  -0.360  0.00  0.00    +0.004 A 
ATOM     33  C   LIG    1       -5.941   1.909  -0.306  0.00  0.00    +0.045 A 
ENDBRANCH  27  28
ENDBRANCH  26  27
ENDBRANCH  24  26
ENDBRANCH   1  22
TORSDOF 7
