REMARK  Name = ZINC17425942
REMARK                            x       y       z     vdW  Elec       q    Type
REMARK                         _______ _______ _______ _____ _____    ______ ____
ROOT
ATOM      1  C   LIG    1        3.796  -0.912  -0.039  0.00  0.00    +0.001 A 
ATOM      2  C   LIG    1        4.958  -0.156  -0.047  0.00  0.00    +0.001 A 
ATOM      3  C   LIG    1        4.901   1.222  -0.039  0.00  0.00    +0.014 A 
ATOM      4  C   LIG    1        3.661   1.860  -0.023  0.00  0.00    +0.047 A 
ATOM      5  C   LIG    1        2.481   1.089  -0.016  0.00  0.00    -0.004 A 
ATOM      6  C   LIG    1        1.183   1.792   0.000  0.00  0.00    +0.008 A 
ATOM      7  C   LIG    1       -0.013   1.076   0.008  0.00  0.00    +0.033 A 
ATOM      8  C   LIG    1       -1.219   1.754   0.017  0.00  0.00    +0.025 A 
ATOM      9  C   LIG    1       -1.236   3.146   0.031  0.00  0.00    +0.025 A 
ATOM     10  C   LIG    1       -0.058   3.860   0.023  0.00  0.00    +0.028 A 
ATOM     11  C   LIG    1        1.164   3.194   0.008  0.00  0.00    +0.050 A 
ATOM     12  N   LIG    1        2.346   3.920  -0.001  0.00  0.00    -0.322 N 
ATOM     13  H   LIG    1        2.316   5.019   0.005  0.00  0.00    +0.169 HD
ATOM     14  C   LIG    1        3.553   3.326  -0.015  0.00  0.00    +0.257 A 
ATOM     15  O   LIG    1        4.561   4.007  -0.021  0.00  0.00    -0.267 OA
ATOM     16  C   LIG    1        2.560  -0.299  -0.024  0.00  0.00    +0.009 A 
ENDROOT
BRANCH   8  17
ATOM     17  N   LIG    1       -2.422   1.040   0.019  0.00  0.00    -0.358 N 
ATOM     18  H   LIG    1       -2.409  -0.060   0.013  0.00  0.00    +0.142 HD
ATOM     19  H   LIG    1       -3.381   1.579   0.026  0.00  0.00    +0.142 HD
ENDBRANCH   8  17
TORSDOF 1
