REMARK  Name = ZINC43172197
REMARK                            x       y       z     vdW  Elec       q    Type
REMARK                         _______ _______ _______ _____ _____    ______ ____
ROOT
ATOM      1  C   LIG    1        8.207  -4.148  -2.061  0.00  0.00    -0.079 C 
ENDROOT
BRANCH   1   5
ATOM      2  N   LIG    1        4.916  -2.516  -0.060  0.00  0.00    -0.319 N 
ATOM      3  C   LIG    1        6.156  -1.725  -0.062  0.00  0.00    +0.088 C 
ATOM      4  C   LIG    1        7.055  -2.234  -1.193  0.00  0.00    -0.060 C 
ATOM      5  N   LIG    1        7.259  -3.680  -1.042  0.00  0.00    +0.382 N 
ATOM      6  H   LIG    1        7.632  -3.872  -0.125  0.00  0.00    -0.082 HD
ATOM      7  C   LIG    1        5.981  -4.385  -1.205  0.00  0.00    -0.060 C 
ATOM      8  C   LIG    1        5.029  -3.982  -0.069  0.00  0.00    +0.088 C 
BRANCH   2  16
ATOM      9  C   LIG    1       -0.029   1.339  -0.225  0.00  0.00    +0.001 A 
ATOM     10  C   LIG    1        1.146   2.053  -0.453  0.00  0.00    +0.002 A 
ATOM     11  C   LIG    1        2.355   1.428  -0.465  0.00  0.00    +0.028 A 
ATOM     12  C   LIG    1        2.427   0.042  -0.244  0.00  0.00    +0.073 A 
ATOM     13  C   LIG    1        1.231  -0.681  -0.012  0.00  0.00    +0.001 A 
ATOM     14  C   LIG    1        1.302  -2.072   0.209  0.00  0.00    +0.013 A 
ATOM     15  C   LIG    1        2.528  -2.667   0.191  0.00  0.00    +0.044 A 
ATOM     16  C   LIG    1        3.675  -1.896  -0.044  0.00  0.00    +0.122 A 
ATOM     17  N   LIG    1        3.602  -0.597  -0.250  0.00  0.00    -0.232 NA
ATOM     18  C   LIG    1        0.002  -0.005  -0.008  0.00  0.00    +0.010 A 
ENDBRANCH   2  16
ENDBRANCH   1   5
BRANCH   1  19
ATOM     19  C   LIG    1        8.517  -5.629  -1.829  0.00  0.00    -0.018 C 
BRANCH  19  20
ATOM     20  C   LIG    1        9.505  -6.116  -2.890  0.00  0.00    +0.006 C 
BRANCH  20  21
ATOM     21  C   LIG    1        9.814  -7.596  -2.657  0.00  0.00    +0.076 C 
BRANCH  21  22
ATOM     22  C   LIG    1       10.788  -8.077  -3.702  0.00  0.00    +0.130 A 
ATOM     23  N   LIG    1       11.220  -7.241  -4.604  0.00  0.00    -0.237 NA
ATOM     24  C   LIG    1       12.089  -7.610  -5.559  0.00  0.00    +0.052 A 
ATOM     25  C   LIG    1       12.541  -8.886  -5.589  0.00  0.00    +0.040 A 
ATOM     26  C   LIG    1       13.531  -9.383  -6.606  0.00  0.00    +0.042 C 
ATOM     27  C   LIG    1       13.595  -8.433  -7.802  0.00  0.00    +0.005 C 
ATOM     28  C   LIG    1       13.795  -7.007  -7.275  0.00  0.00    +0.006 C 
ATOM     29  C   LIG    1       12.068  -9.797  -4.614  0.00  0.00    +0.274 A 
ATOM     30  O   LIG    1       12.446 -10.957  -4.615  0.00  0.00    -0.266 OA
ATOM     31  C   LIG    1       12.515  -6.572  -6.563  0.00  0.00    +0.056 C 
ATOM     32  N   LIG    1       11.197  -9.360  -3.682  0.00  0.00    -0.219 N 
BRANCH  32  33
ATOM     33  N   LIG    1       10.729 -10.216  -2.726  0.00  0.00    -0.294 N 
ATOM     34  H   LIG    1       10.910  -9.857  -1.800  0.00  0.00    +0.163 HD
ATOM     35  H   LIG    1       11.124 -11.137  -2.840  0.00  0.00    +0.163 HD
ENDBRANCH  32  33
ENDBRANCH  21  22
ENDBRANCH  20  21
ENDBRANCH  19  20
ENDBRANCH   1  19
TORSDOF 7
