REMARK  Name = ZINC16051516
REMARK                            x       y       z     vdW  Elec       q    Type
REMARK                         _______ _______ _______ _____ _____    ______ ____
ROOT
ATOM      1  C   LIG    1       -0.017   1.380   0.010  0.00  0.00    +0.000 A 
ATOM      2  C   LIG    1        1.168   2.096   0.002  0.00  0.00    +0.001 A 
ATOM      3  C   LIG    1        2.377   1.434  -0.013  0.00  0.00    +0.008 A 
ATOM      4  C   LIG    1        2.405   0.035  -0.021  0.00  0.00    -0.025 A 
ATOM      5  C   LIG    1        1.203  -0.681  -0.013  0.00  0.00    +0.008 A 
ATOM      6  C   LIG    1        0.002  -0.004   0.002  0.00  0.00    +0.001 A 
ENDROOT
BRANCH   4   7
ATOM      7  C   LIG    1        3.691  -0.679  -0.037  0.00  0.00    +0.015 C 
ATOM      8  C   LIG    1        3.713  -2.030  -0.045  0.00  0.00    +0.092 C 
BRANCH   8   9
ATOM      9  C   LIG    1        4.951  -2.717  -0.060  0.00  0.00    +0.330 C 
ATOM     10  O   LIG    1        6.002  -2.087  -0.068  0.00  0.00    -0.246 OA
BRANCH   9  11
ATOM     11  O   LIG    1        4.972  -3.942  -0.067  0.00  0.00    -0.478 OA
ATOM     12  H   LIG    1        4.168  -4.424  -0.062  0.00  0.00    +0.295 HD
ENDBRANCH   9  11
ENDBRANCH   8   9
ENDBRANCH   4   7
TORSDOF 3
