REMARK  Name = ZINC39300628
REMARK                            x       y       z     vdW  Elec       q    Type
REMARK                         _______ _______ _______ _____ _____    ______ ____
ROOT
ATOM      1  C   LIG    1       -0.869  -5.529   1.424  0.00  0.00    +0.045 C 
ATOM      2  C   LIG    1        0.428  -5.733   2.164  0.00  0.00    -0.029 A 
ATOM      3  C   LIG    1        1.208  -6.852   1.891  0.00  0.00    +0.006 A 
ATOM      4  C   LIG    1        2.386  -7.067   2.541  0.00  0.00    +0.012 A 
ATOM      5  C   LIG    1        2.829  -6.149   3.503  0.00  0.00    +0.024 A 
ATOM      6  C   LIG    1        2.044  -5.005   3.791  0.00  0.00    +0.008 A 
ATOM      7  C   LIG    1        2.512  -4.100   4.761  0.00  0.00    +0.030 A 
ATOM      8  C   LIG    1        3.695  -4.357   5.383  0.00  0.00    +0.113 A 
ATOM      9  N   LIG    1        4.417  -5.434   5.101  0.00  0.00    -0.240 NA
ATOM     10  C   LIG    1        4.043  -6.326   4.204  0.00  0.00    +0.131 A 
ATOM     11  C   LIG    1        0.833  -4.803   3.100  0.00  0.00    +0.043 A 
ENDROOT
BRANCH  10  12
ATOM     12  N   LIG    1        4.837  -7.433   3.951  0.00  0.00    -0.299 N 
ATOM     13  H   LIG    1        4.602  -8.045   3.235  0.00  0.00    +0.154 HD
BRANCH  12  14
ATOM     14  C   LIG    1        5.976  -7.669   4.726  0.00  0.00    +0.032 A 
ATOM     15  C   LIG    1        5.987  -7.319   6.071  0.00  0.00    +0.025 A 
ATOM     16  C   LIG    1        7.113  -7.552   6.834  0.00  0.00    +0.022 A 
ATOM     17  C   LIG    1        8.230  -8.135   6.262  0.00  0.00    +0.041 A 
ATOM     18 CL   LIG    1        9.645  -8.428   7.225  0.00  0.00    -0.084 Cl
ATOM     19  C   LIG    1        8.222  -8.485   4.923  0.00  0.00    +0.022 A 
ATOM     20  C   LIG    1        7.096  -8.259   4.156  0.00  0.00    +0.025 A 
ENDBRANCH  12  14
ENDBRANCH  10  12
BRANCH  11  21
ATOM     21  N   LIG    1        0.048  -3.680   3.365  0.00  0.00    -0.298 N 
ATOM     22  H   LIG    1       -0.883  -3.665   3.095  0.00  0.00    +0.154 HD
BRANCH  21  23
ATOM     23  C   LIG    1        0.601  -2.586   4.012  0.00  0.00    +0.132 A 
ATOM     24  C   LIG    1        1.644  -1.869   3.405  0.00  0.00    +0.043 A 
ATOM     25  C   LIG    1        2.184  -0.770   4.075  0.00  0.00    +0.015 A 
ATOM     26  C   LIG    1        1.665  -0.433   5.315  0.00  0.00    +0.020 A 
ATOM     27  C   LIG    1        0.637  -1.187   5.849  0.00  0.00    +0.113 A 
ATOM     28  N   LIG    1        0.138  -2.219   5.197  0.00  0.00    -0.240 NA
BRANCH  24  29
ATOM     29  C   LIG    1        2.161  -2.272   2.078  0.00  0.00    +0.103 A 
ATOM     30  C   LIG    1        2.354  -1.325   1.068  0.00  0.00    +0.111 A 
ATOM     31  C   LIG    1        2.849  -1.758  -0.176  0.00  0.00    +0.181 A 
ATOM     32  N   LIG    1        3.115  -3.056  -0.341  0.00  0.00    -0.215 NA
ATOM     33  C   LIG    1        2.919  -3.911   0.639  0.00  0.00    +0.224 A 
ATOM     34  N   LIG    1        2.940  -0.668  -0.960  0.00  0.00    -0.216 NA
ATOM     35  C   LIG    1        2.544   0.384  -0.300  0.00  0.00    +0.199 A 
ATOM     36  N   LIG    1        2.173   0.035   0.953  0.00  0.00    -0.341 N 
ATOM     37  H   LIG    1        1.841   0.632   1.643  0.00  0.00    +0.167 HD
ATOM     38  N   LIG    1        2.461  -3.545   1.821  0.00  0.00    -0.233 NA
ENDBRANCH  24  29
ENDBRANCH  21  23
ENDBRANCH  11  21
TORSDOF 5
