REMARK  Name = ZINC44119558
REMARK                            x       y       z     vdW  Elec       q    Type
REMARK                         _______ _______ _______ _____ _____    ______ ____
ROOT
ATOM      1  C   LIG    1       -0.018   1.503   0.010  0.00  0.00    +0.066 C 
ATOM      2  C   LIG    1        0.002  -0.004   0.002  0.00  0.00    +0.044 A 
ATOM      3  C   LIG    1        0.006  -0.696  -1.195  0.00  0.00    +0.051 A 
ATOM      4  C   LIG    1        0.026  -2.094  -1.157  0.00  0.00    +0.080 A 
ATOM      5  N   LIG    1        0.040  -2.706   0.026  0.00  0.00    -0.215 NA
ATOM      6  C   LIG    1        0.035  -2.004   1.148  0.00  0.00    +0.213 A 
ATOM      7  N   LIG    1        0.022  -0.679   1.141  0.00  0.00    -0.220 NA
ENDROOT
BRANCH   4   8
ATOM      8  C   LIG    1        0.030  -2.881  -2.412  0.00  0.00    +0.042 A 
ATOM      9  C   LIG    1        0.020  -2.232  -3.646  0.00  0.00    +0.013 A 
ATOM     10  C   LIG    1        0.025  -2.970  -4.811  0.00  0.00    +0.001 A 
ATOM     11  C   LIG    1        0.038  -4.354  -4.761  0.00  0.00    +0.004 A 
ATOM     12  C   LIG    1        0.048  -5.007  -3.544  0.00  0.00    +0.046 A 
ATOM     13  C   LIG    1        0.050  -4.279  -2.364  0.00  0.00    +0.129 A 
BRANCH  13  14
ATOM     14  O   LIG    1        0.065  -4.920  -1.167  0.00  0.00    -0.494 OA
ATOM     15  C   LIG    1        0.085  -6.349  -1.197  0.00  0.00    +0.277 C 
ENDBRANCH  13  14
ENDBRANCH   4   8
BRANCH   6  16
ATOM     16  N   LIG    1        0.050  -2.672   2.361  0.00  0.00    -0.327 N 
ATOM     17  H   LIG    1        0.047  -2.170   3.191  0.00  0.00    +0.145 HD
ATOM     18  H   LIG    1        0.063  -3.641   2.380  0.00  0.00    +0.145 HD
ENDBRANCH   6  16
TORSDOF 3
