REMARK  Name = ZINC00004227
REMARK                            x       y       z     vdW  Elec       q    Type
REMARK                         _______ _______ _______ _____ _____    ______ ____
ROOT
ATOM      1  N   LIG    1        2.775  -1.692  -2.869  0.00  0.00    -0.300 N 
ATOM      2  C   LIG    1        2.877  -0.366  -3.303  0.00  0.00    +0.048 A 
ATOM      3  C   LIG    1        2.162   0.065  -4.409  0.00  0.00    +0.024 A 
ATOM      4  C   LIG    1        2.270   1.378  -4.834  0.00  0.00    +0.002 A 
ATOM      5  C   LIG    1        3.087   2.267  -4.162  0.00  0.00    +0.001 A 
ATOM      6  C   LIG    1        3.807   1.847  -3.054  0.00  0.00    +0.017 A 
ATOM      7  C   LIG    1        3.702   0.537  -2.627  0.00  0.00    +0.034 A 
ATOM      8  S   LIG    1        4.607  -0.028  -1.219  0.00  0.00    -0.086 S 
ATOM      9  C   LIG    1        4.828  -1.743  -1.577  0.00  0.00    +0.034 A 
ATOM     10  C   LIG    1        5.919  -2.433  -1.085  0.00  0.00    +0.017 A 
ATOM     11  C   LIG    1        6.068  -3.772  -1.365  0.00  0.00    +0.001 A 
ATOM     12  C   LIG    1        5.133  -4.423  -2.146  0.00  0.00    +0.002 A 
ATOM     13  C   LIG    1        4.039  -3.738  -2.647  0.00  0.00    +0.024 A 
ATOM     14  C   LIG    1        3.877  -2.391  -2.365  0.00  0.00    +0.048 A 
ENDROOT
BRANCH   1  15
ATOM     15  C   LIG    1        1.476  -2.365  -2.938  0.00  0.00    +0.095 C 
BRANCH  15  16
ATOM     16  C   LIG    1        0.778  -2.270  -1.580  0.00  0.00    -0.054 C 
ATOM     17  C   LIG    1       -0.598  -2.933  -1.665  0.00  0.00    -0.012 C 
BRANCH  16  18
ATOM     18  N   LIG    1        0.619  -0.857  -1.210  0.00  0.00    +0.382 N 
ATOM     19  H   LIG    1        1.514  -0.394  -1.256  0.00  0.00    -0.081 HD
BRANCH  18  21
ATOM     20  C   LIG    1       -0.386   1.288  -1.833  0.00  0.00    -0.017 C 
ATOM     21  C   LIG    1       -0.316  -0.209  -2.140  0.00  0.00    -0.082 C 
ENDBRANCH  18  21
BRANCH  18  22
ATOM     22  C   LIG    1        0.090  -0.766   0.158  0.00  0.00    -0.082 C 
ATOM     23  C   LIG    1        1.133  -1.294   1.144  0.00  0.00    -0.017 C 
ENDBRANCH  18  22
ENDBRANCH  16  18
ENDBRANCH  15  16
ENDBRANCH   1  15
TORSDOF 5
