REMARK  Name = ZINC17213207
REMARK                            x       y       z     vdW  Elec       q    Type
REMARK                         _______ _______ _______ _____ _____    ______ ____
ROOT
ATOM      1  C   LIG    1       -1.341  -2.051   0.541  0.00  0.00    +0.215 C 
ATOM      2  C   LIG    1       -2.451  -2.791   0.192  0.00  0.00    +0.106 C 
ENDROOT
BRANCH   2   3
ATOM      3  C   LIG    1       -3.802  -2.211   0.338  0.00  0.00    +0.140 A 
ATOM      4  C   LIG    1       -4.746  -2.832   1.191  0.00  0.00    +0.240 A 
ATOM      5  N   LIG    1       -5.952  -2.325   1.330  0.00  0.00    -0.210 NA
ATOM      6  C   LIG    1       -6.290  -1.214   0.660  0.00  0.00    +0.095 A 
ATOM      7  C   LIG    1       -7.571  -0.654   0.793  0.00  0.00    +0.062 A 
ATOM      8  C   LIG    1       -7.890   0.475   0.102  0.00  0.00    +0.124 A 
ATOM      9  C   LIG    1       -6.962   1.088  -0.738  0.00  0.00    +0.035 A 
ATOM     10  C   LIG    1       -5.711   0.574  -0.892  0.00  0.00    +0.032 A 
ATOM     11  C   LIG    1       -5.345  -0.591  -0.194  0.00  0.00    +0.090 A 
ATOM     12  N   LIG    1       -4.121  -1.112  -0.323  0.00  0.00    -0.240 NA
BRANCH   4  13
ATOM     13  O   LIG    1       -4.405  -3.955   1.868  0.00  0.00    -0.491 OA
ATOM     14  H   LIG    1       -3.547  -4.318   1.772  0.00  0.00    +0.294 HD
ENDBRANCH   4  13
BRANCH   8  15
ATOM     15  N   LIG    1       -9.242   1.060   0.246  0.00  0.00    +0.006 N 
ATOM     16  O   LIG    1      -10.054   0.536   0.972  0.00  0.00    -0.130 OA
BRANCH  15  17
ATOM     17  O   LIG    1       -9.534   2.063  -0.363  0.00  0.00    -0.396 OA
ATOM     18  H   LIG    1       -8.905   2.470  -0.926  0.00  0.00    +0.329 HD
ENDBRANCH  15  17
ENDBRANCH   8  15
ENDBRANCH   2   3
BRANCH   1  19
ATOM     19  C   LIG    1       -1.504  -0.683   1.078  0.00  0.00    +0.375 C 
ATOM     20  O   LIG    1       -2.615  -0.250   1.310  0.00  0.00    -0.241 OA
BRANCH  19  22
ATOM     21  C   LIG    1       -0.651   1.394   1.829  0.00  0.00    +0.280 C 
ATOM     22  O   LIG    1       -0.420   0.083   1.310  0.00  0.00    -0.462 OA
ENDBRANCH  19  22
ENDBRANCH   1  19
BRANCH   2  23
ATOM     23  C   LIG    1       -2.290  -4.159  -0.328  0.00  0.00    +0.253 C 
ATOM     24  O   LIG    1       -1.735  -5.004   0.348  0.00  0.00    -0.281 OA
BRANCH  23  25
ATOM     25  C   LIG    1       -2.803  -4.505  -1.671  0.00  0.00    +0.262 C 
ATOM     26  N   LIG    1       -3.307  -3.574  -2.439  0.00  0.00    -0.209 NA
BRANCH  26  27
ATOM     27  C   LIG    1       -3.878  -3.908  -3.628  0.00  0.00    +0.085 A 
ATOM     28  C   LIG    1       -4.830  -4.929  -3.690  0.00  0.00    +0.031 A 
ATOM     29  C   LIG    1       -5.406  -5.262  -4.897  0.00  0.00    +0.035 A 
ATOM     30  C   LIG    1       -5.047  -4.591  -6.056  0.00  0.00    +0.123 A 
ATOM     31  C   LIG    1       -4.109  -3.580  -6.019  0.00  0.00    +0.053 A 
ATOM     32  C   LIG    1       -3.518  -3.221  -4.808  0.00  0.00    +0.079 A 
BRANCH  30  33
ATOM     33  N   LIG    1       -5.675  -4.963  -7.344  0.00  0.00    +0.006 N 
ATOM     34  O   LIG    1       -6.497  -5.849  -7.382  0.00  0.00    -0.130 OA
BRANCH  33  35
ATOM     35  O   LIG    1       -5.365  -4.382  -8.358  0.00  0.00    -0.396 OA
ATOM     36  H   LIG    1       -4.728  -3.695  -8.328  0.00  0.00    +0.329 HD
ENDBRANCH  33  35
ENDBRANCH  30  33
BRANCH  32  37
ATOM     37  C   LIG    1       -2.547  -2.169  -4.762  0.00  0.00    +0.101 C 
ATOM     38  N   LIG    1       -1.778  -1.334  -4.726  0.00  0.00    -0.191 NA
ENDBRANCH  32  37
ENDBRANCH  26  27
BRANCH  25  39
ATOM     39  O   LIG    1       -2.751  -5.785  -2.105  0.00  0.00    -0.490 OA
ATOM     40  H   LIG    1       -2.390  -6.452  -1.555  0.00  0.00    +0.294 HD
ENDBRANCH  25  39
ENDBRANCH  23  25
ENDBRANCH   2  23
BRANCH   1  41
ATOM     41  O   LIG    1       -0.105  -2.576   0.392  0.00  0.00    -0.501 OA
ATOM     42  H   LIG    1        0.649  -2.073   0.630  0.00  0.00    +0.292 HD
ENDBRANCH   1  41
TORSDOF 14
