REMARK  Name = ZINC28826085
REMARK                            x       y       z     vdW  Elec       q    Type
REMARK                         _______ _______ _______ _____ _____    ______ ____
ROOT
ATOM      1  C   LIG    1       -7.111  -4.795   1.007  0.00  0.00    +0.024 A 
ATOM      2  C   LIG    1       -7.059  -6.108   0.637  0.00  0.00    -0.015 A 
ATOM      3  C   LIG    1       -8.250  -6.791   0.431  0.00  0.00    -0.005 A 
ATOM      4  C   LIG    1       -9.430  -6.120   0.607  0.00  0.00    +0.054 A 
ATOM      5  S   LIG    1       -8.868  -4.493   1.080  0.00  0.00    -0.096 S 
ENDROOT
BRANCH   3   6
ATOM      6  C   LIG    1       -8.244  -8.219   0.028  0.00  0.00    +0.001 A 
ATOM      7  C   LIG    1       -8.736  -9.193   0.895  0.00  0.00    +0.010 A 
ATOM      8  C   LIG    1       -8.728 -10.519   0.515  0.00  0.00    +0.001 A 
ATOM      9  C   LIG    1       -8.233 -10.884  -0.724  0.00  0.00    +0.001 A 
ATOM     10  C   LIG    1       -7.744  -9.923  -1.590  0.00  0.00    +0.020 A 
ATOM     11  C   LIG    1       -7.752  -8.591  -1.222  0.00  0.00    +0.049 A 
ATOM     12 CL   LIG    1       -7.145  -7.384  -2.313  0.00  0.00    -0.083 Cl
ENDBRANCH   3   6
BRANCH   1  16
ATOM     13  C   LIG    1       -3.909  -2.116   1.799  0.00  0.00    +0.121 A 
ATOM     14  C   LIG    1       -3.903  -2.878   0.638  0.00  0.00    +0.046 A 
ATOM     15  C   LIG    1       -4.940  -3.748   0.378  0.00  0.00    +0.012 A 
ATOM     16  C   LIG    1       -5.996  -3.863   1.283  0.00  0.00    -0.011 A 
ATOM     17  C   LIG    1       -5.998  -3.095   2.449  0.00  0.00    +0.012 A 
ATOM     18  C   LIG    1       -4.955  -2.231   2.704  0.00  0.00    +0.046 A 
BRANCH  13  19
ATOM     19  O   LIG    1       -2.885  -1.259   2.052  0.00  0.00    -0.492 OA
BRANCH  19  20
ATOM     20  C   LIG    1       -1.841  -1.189   1.078  0.00  0.00    +0.229 C 
BRANCH  20  22
ATOM     21  C   LIG    1        0.332  -0.105   0.490  0.00  0.00    +0.007 C 
ATOM     22  C   LIG    1       -0.786  -0.179   1.532  0.00  0.00    +0.038 C 
ENDBRANCH  20  22
ENDBRANCH  19  20
ENDBRANCH  13  19
ENDBRANCH   1  16
BRANCH   2  23
ATOM     23  C   LIG    1       -5.734  -6.803   0.456  0.00  0.00    +0.154 C 
BRANCH  23  24
ATOM     24  C   LIG    1       -5.329  -7.458   1.752  0.00  0.00    +0.314 C 
ATOM     25  O   LIG    1       -6.002  -7.296   2.751  0.00  0.00    -0.254 OA
BRANCH  24  26
ATOM     26  N   LIG    1       -4.234  -8.213   1.802  0.00  0.00    -0.005 NA
ATOM     27  C   LIG    1       -3.306  -7.976   2.721  0.00  0.00    +0.377 C 
BRANCH  27  28
ATOM     28  N   LIG    1       -3.410  -6.883   3.527  0.00  0.00    -0.291 N 
ATOM     29  H   LIG    1       -2.718  -6.695   4.181  0.00  0.00    +0.254 HD
ATOM     30  H   LIG    1       -4.175  -6.293   3.448  0.00  0.00    +0.254 HD
ENDBRANCH  27  28
BRANCH  27  31
ATOM     31  N   LIG    1       -2.251  -8.827   2.858  0.00  0.00    -0.277 N 
ATOM     32  H   LIG    1       -2.177  -9.605   2.284  0.00  0.00    +0.258 HD
BRANCH  31  33
ATOM     33  C   LIG    1       -1.227  -8.566   3.873  0.00  0.00    +0.198 C 
BRANCH  33  34
ATOM     34  C   LIG    1       -0.162  -9.663   3.818  0.00  0.00    +0.065 C 
BRANCH  34  35
ATOM     35  C   LIG    1        0.907  -9.390   4.878  0.00  0.00    +0.159 C 
BRANCH  35  36
ATOM     36  O   LIG    1        1.901 -10.415   4.826  0.00  0.00    -0.395 OA
ATOM     37  H   LIG    1        2.612 -10.306   5.472  0.00  0.00    +0.209 HD
ENDBRANCH  35  36
ENDBRANCH  34  35
ENDBRANCH  33  34
ENDBRANCH  31  33
ENDBRANCH  27  31
ENDBRANCH  24  26
ENDBRANCH  23  24
ENDBRANCH   2  23
TORSDOF 14
