REMARK  Name = ZINC35931795
REMARK                            x       y       z     vdW  Elec       q    Type
REMARK                         _______ _______ _______ _____ _____    ______ ____
ROOT
ATOM      1  C   LIG    1        0.604  -0.490  -1.306  0.00  0.00    +0.143 C 
ENDROOT
BRANCH   1   2
ATOM      2  C   LIG    1        2.052  -0.080  -1.392  0.00  0.00    +0.233 C 
ATOM      3  N   LIG    1        2.450   0.792  -2.339  0.00  0.00    -0.300 N 
ATOM      4  C   LIG    1        1.607   1.336  -3.413  0.00  0.00    +0.108 C 
ATOM      5  C   LIG    1        2.494   2.268  -4.265  0.00  0.00    +0.020 C 
ATOM      6  C   LIG    1        3.927   1.758  -3.960  0.00  0.00    +0.020 C 
ATOM      7  C   LIG    1        3.803   1.365  -2.465  0.00  0.00    +0.108 C 
ATOM      8  O   LIG    1        2.858  -0.535  -0.609  0.00  0.00    -0.274 OA
ENDBRANCH   1   2
BRANCH   1  10
ATOM      9  C   LIG    1       -0.042   1.841  -0.679  0.00  0.00    +0.012 C 
ATOM     10  C   LIG    1       -0.109   0.371  -0.261  0.00  0.00    -0.014 C 
ATOM     11  C   LIG    1       -1.572  -0.063  -0.155  0.00  0.00    +0.012 C 
ATOM     12  C   LIG    1        0.575   0.195   1.096  0.00  0.00    +0.012 C 
ENDBRANCH   1  10
BRANCH   1  13
ATOM     13  N   LIG    1        0.517  -1.904  -0.918  0.00  0.00    -0.320 NA
ATOM     14  H   LIG    1       -0.441  -2.220  -0.917  0.00  0.00    +0.119 HD
ATOM     15  H   LIG    1        0.951  -2.060  -0.021  0.00  0.00    +0.119 HD
ENDBRANCH   1  13
TORSDOF 3
