REMARK  Name = ZINC52716466
REMARK                            x       y       z     vdW  Elec       q    Type
REMARK                         _______ _______ _______ _____ _____    ______ ____
ROOT
ATOM      1  C   LIG    1        3.695  -0.685  -0.038  0.00  0.00    -0.042 C 
ATOM      2  C   LIG    1        4.491  -0.575   1.002  0.00  0.00    -0.008 C 
ATOM      3  C   LIG    1        5.828  -1.255   1.086  0.00  0.00    +0.112 C 
ATOM      4  N   LIG    1        5.915  -2.329   0.088  0.00  0.00    -0.291 NA
ATOM      5  C   LIG    1        5.544  -1.819  -1.242  0.00  0.00    +0.090 C 
ATOM      6  C   LIG    1        4.042  -1.516  -1.242  0.00  0.00    +0.051 C 
ENDROOT
BRANCH   1  10
ATOM      7  C   LIG    1       -0.017   1.379   0.010  0.00  0.00    +0.000 A 
ATOM      8  C   LIG    1        1.168   2.093   0.002  0.00  0.00    +0.001 A 
ATOM      9  C   LIG    1        2.377   1.429  -0.013  0.00  0.00    +0.008 A 
ATOM     10  C   LIG    1        2.403   0.034  -0.021  0.00  0.00    -0.022 A 
ATOM     11  C   LIG    1        1.204  -0.681  -0.013  0.00  0.00    +0.008 A 
ATOM     12  C   LIG    1        0.002  -0.004   0.002  0.00  0.00    +0.001 A 
ENDBRANCH   1  10
BRANCH   4  13
ATOM     13  C   LIG    1        7.260  -2.921   0.068  0.00  0.00    +0.159 C 
BRANCH  13  14
ATOM     14  C   LIG    1        7.517  -3.625   1.375  0.00  0.00    +0.122 A 
ATOM     15  N   LIG    1        7.325  -4.953   1.596  0.00  0.00    -0.341 N 
ATOM     16  C   LIG    1        7.672  -5.206   2.908  0.00  0.00    +0.066 A 
ATOM     17  C   LIG    1        7.690  -6.345   3.701  0.00  0.00    +0.028 A 
ATOM     18  C   LIG    1        8.104  -6.257   5.013  0.00  0.00    +0.002 A 
ATOM     19  C   LIG    1        8.502  -5.039   5.545  0.00  0.00    +0.002 A 
ATOM     20  C   LIG    1        8.491  -3.908   4.780  0.00  0.00    +0.030 A 
ATOM     21  C   LIG    1        8.076  -3.973   3.447  0.00  0.00    +0.089 A 
ATOM     22  H   LIG    1        7.003  -5.603   0.951  0.00  0.00    +0.167 HD
ATOM     23  N   LIG    1        7.962  -3.052   2.456  0.00  0.00    -0.231 NA
ENDBRANCH  13  14
ENDBRANCH   4  13
TORSDOF 3
