REMARK  Name = ZINC16052821
REMARK                            x       y       z     vdW  Elec       q    Type
REMARK                         _______ _______ _______ _____ _____    ______ ____
ROOT
ATOM      1  C   LIG    1       -0.015   1.377   0.027  0.00  0.00    +0.002 A 
ATOM      2  C   LIG    1        1.172   2.091   0.030  0.00  0.00    +0.002 A 
ATOM      3  C   LIG    1        2.383   1.429   0.015  0.00  0.00    +0.028 A 
ATOM      4  C   LIG    1        2.412   0.042  -0.003  0.00  0.00    +0.068 A 
ATOM      5  C   LIG    1        1.216  -0.678  -0.005  0.00  0.00    +0.066 A 
ATOM      6  N   LIG    1        1.550  -2.029  -0.023  0.00  0.00    -0.326 N 
ATOM      7  H   LIG    1        0.923  -2.769  -0.029  0.00  0.00    +0.169 HD
ATOM      8  C   LIG    1        2.906  -2.132  -0.032  0.00  0.00    +0.201 A 
ATOM      9  N   LIG    1        3.591  -3.270  -0.049  0.00  0.00    -0.142 NA
ATOM     10  N   LIG    1        3.449  -0.885  -0.019  0.00  0.00    -0.311 N 
ATOM     11  C   LIG    1        0.003  -0.003   0.009  0.00  0.00    +0.028 A 
ENDROOT
BRANCH   9  12
ATOM     12  C   LIG    1        2.948  -4.439   0.051  0.00  0.00    +0.270 C 
ATOM     13  O   LIG    1        1.730  -4.465   0.063  0.00  0.00    -0.268 OA
BRANCH  12  14
ATOM     14  C   LIG    1        3.718  -5.701   0.149  0.00  0.00    +0.041 A 
ATOM     15  C   LIG    1        5.112  -5.673   0.142  0.00  0.00    +0.013 A 
ATOM     16  C   LIG    1        5.823  -6.851   0.233  0.00  0.00    +0.003 A 
ATOM     17  C   LIG    1        5.156  -8.060   0.331  0.00  0.00    +0.032 A 
ATOM     18  C   LIG    1        3.773  -8.094   0.338  0.00  0.00    +0.122 A 
ATOM     19  C   LIG    1        3.051  -6.921   0.254  0.00  0.00    +0.045 A 
BRANCH  18  20
ATOM     20  N   LIG    1        3.067  -9.390   0.443  0.00  0.00    +0.006 N 
ATOM     21  O   LIG    1        3.698 -10.418   0.522  0.00  0.00    -0.130 OA
BRANCH  20  22
ATOM     22  O   LIG    1        1.858  -9.421   0.449  0.00  0.00    -0.396 OA
ATOM     23  H   LIG    1        1.369  -8.625   0.387  0.00  0.00    +0.329 HD
ENDBRANCH  20  22
ENDBRANCH  18  20
ENDBRANCH  12  14
ENDBRANCH   9  12
BRANCH  10  24
ATOM     24  C   LIG    1        4.880  -0.573  -0.023  0.00  0.00    +0.140 C 
BRANCH  24  25
ATOM     25  C   LIG    1        5.386  -0.481   1.419  0.00  0.00    +0.106 C 
BRANCH  25  26
ATOM     26  N   LIG    1        6.821  -0.168   1.415  0.00  0.00    -0.296 NA
ATOM     27  C   LIG    1        7.601  -1.277   0.847  0.00  0.00    +0.112 C 
ATOM     28  C   LIG    1        9.081  -0.885   0.808  0.00  0.00    +0.175 C 
ATOM     29  O   LIG    1        9.512  -0.539   2.126  0.00  0.00    -0.377 OA
ATOM     30  C   LIG    1        8.774   0.539   2.709  0.00  0.00    +0.175 C 
ATOM     31  C   LIG    1        7.292   0.161   2.768  0.00  0.00    +0.112 C 
ENDBRANCH  25  26
ENDBRANCH  24  25
ENDBRANCH  10  24
TORSDOF 7
