REMARK  Name = ZINC19536830
REMARK                            x       y       z     vdW  Elec       q    Type
REMARK                         _______ _______ _______ _____ _____    ______ ____
ROOT
ATOM      1  C   LIG    1       -1.399   3.565   2.482  0.00  0.00    +0.105 C 
ATOM      2  N   LIG    1       -0.783   3.048   1.252  0.00  0.00    -0.303 NA
ATOM      3  C   LIG    1       -0.730   1.580   1.267  0.00  0.00    +0.099 C 
ATOM      4  C   LIG    1       -0.013   1.086   0.008  0.00  0.00    +0.100 C 
ATOM      5  N   LIG    1       -0.724   1.573  -1.182  0.00  0.00    -0.296 NA
ATOM      6  C   LIG    1       -0.777   3.042  -1.196  0.00  0.00    +0.100 C 
ATOM      7  C   LIG    1       -1.495   3.536   0.062  0.00  0.00    +0.099 C 
ENDROOT
BRANCH   5   8
ATOM      8  C   LIG    1       -0.109   1.057  -2.412  0.00  0.00    +0.119 C 
BRANCH   8   9
ATOM      9  C   LIG    1       -0.701   1.763  -3.604  0.00  0.00    -0.033 A 
ATOM     10  C   LIG    1       -1.820   1.245  -4.229  0.00  0.00    +0.005 A 
ATOM     11  C   LIG    1       -2.365   1.895  -5.320  0.00  0.00    +0.000 A 
ATOM     12  C   LIG    1       -1.786   3.058  -5.793  0.00  0.00    +0.000 A 
ATOM     13  C   LIG    1       -0.663   3.572  -5.172  0.00  0.00    +0.000 A 
ATOM     14  C   LIG    1       -0.121   2.925  -4.077  0.00  0.00    +0.005 A 
ENDBRANCH   8   9
ENDBRANCH   5   8
TORSDOF 2
