REMARK  Name = ZINC38943867
REMARK                            x       y       z     vdW  Elec       q    Type
REMARK                         _______ _______ _______ _____ _____    ______ ____
ROOT
ATOM      1  C   LIG    1       -4.260  -0.432   1.527  0.00  0.00    +0.019 C 
ATOM      2  C   LIG    1       -5.776  -0.101   1.575  0.00  0.00    +0.009 C 
ATOM      3  C   LIG    1       -6.106   0.163   3.071  0.00  0.00    +0.019 C 
ATOM      4  C   LIG    1       -5.068  -0.725   3.781  0.00  0.00    +0.071 C 
ATOM      5  C   LIG    1       -4.814  -0.398   5.236  0.00  0.00    +0.019 C 
ATOM      6  C   LIG    1       -3.646  -1.260   5.741  0.00  0.00    +0.011 C 
ATOM      7  C   LIG    1       -2.392  -1.094   4.890  0.00  0.00    +0.003 C 
ATOM      8  C   LIG    1       -1.307  -2.095   5.330  0.00  0.00    -0.021 C 
ATOM      9  C   LIG    1       -1.861  -3.507   5.085  0.00  0.00    +0.012 C 
ATOM     10  C   LIG    1       -1.048  -1.949   6.829  0.00  0.00    +0.008 C 
ATOM     11  C   LIG    1        0.118  -2.859   7.248  0.00  0.00    +0.005 C 
ATOM     12  C   LIG    1        1.362  -2.402   6.489  0.00  0.00    +0.003 C 
ATOM     13  C   LIG    1        2.648  -2.925   7.086  0.00  0.00    -0.006 C 
ATOM     14  C   LIG    1        2.622  -4.435   7.321  0.00  0.00    +0.014 C 
ATOM     15  C   LIG    1        2.839  -2.258   8.472  0.00  0.00    +0.014 C 
ATOM     16  C   LIG    1        3.874  -2.545   6.258  0.00  0.00    +0.120 C 
ATOM     17  C   LIG    1        3.671  -2.762   4.766  0.00  0.00    +0.032 C 
ATOM     18  C   LIG    1        2.416  -2.047   4.278  0.00  0.00    +0.010 C 
ATOM     19  C   LIG    1        1.181  -2.631   4.994  0.00  0.00    -0.025 C 
ATOM     20  C   LIG    1        1.077  -4.102   4.616  0.00  0.00    +0.012 C 
ATOM     21  C   LIG    1       -0.042  -1.840   4.527  0.00  0.00    +0.002 C 
ATOM     22  C   LIG    1       -0.297  -2.019   3.034  0.00  0.00    +0.005 C 
ATOM     23  C   LIG    1       -1.409  -1.067   2.578  0.00  0.00    +0.005 C 
ATOM     24  C   LIG    1       -2.677  -1.301   3.397  0.00  0.00    +0.003 C 
ATOM     25  C   LIG    1       -3.790  -0.369   2.979  0.00  0.00    +0.017 C 
ENDROOT
BRANCH   1  27
ATOM     26  C   LIG    1       -3.647   2.068   1.081  0.00  0.00    +0.039 C 
ATOM     27  C   LIG    1       -3.548   0.612   0.703  0.00  0.00    -0.076 C 
ATOM     28  C   LIG    1       -2.844   0.254  -0.342  0.00  0.00    +0.007 C 
ENDBRANCH   1  27
BRANCH   4  29
ATOM     29  C   LIG    1       -5.466  -2.168   3.614  0.00  0.00    +0.313 C 
ATOM     30  O   LIG    1       -5.811  -2.815   4.575  0.00  0.00    -0.250 OA
BRANCH  29  31
ATOM     31  O   LIG    1       -5.437  -2.735   2.398  0.00  0.00    -0.468 OA
ATOM     32  C   LIG    1       -5.828  -4.107   2.313  0.00  0.00    +0.280 C 
ENDBRANCH  29  31
ENDBRANCH   4  29
BRANCH  16  33
ATOM     33  O   LIG    1        4.202  -1.172   6.503  0.00  0.00    -0.391 OA
ATOM     34  H   LIG    1        5.008  -0.875   6.060  0.00  0.00    +0.210 HD
ENDBRANCH  16  33
BRANCH   7  35
ATOM     35  C   LIG    1       -1.879   0.333   5.121  0.00  0.00    +0.163 C 
BRANCH  35  36
ATOM     36  O   LIG    1       -1.731   0.565   6.523  0.00  0.00    -0.394 OA
ATOM     37  H   LIG    1       -1.410   1.450   6.744  0.00  0.00    +0.209 HD
ENDBRANCH  35  36
ENDBRANCH   7  35
TORSDOF 6
