REMARK  Name = ZINC13776229
REMARK                            x       y       z     vdW  Elec       q    Type
REMARK                         _______ _______ _______ _____ _____    ______ ____
ROOT
ATOM      1  C   LIG    1        0.442  -5.051  -6.518  0.00  0.00    +0.179 C 
ENDROOT
BRANCH   1   2
ATOM      2  C   LIG    1       -1.044  -5.217  -6.702  0.00  0.00    -0.014 A 
ATOM      3  C   LIG    1       -1.800  -5.816  -5.712  0.00  0.00    +0.009 A 
ATOM      4  C   LIG    1       -3.163  -5.968  -5.879  0.00  0.00    +0.039 A 
ATOM      5  C   LIG    1       -3.772  -5.522  -7.040  0.00  0.00    +0.123 A 
ATOM      6  F   LIG    1       -5.104  -5.671  -7.206  0.00  0.00    -0.205 F 
ATOM      7  C   LIG    1       -3.014  -4.923  -8.032  0.00  0.00    +0.039 A 
ATOM      8  C   LIG    1       -1.651  -4.766  -7.859  0.00  0.00    +0.009 A 
ENDBRANCH   1   2
BRANCH   1   9
ATOM      9  C   LIG    1        1.146  -6.311  -6.950  0.00  0.00    -0.014 A 
ATOM     10  C   LIG    1        1.193  -7.402  -6.103  0.00  0.00    +0.009 A 
ATOM     11  C   LIG    1        1.838  -8.558  -6.498  0.00  0.00    +0.039 A 
ATOM     12  C   LIG    1        2.438  -8.624  -7.744  0.00  0.00    +0.123 A 
ATOM     13  F   LIG    1        3.069  -9.753  -8.132  0.00  0.00    -0.205 F 
ATOM     14  C   LIG    1        2.391  -7.530  -8.592  0.00  0.00    +0.039 A 
ATOM     15  C   LIG    1        1.741  -6.377  -8.197  0.00  0.00    +0.009 A 
ENDBRANCH   1   9
BRANCH   1  16
ATOM     16  O   LIG    1        0.726  -4.795  -5.141  0.00  0.00    -0.364 OA
BRANCH  16  23
ATOM     17  N   LIG    1        1.427  -2.501  -2.474  0.00  0.00    +0.384 N 
ATOM     18  H   LIG    1        2.329  -2.059  -2.565  0.00  0.00    -0.081 HD
ATOM     19  C   LIG    1        0.594  -2.253  -3.681  0.00  0.00    -0.066 C 
ATOM     20  C   LIG    1       -0.482  -3.361  -3.635  0.00  0.00    -0.017 C 
ATOM     21  C   LIG    1        0.161  -4.503  -2.821  0.00  0.00    -0.017 C 
ATOM     22  C   LIG    1        1.488  -2.496  -4.908  0.00  0.00    +0.016 C 
ATOM     23  C   LIG    1        1.886  -3.989  -4.926  0.00  0.00    +0.117 C 
ATOM     24  C   LIG    1        2.527  -4.366  -3.587  0.00  0.00    +0.016 C 
ATOM     25  C   LIG    1        1.568  -3.981  -2.450  0.00  0.00    -0.066 C 
BRANCH  17  26
ATOM     26  C   LIG    1        0.739  -2.027  -1.265  0.00  0.00    -0.078 C 
BRANCH  26  27
ATOM     27  C   LIG    1        0.718  -0.497  -1.257  0.00  0.00    -0.019 C 
BRANCH  27  29
ATOM     28  C   LIG    1       -0.019   1.526   0.010  0.00  0.00    +0.004 C 
ATOM     29  C   LIG    1        0.002  -0.004   0.002  0.00  0.00    -0.005 C 
ENDBRANCH  27  29
ENDBRANCH  26  27
ENDBRANCH  17  26
ENDBRANCH  16  23
ENDBRANCH   1  16
TORSDOF 7
