REMARK  Name = ZINC29319828
REMARK                            x       y       z     vdW  Elec       q    Type
REMARK                         _______ _______ _______ _____ _____    ______ ____
ROOT
ATOM      1  C   LIG    1        1.430  -1.801  -2.914  0.00  0.00    +0.110 A 
ATOM      2  N   LIG    1        1.040  -1.882  -4.161  0.00  0.00    -0.240 NA
ATOM      3  C   LIG    1        1.982  -2.477  -4.892  0.00  0.00    +0.138 A 
ATOM      4  C   LIG    1        3.030  -2.789  -4.046  0.00  0.00    +0.062 A 
ATOM      5  N   LIG    1        2.655  -2.344  -2.792  0.00  0.00    -0.324 N 
ENDROOT
BRANCH   4   6
ATOM      6  C   LIG    1        4.242  -3.430  -4.394  0.00  0.00    +0.038 C 
ATOM      7  C   LIG    1        4.391  -3.978  -5.630  0.00  0.00    +0.043 C 
BRANCH   7   8
ATOM      8  C   LIG    1        5.655  -4.436  -6.050  0.00  0.00    +0.333 C 
ATOM      9  O   LIG    1        6.705  -4.332  -5.236  0.00  0.00    -0.245 OA
BRANCH   8  10
ATOM     10  O   LIG    1        5.801  -4.973  -7.260  0.00  0.00    -0.477 OA
ATOM     11  H   LIG    1        5.062  -5.046  -7.832  0.00  0.00    +0.295 HD
ENDBRANCH   8  10
ENDBRANCH   7   8
BRANCH   7  12
ATOM     12  C   LIG    1        3.203  -4.096  -6.550  0.00  0.00    +0.084 C 
BRANCH  12  13
ATOM     13  C   LIG    1        3.203  -2.942  -7.519  0.00  0.00    -0.006 A 
ATOM     14  C   LIG    1        3.664  -2.896  -8.793  0.00  0.00    +0.011 A 
ATOM     15  C   LIG    1        3.557  -1.715  -9.503  0.00  0.00    +0.008 A 
ATOM     16  C   LIG    1        2.994  -0.637  -8.904  0.00  0.00    +0.045 A 
ATOM     17  S   LIG    1        2.587  -1.281  -7.290  0.00  0.00    -0.101 S 
ENDBRANCH  12  13
ENDBRANCH   7  12
ENDBRANCH   4   6
BRANCH   1  18
ATOM     18  C   LIG    1        0.632  -1.190  -1.791  0.00  0.00    +0.074 C 
BRANCH  18  19
ATOM     19  C   LIG    1        0.958   0.301  -1.687  0.00  0.00    +0.007 C 
BRANCH  19  21
ATOM     20  C   LIG    1        0.474   2.412  -0.442  0.00  0.00    +0.004 C 
ATOM     21  C   LIG    1        0.149   0.921  -0.546  0.00  0.00    -0.003 C 
ENDBRANCH  19  21
ENDBRANCH  18  19
ENDBRANCH   1  18
BRANCH   5  22
ATOM     22  C   LIG    1        3.443  -2.445  -1.561  0.00  0.00    +0.158 C 
BRANCH  22  23
ATOM     23  C   LIG    1        3.232  -3.802  -0.940  0.00  0.00    -0.028 A 
ATOM     24  C   LIG    1        2.147  -4.017  -0.108  0.00  0.00    +0.006 A 
ATOM     25  C   LIG    1        1.947  -5.256   0.464  0.00  0.00    +0.015 A 
ATOM     26  C   LIG    1        2.843  -6.295   0.202  0.00  0.00    +0.059 A 
ATOM     27  C   LIG    1        3.936  -6.071  -0.640  0.00  0.00    +0.015 A 
ATOM     28  C   LIG    1        4.120  -4.829  -1.209  0.00  0.00    +0.006 A 
BRANCH  26  29
ATOM     29  C   LIG    1        2.637  -7.624   0.810  0.00  0.00    +0.337 C 
ATOM     30  O   LIG    1        1.735  -7.792   1.618  0.00  0.00    -0.245 OA
BRANCH  29  31
ATOM     31  O   LIG    1        3.368  -8.556   0.506  0.00  0.00    -0.477 OA
ATOM     32  H   LIG    1        4.059  -8.427  -0.113  0.00  0.00    +0.295 HD
ENDBRANCH  29  31
ENDBRANCH  26  29
ENDBRANCH  22  23
ENDBRANCH   5  22
TORSDOF 12
