REMARK  Name = ZINC40954935
REMARK                            x       y       z     vdW  Elec       q    Type
REMARK                         _______ _______ _______ _____ _____    ______ ____
ROOT
ATOM      1  C   LIG    1       -0.018   1.503   0.010  0.00  0.00    +0.044 C 
ATOM      2  C   LIG    1        0.002  -0.004   0.002  0.00  0.00    -0.041 A 
ATOM      3  C   LIG    1        0.006  -0.682  -1.184  0.00  0.00    +0.004 A 
ATOM      4  C   LIG    1        0.025  -2.070  -1.202  0.00  0.00    +0.002 A 
ATOM      5  C   LIG    1        0.040  -2.788  -0.026  0.00  0.00    +0.026 A 
ATOM      6  C   LIG    1        0.037  -2.119   1.194  0.00  0.00    +0.050 A 
ATOM      7  N   LIG    1        0.052  -2.825   2.379  0.00  0.00    -0.319 N 
ATOM      8  H   LIG    1        0.065  -3.795   2.356  0.00  0.00    +0.169 HD
ATOM      9  C   LIG    1        0.065  -2.192   3.566  0.00  0.00    +0.291 A 
ATOM     10  O   LIG    1        0.083  -2.845   4.595  0.00  0.00    -0.264 OA
ATOM     11  C   LIG    1        0.045  -0.733   3.638  0.00  0.00    +0.182 A 
ATOM     12  C   LIG    1        0.025  -0.005   2.491  0.00  0.00    +0.061 A 
ATOM     13  C   LIG    1        0.023  -0.712   1.209  0.00  0.00    +0.005 A 
ENDROOT
BRANCH  11  14
ATOM     14  O   LIG    1        0.048  -0.107   4.845  0.00  0.00    -0.502 OA
ATOM     15  H   LIG    1        0.063  -0.711   5.601  0.00  0.00    +0.292 HD
ENDBRANCH  11  14
TORSDOF 1
