REMARK  Name = ZINC72141065
REMARK                            x       y       z     vdW  Elec       q    Type
REMARK                         _______ _______ _______ _____ _____    ______ ____
ROOT
ATOM      1  C   LIG    1        0.848  -0.411  -1.489  0.00  0.00    +0.193 A 
ATOM      2  N   LIG    1        1.041  -1.685  -1.818  0.00  0.00    -0.202 NA
ATOM      3  C   LIG    1        1.679  -1.992  -2.943  0.00  0.00    +0.167 A 
ATOM      4  N   LIG    1        2.125  -1.024  -3.740  0.00  0.00    -0.195 NA
ATOM      5  C   LIG    1        1.932   0.250  -3.410  0.00  0.00    +0.217 A 
ATOM      6  N   LIG    1        1.290   0.556  -2.288  0.00  0.00    -0.189 NA
ENDROOT
BRANCH   3   7
ATOM      7  C   LIG    1        1.895  -3.412  -3.310  0.00  0.00    +0.038 A 
ATOM      8  C   LIG    1        1.425  -4.428  -2.480  0.00  0.00    +0.013 A 
ATOM      9  C   LIG    1        1.628  -5.748  -2.827  0.00  0.00    +0.001 A 
ATOM     10  C   LIG    1        2.297  -6.065  -3.996  0.00  0.00    +0.001 A 
ATOM     11  C   LIG    1        2.767  -5.062  -4.824  0.00  0.00    +0.021 A 
ATOM     12  C   LIG    1        2.564  -3.736  -4.490  0.00  0.00    +0.052 A 
ATOM     13 CL   LIG    1        3.148  -2.478  -5.534  0.00  0.00    -0.083 Cl
ENDBRANCH   3   7
BRANCH   5  14
ATOM     14  N   LIG    1        2.394   1.254  -4.237  0.00  0.00    -0.327 N 
ATOM     15  H   LIG    1        2.254   2.183  -3.997  0.00  0.00    +0.145 HD
ATOM     16  H   LIG    1        2.860   1.031  -5.058  0.00  0.00    +0.145 HD
ENDBRANCH   5  14
BRANCH   1  18
ATOM     17  C   LIG    1       -0.022   1.810   0.012  0.00  0.00    +0.093 C 
ATOM     18  S   LIG    1        0.002  -0.004   0.002  0.00  0.00    -0.089 S 
ENDBRANCH   1  18
TORSDOF 3
