REMARK  Name = ZINC30691168
REMARK                            x       y       z     vdW  Elec       q    Type
REMARK                         _______ _______ _______ _____ _____    ______ ____
ROOT
ATOM      1  C   LIG    1       -0.041   1.518  -0.001  0.00  0.00    +0.064 C 
ATOM      2  C   LIG    1       -0.009   0.011   0.000  0.00  0.00    +0.028 A 
ATOM      3  C   LIG    1        0.007  -0.775  -1.117  0.00  0.00    +0.050 A 
ATOM      4  C   LIG    1        0.037  -2.171  -0.643  0.00  0.00    +0.011 A 
ATOM      5  C   LIG    1        0.063  -3.409  -1.281  0.00  0.00    +0.011 A 
ATOM      6  C   LIG    1        0.088  -4.564  -0.530  0.00  0.00    +0.001 A 
ATOM      7  C   LIG    1        0.089  -4.497   0.856  0.00  0.00    +0.002 A 
ATOM      8  C   LIG    1        0.063  -3.279   1.500  0.00  0.00    +0.026 A 
ATOM      9  C   LIG    1        0.037  -2.102   0.759  0.00  0.00    +0.050 A 
ATOM     10  N   LIG    1        0.015  -0.767   1.108  0.00  0.00    -0.342 N 
ENDROOT
BRANCH   3  11
ATOM     11  C   LIG    1       -0.005  -0.320  -2.512  0.00  0.00    +0.195 C 
ATOM     12  O   LIG    1       -1.058  -0.237  -3.116  0.00  0.00    -0.287 OA
BRANCH  11  13
ATOM     13  C   LIG    1        1.262   0.036  -3.183  0.00  0.00    +0.023 A 
ATOM     14  C   LIG    1        2.481  -0.171  -2.533  0.00  0.00    +0.015 A 
ATOM     15  C   LIG    1        3.660   0.163  -3.163  0.00  0.00    +0.046 A 
ATOM     16  C   LIG    1        3.638   0.704  -4.443  0.00  0.00    +0.120 A 
ATOM     17  C   LIG    1        2.426   0.912  -5.092  0.00  0.00    +0.046 A 
ATOM     18  C   LIG    1        1.244   0.576  -4.472  0.00  0.00    +0.015 A 
BRANCH  16  19
ATOM     19  O   LIG    1        4.801   1.031  -5.059  0.00  0.00    -0.495 OA
ATOM     20  C   LIG    1        4.706   1.583  -6.374  0.00  0.00    +0.277 C 
ENDBRANCH  16  19
ENDBRANCH  11  13
ENDBRANCH   3  11
BRANCH  10  21
ATOM     21  C   LIG    1        0.013  -0.263   2.483  0.00  0.00    +0.137 C 
BRANCH  21  22
ATOM     22  C   LIG    1       -1.430  -0.118   2.971  0.00  0.00    +0.106 C 
BRANCH  22  23
ATOM     23  N   LIG    1       -1.432   0.388   4.351  0.00  0.00    -0.296 NA
ATOM     24  C   LIG    1       -0.854  -0.600   5.274  0.00  0.00    +0.112 C 
ATOM     25  C   LIG    1       -0.821  -0.010   6.687  0.00  0.00    +0.175 C 
ATOM     26  O   LIG    1       -2.144   0.378   7.067  0.00  0.00    -0.377 OA
ATOM     27  C   LIG    1       -2.736   1.339   6.189  0.00  0.00    +0.175 C 
ATOM     28  C   LIG    1       -2.789   0.764   4.772  0.00  0.00    +0.112 C 
ENDBRANCH  22  23
ENDBRANCH  21  22
ENDBRANCH  10  21
TORSDOF 6
