REMARK  Name = ZINC28824586
REMARK                            x       y       z     vdW  Elec       q    Type
REMARK                         _______ _______ _______ _____ _____    ______ ____
ROOT
ATOM      1  C   LIG    1        2.478   1.073  -0.021  0.00  0.00    +0.141 A 
ATOM      2  N   LIG    1        3.711   1.668  -0.049  0.00  0.00    -0.208 NA
ATOM      3  C   LIG    1        4.654   0.661  -0.053  0.00  0.00    +0.178 A 
ATOM      4  N   LIG    1        5.977   0.650  -0.069  0.00  0.00    -0.234 NA
ATOM      5  C   LIG    1        6.657  -0.478  -0.070  0.00  0.00    +0.113 A 
ATOM      6  C   LIG    1        6.017  -1.707  -0.054  0.00  0.00    +0.022 A 
ATOM      7  C   LIG    1        4.636  -1.756  -0.042  0.00  0.00    +0.031 A 
ATOM      8  C   LIG    1        3.932  -0.547  -0.036  0.00  0.00    +0.086 A 
ATOM      9  N   LIG    1        2.615  -0.231  -0.017  0.00  0.00    -0.337 N 
ATOM     10  H   LIG    1        1.858  -1.029  -0.001  0.00  0.00    +0.167 HD
ENDROOT
BRANCH   1  14
ATOM     11  C   LIG    1       -1.233   3.140   0.047  0.00  0.00    +0.029 A 
ATOM     12  C   LIG    1       -1.214   1.749   0.041  0.00  0.00    +0.024 A 
ATOM     13  C   LIG    1       -0.012   1.076   0.025  0.00  0.00    +0.013 A 
ATOM     14  C   LIG    1        1.187   1.792   0.002  0.00  0.00    +0.017 A 
ATOM     15  C   LIG    1        1.164   3.188   0.002  0.00  0.00    +0.013 A 
ATOM     16  C   LIG    1       -0.041   3.856   0.024  0.00  0.00    +0.024 A 
BRANCH  11  18
ATOM     17  C   LIG    1       -2.474   5.277   0.195  0.00  0.00    +0.129 C 
ATOM     18  N   LIG    1       -2.450   3.818   0.069  0.00  0.00    -0.336 N 
ATOM     19  C   LIG    1       -3.707   3.072  -0.033  0.00  0.00    +0.129 C 
ENDBRANCH  11  18
ENDBRANCH   1  14
TORSDOF 2
