REMARK  Name = ZINC36021336
REMARK                            x       y       z     vdW  Elec       q    Type
REMARK                         _______ _______ _______ _____ _____    ______ ____
ROOT
ATOM      1  C   LIG    1       -0.505  -5.382   0.916  0.00  0.00    +0.108 A 
ATOM      2  C   LIG    1       -1.323  -5.972  -0.031  0.00  0.00    +0.030 A 
ATOM      3  C   LIG    1       -0.924  -7.136  -0.660  0.00  0.00    +0.024 A 
ATOM      4  C   LIG    1        0.294  -7.711  -0.343  0.00  0.00    +0.071 A 
ATOM      5 CL   LIG    1        0.795  -9.174  -1.132  0.00  0.00    -0.081 Cl
ATOM      6  C   LIG    1        1.111  -7.121   0.604  0.00  0.00    +0.142 A 
ATOM      7  C   LIG    1        0.714  -5.954   1.229  0.00  0.00    +0.062 A 
ENDROOT
BRANCH   1   8
ATOM      8  S   LIG    1       -1.014  -3.897   1.717  0.00  0.00    +0.061 S 
ATOM      9  O   LIG    1       -2.433  -3.863   1.645  0.00  0.00    -0.153 OA
ATOM     10  O   LIG    1       -0.312  -3.841   2.951  0.00  0.00    -0.153 OA
BRANCH   8  15
ATOM     11  C   LIG    1       -0.018   1.465   0.010  0.00  0.00    +0.105 C 
ATOM     12  N   LIG    1        0.002  -0.004   0.002  0.00  0.00    -0.303 NA
ATOM     13  C   LIG    1       -1.359  -0.548  -0.091  0.00  0.00    +0.101 C 
ATOM     14  C   LIG    1       -1.286  -2.068  -0.279  0.00  0.00    +0.125 C 
ATOM     15  N   LIG    1       -0.463  -2.633   0.801  0.00  0.00    -0.174 NA
ATOM     16  C   LIG    1        0.864  -2.046   1.044  0.00  0.00    +0.125 C 
ATOM     17  C   LIG    1        0.706  -0.527   1.180  0.00  0.00    +0.101 C 
ENDBRANCH   8  15
ENDBRANCH   1   8
BRANCH   6  18
ATOM     18  N   LIG    1        2.414  -7.736   0.944  0.00  0.00    +0.007 N 
ATOM     19  O   LIG    1        3.128  -7.220   1.772  0.00  0.00    -0.130 OA
BRANCH  18  20
ATOM     20  O   LIG    1        2.764  -8.754   0.394  0.00  0.00    -0.396 OA
ATOM     21  H   LIG    1        2.210  -9.154  -0.247  0.00  0.00    +0.329 HD
ENDBRANCH  18  20
ENDBRANCH   6  18
TORSDOF 4
