REMARK  Name = ZINC13782583
REMARK                            x       y       z     vdW  Elec       q    Type
REMARK                         _______ _______ _______ _____ _____    ______ ____
ROOT
ATOM      1  N   LIG    1        3.585   2.125  -0.021  0.00  0.00    -0.298 N 
ATOM      2  C   LIG    1        4.650   1.926   0.808  0.00  0.00    +0.205 A 
ATOM      3  N   LIG    1        5.600   2.767   0.523  0.00  0.00    -0.235 NA
ATOM      4  C   LIG    1        5.214   3.564  -0.508  0.00  0.00    +0.090 A 
ATOM      5  C   LIG    1        5.830   4.611  -1.198  0.00  0.00    +0.033 A 
ATOM      6  C   LIG    1        5.178   5.227  -2.227  0.00  0.00    +0.047 A 
ATOM      7  C   LIG    1        3.894   4.831  -2.591  0.00  0.00    +0.119 A 
ATOM      8  C   LIG    1        3.264   3.799  -1.918  0.00  0.00    +0.073 A 
ATOM      9  C   LIG    1        3.919   3.159  -0.875  0.00  0.00    +0.077 A 
ENDROOT
BRANCH   1  13
ATOM     10  C   LIG    1        0.002  -0.004   0.002  0.00  0.00    +0.000 A 
ATOM     11  C   LIG    1       -0.017   1.379   0.010  0.00  0.00    +0.002 A 
ATOM     12  C   LIG    1        1.169   2.087   0.002  0.00  0.00    +0.026 A 
ATOM     13  C   LIG    1        2.381   1.409  -0.013  0.00  0.00    +0.048 A 
ATOM     14  C   LIG    1        2.396   0.021  -0.021  0.00  0.00    +0.026 A 
ATOM     15  C   LIG    1        1.207  -0.682  -0.013  0.00  0.00    +0.002 A 
ENDBRANCH   1  13
BRANCH   7  16
ATOM     16  O   LIG    1        3.256   5.460  -3.614  0.00  0.00    -0.507 OA
ATOM     17  H   LIG    1        2.730   6.223  -3.339  0.00  0.00    +0.292 HD
ENDBRANCH   7  16
TORSDOF 2
