REMARK  Name = ZINC45506743
REMARK                            x       y       z     vdW  Elec       q    Type
REMARK                         _______ _______ _______ _____ _____    ______ ____
ROOT
ATOM      1  C   LIG    1        1.270  -2.353  -2.567  0.00  0.00    +0.061 C 
ATOM      2  C   LIG    1        1.603  -3.654  -2.567  0.00  0.00    +0.013 C 
ATOM      3  C   LIG    1        1.098  -4.545  -1.462  0.00  0.00    +0.061 C 
ATOM      4  N   LIG    1        2.389  -4.186  -3.548  0.00  0.00    -0.331 N 
ATOM      5  H   LIG    1        2.410  -5.146  -3.685  0.00  0.00    +0.147 HD
ATOM      6  C   LIG    1        3.163  -3.352  -4.352  0.00  0.00    +0.144 C 
ATOM      7  C   LIG    1        2.874  -1.998  -4.419  0.00  0.00    +0.053 C 
ATOM      8  C   LIG    1        3.659  -1.183  -5.225  0.00  0.00    +0.062 C 
ATOM      9  C   LIG    1        4.716  -1.761  -5.943  0.00  0.00    +0.023 C 
ATOM     10  C   LIG    1        4.946  -3.109  -5.826  0.00  0.00    +0.060 C 
ATOM     11  C   LIG    1        6.071  -3.801  -6.553  0.00  0.00    +0.019 C 
ATOM     12  C   LIG    1        6.574  -2.939  -7.709  0.00  0.00    +0.002 C 
ATOM     13  C   LIG    1        6.874  -1.535  -7.171  0.00  0.00    +0.000 C 
ATOM     14  C   LIG    1        5.549  -0.862  -6.817  0.00  0.00    +0.006 C 
ATOM     15  N   LIG    1        4.171  -3.854  -5.046  0.00  0.00    -0.295 NA
ATOM     16  H   LIG    1        4.351  -4.806  -4.984  0.00  0.00    +0.124 HD
ATOM     17  C   LIG    1        1.725  -1.412  -3.645  0.00  0.00    +0.065 C 
ENDROOT
BRANCH  17  18
ATOM     18  C   LIG    1        0.576  -1.142  -4.583  0.00  0.00    -0.036 A 
ATOM     19  C   LIG    1       -0.017  -2.188  -5.266  0.00  0.00    +0.008 A 
ATOM     20  C   LIG    1       -1.071  -1.945  -6.127  0.00  0.00    +0.050 A 
ATOM     21  C   LIG    1       -1.535  -0.652  -6.307  0.00  0.00    +0.162 A 
ATOM     22  C   LIG    1       -0.938   0.401  -5.619  0.00  0.00    +0.162 A 
ATOM     23  C   LIG    1        0.115   0.150  -4.754  0.00  0.00    +0.053 A 
BRANCH  21  24
ATOM     24  O   LIG    1       -2.571  -0.411  -7.154  0.00  0.00    -0.491 OA
ATOM     25  C   LIG    1       -3.134  -1.539  -7.827  0.00  0.00    +0.277 C 
ENDBRANCH  21  24
BRANCH  22  26
ATOM     26  O   LIG    1       -1.389   1.671  -5.793  0.00  0.00    -0.491 OA
ATOM     27  C   LIG    1       -0.729   2.701  -5.054  0.00  0.00    +0.277 C 
ENDBRANCH  22  26
ENDBRANCH  17  18
BRANCH   8  28
ATOM     28  N   LIG    1        3.402   0.181  -5.319  0.00  0.00    -0.327 NA
ATOM     29  H   LIG    1        3.956   0.742  -5.885  0.00  0.00    +0.118 HD
ATOM     30  H   LIG    1        2.668   0.572  -4.819  0.00  0.00    +0.118 HD
ENDBRANCH   8  28
BRANCH   1  31
ATOM     31  C   LIG    1        0.461  -1.854  -1.522  0.00  0.00    +0.337 C 
ATOM     32  O   LIG    1        0.952  -1.163  -0.649  0.00  0.00    -0.245 OA
BRANCH  31  33
ATOM     33  O   LIG    1       -0.857  -2.144  -1.492  0.00  0.00    -0.462 OA
BRANCH  33  35
ATOM     34  C   LIG    1       -3.076  -2.039  -0.540  0.00  0.00    +0.048 C 
ATOM     35  C   LIG    1       -1.615  -1.607  -0.406  0.00  0.00    +0.229 C 
ENDBRANCH  33  35
ENDBRANCH  31  33
ENDBRANCH   1  31
TORSDOF 7
