REMARK  Name = ZINC68197070
REMARK                            x       y       z     vdW  Elec       q    Type
REMARK                         _______ _______ _______ _____ _____    ______ ____
ROOT
ATOM      1  C   LIG    1       -2.476  -3.989  -0.739  0.00  0.00    -0.064 A 
ATOM      2  C   LIG    1       -2.470  -4.681  -1.937  0.00  0.00    +0.002 A 
ATOM      3  C   LIG    1       -2.528  -6.060  -1.941  0.00  0.00    +0.009 A 
ATOM      4  C   LIG    1       -2.592  -6.755  -0.735  0.00  0.00    -0.016 A 
ATOM      5  C   LIG    1       -2.597  -6.054   0.469  0.00  0.00    +0.009 A 
ATOM      6  C   LIG    1       -2.534  -4.675   0.461  0.00  0.00    +0.002 A 
ENDROOT
BRANCH   4   7
ATOM      7  C   LIG    1       -2.654  -8.238  -0.734  0.00  0.00    +0.008 A 
ATOM      8  C   LIG    1       -1.636  -8.980  -0.139  0.00  0.00    +0.010 A 
ATOM      9  C   LIG    1       -1.699 -10.359  -0.140  0.00  0.00    +0.001 A 
ATOM     10  C   LIG    1       -2.772 -11.004  -0.730  0.00  0.00    +0.002 A 
ATOM     11  C   LIG    1       -3.785 -10.272  -1.321  0.00  0.00    +0.029 A 
ATOM     12  C   LIG    1       -3.735  -8.893  -1.321  0.00  0.00    +0.113 A 
BRANCH  12  13
ATOM     13  S   LIG    1       -5.030  -7.962  -2.069  0.00  0.00    +0.061 S 
ATOM     14  O   LIG    1       -5.961  -8.904  -2.585  0.00  0.00    -0.153 OA
ATOM     15  O   LIG    1       -4.406  -6.981  -2.886  0.00  0.00    -0.153 OA
BRANCH  13  16
ATOM     16  N   LIG    1       -5.808  -7.144  -0.857  0.00  0.00    -0.177 NA
ATOM     17  C   LIG    1       -6.952  -7.645  -0.082  0.00  0.00    +0.109 C 
ATOM     18  C   LIG    1       -7.353  -6.534   0.912  0.00  0.00    +0.018 C 
ATOM     19  C   LIG    1       -6.775  -5.254   0.254  0.00  0.00    +0.018 C 
ATOM     20  C   LIG    1       -5.463  -5.794  -0.373  0.00  0.00    +0.109 C 
ENDBRANCH  13  16
ENDBRANCH  12  13
ENDBRANCH   4   7
BRANCH   1  21
ATOM     21  C   LIG    1       -2.413  -2.484  -0.741  0.00  0.00    -0.047 C 
BRANCH  21  22
ATOM     22  N   LIG    1       -1.009  -2.053  -0.708  0.00  0.00    +0.382 N 
ATOM     23  H   LIG    1       -0.568  -2.407   0.128  0.00  0.00    -0.085 HD
ATOM     24  H   LIG    1       -0.528  -2.410  -1.519  0.00  0.00    -0.085 HD
BRANCH  22  25
ATOM     25  C   LIG    1       -0.947  -0.585  -0.709  0.00  0.00    -0.079 C 
BRANCH  25  27
ATOM     26  C   LIG    1        0.584   1.387  -0.802  0.00  0.00    +0.005 C 
ATOM     27  C   LIG    1        0.515  -0.136  -0.675  0.00  0.00    -0.034 C 
ATOM     28  C   LIG    1        1.150  -0.566   0.649  0.00  0.00    +0.005 C 
ENDBRANCH  25  27
ENDBRANCH  22  25
ENDBRANCH  21  22
ENDBRANCH   1  21
TORSDOF 7
