REMARK  Name = ZINC22142484
REMARK                            x       y       z     vdW  Elec       q    Type
REMARK                         _______ _______ _______ _____ _____    ______ ____
ROOT
ATOM      1  N   LIG    1        4.245  -1.104   1.563  0.00  0.00    -0.216 N 
ATOM      2  H   LIG    1        4.610  -0.313   1.990  0.00  0.00    +0.174 HD
ENDROOT
BRANCH   1   3
ATOM      3  C   LIG    1        3.438  -1.982   2.291  0.00  0.00    +0.048 A 
ATOM      4  C   LIG    1        2.064  -1.996   2.088  0.00  0.00    +0.024 A 
ATOM      5  C   LIG    1        1.270  -2.865   2.809  0.00  0.00    +0.002 A 
ATOM      6  C   LIG    1        1.841  -3.721   3.734  0.00  0.00    +0.002 A 
ATOM      7  C   LIG    1        3.209  -3.709   3.939  0.00  0.00    -0.063 A 
ATOM      8  C   LIG    1        4.010  -2.846   3.217  0.00  0.00    +0.026 A 
BRANCH   7   9
ATOM      9  C   LIG    1        3.826  -4.642   4.949  0.00  0.00    -0.051 C 
BRANCH   9  10
ATOM     10  N   LIG    1        4.183  -5.907   4.292  0.00  0.00    +0.381 N 
ATOM     11  H   LIG    1        4.597  -6.531   4.968  0.00  0.00    -0.090 HD
ATOM     12  H   LIG    1        4.845  -5.726   3.552  0.00  0.00    -0.090 HD
ATOM     13  H   LIG    1        3.353  -6.331   3.905  0.00  0.00    -0.090 HD
ENDBRANCH   9  10
ENDBRANCH   7   9
ENDBRANCH   1   3
BRANCH   1  14
ATOM     14  S   LIG    1        4.578  -1.414  -0.029  0.00  0.00    +0.072 S 
ATOM     15  O   LIG    1        3.330  -1.653  -0.666  0.00  0.00    -0.150 OA
ATOM     16  O   LIG    1        5.472  -0.398  -0.462  0.00  0.00    -0.150 OA
BRANCH  14  20
ATOM     17  C   LIG    1        6.877  -5.311  -0.185  0.00  0.00    +0.000 A 
ATOM     18  C   LIG    1        5.507  -5.308  -0.370  0.00  0.00    +0.002 A 
ATOM     19  C   LIG    1        4.805  -4.118  -0.322  0.00  0.00    +0.029 A 
ATOM     20  C   LIG    1        5.473  -2.931  -0.089  0.00  0.00    +0.108 A 
ATOM     21  C   LIG    1        6.842  -2.933   0.097  0.00  0.00    +0.029 A 
ATOM     22  C   LIG    1        7.544  -4.123   0.048  0.00  0.00    +0.002 A 
ENDBRANCH  14  20
ENDBRANCH   1  14
TORSDOF 5
