REMARK  Name = ZINC28232222
REMARK                            x       y       z     vdW  Elec       q    Type
REMARK                         _______ _______ _______ _____ _____    ______ ____
ROOT
ATOM      1  N   LIG    1        0.614  -2.917   2.155  0.00  0.00    -0.391 NA
ATOM      2  H   LIG    1        0.772  -3.875   1.878  0.00  0.00    +0.127 HD
ATOM      3  C   LIG    1        1.801  -2.408   2.855  0.00  0.00    +0.100 C 
ATOM      4  C   LIG    1        2.075  -3.272   4.088  0.00  0.00    +0.102 C 
ATOM      5  N   LIG    1        0.907  -3.236   4.978  0.00  0.00    -0.294 NA
ATOM      6  C   LIG    1       -0.295  -3.719   4.283  0.00  0.00    +0.102 C 
ATOM      7  C   LIG    1       -0.550  -2.852   3.049  0.00  0.00    +0.100 C 
ENDROOT
BRANCH   1  14
ATOM      8  C   LIG    1       -0.124   1.499   0.139  0.00  0.00    +0.044 C 
ATOM      9  C   LIG    1        0.011   0.004   0.013  0.00  0.00    -0.049 A 
ATOM     10  C   LIG    1       -0.103  -0.598  -1.227  0.00  0.00    +0.004 A 
ATOM     11  C   LIG    1        0.021  -1.970  -1.343  0.00  0.00    +0.005 A 
ATOM     12  C   LIG    1        0.259  -2.740  -0.220  0.00  0.00    -0.031 A 
ATOM     13  C   LIG    1        0.392  -4.236  -0.346  0.00  0.00    +0.045 C 
ATOM     14  C   LIG    1        0.374  -2.138   1.019  0.00  0.00    +0.017 A 
ATOM     15  C   LIG    1        0.254  -0.766   1.135  0.00  0.00    +0.025 A 
ENDBRANCH   1  14
BRANCH   5  16
ATOM     16  C   LIG    1        1.153  -4.009   6.203  0.00  0.00    +0.085 C 
ATOM     17  C   LIG    1       -0.074  -3.927   7.113  0.00  0.00    +0.021 C 
ATOM     18  C   LIG    1        0.183  -4.732   8.389  0.00  0.00    +0.002 C 
ATOM     19  C   LIG    1        1.399  -4.158   9.118  0.00  0.00    +0.003 C 
ATOM     20  C   LIG    1        2.626  -4.239   8.208  0.00  0.00    +0.033 C 
ATOM     21  C   LIG    1        2.369  -3.434   6.933  0.00  0.00    +0.132 C 
BRANCH  21  22
ATOM     22  O   LIG    1        2.119  -2.069   7.274  0.00  0.00    -0.390 OA
ATOM     23  H   LIG    1        2.849  -1.640   7.740  0.00  0.00    +0.210 HD
ENDBRANCH  21  22
ENDBRANCH   5  16
TORSDOF 3
