REMARK  Name = ZINC28123047
REMARK                            x       y       z     vdW  Elec       q    Type
REMARK                         _______ _______ _______ _____ _____    ______ ____
ROOT
ATOM      1  C   LIG    1       -6.222   6.911   0.499  0.00  0.00    +0.160 A 
ATOM      2  C   LIG    1       -6.149   5.512   0.501  0.00  0.00    +0.170 A 
ATOM      3 CL   LIG    1       -7.601   4.569   0.629  0.00  0.00    -0.058 Cl
ATOM      4  N   LIG    1       -4.983   4.911   0.407  0.00  0.00    -0.224 NA
ATOM      5  C   LIG    1       -3.866   5.632   0.308  0.00  0.00    +0.167 A 
ATOM      6  C   LIG    1       -3.936   7.034   0.311  0.00  0.00    +0.149 A 
ATOM      7  N   LIG    1       -5.116   7.636   0.401  0.00  0.00    -0.212 NA
ENDROOT
BRANCH   5   8
ATOM      8  C   LIG    1       -2.560   4.958   0.202  0.00  0.00    +0.271 C 
ATOM      9  N   LIG    1       -2.501   3.617   0.080  0.00  0.00    -0.265 N 
ATOM     10  H   LIG    1       -3.428   3.034  -0.026  0.00  0.00    +0.157 HD
ATOM     11  O   LIG    1       -1.534   5.612   0.226  0.00  0.00    -0.268 OA
BRANCH   9  12
ATOM     12  C   LIG    1       -1.268   2.970   0.087  0.00  0.00    +0.125 A 
ATOM     13  C   LIG    1       -1.218   1.581   0.067  0.00  0.00    +0.044 A 
ATOM     14  C   LIG    1        0.014   0.951   0.073  0.00  0.00    +0.005 A 
ATOM     15  C   LIG    1        1.159   1.736   0.100  0.00  0.00    +0.020 A 
ATOM     16  C   LIG    1        1.036   3.111   0.119  0.00  0.00    +0.113 A 
ATOM     17  N   LIG    1       -0.153   3.684   0.117  0.00  0.00    -0.240 NA
ENDBRANCH   9  12
ENDBRANCH   5   8
BRANCH   1  19
ATOM     18  C   LIG    1       -7.554   8.302   1.849  0.00  0.00    +0.130 C 
ATOM     19  N   LIG    1       -7.452   7.538   0.599  0.00  0.00    -0.319 N 
ATOM     20  C   LIG    1       -7.700   8.399  -0.566  0.00  0.00    +0.130 C 
ENDBRANCH   1  19
BRANCH   6  21
ATOM     21  N   LIG    1       -2.779   7.786   0.214  0.00  0.00    -0.341 N 
ATOM     22  H   LIG    1       -1.802   7.286   0.135  0.00  0.00    +0.144 HD
ATOM     23  H   LIG    1       -2.836   8.885   0.216  0.00  0.00    +0.144 HD
ENDBRANCH   6  21
TORSDOF 4
