REMARK  Name = ZINC28571624
REMARK                            x       y       z     vdW  Elec       q    Type
REMARK                         _______ _______ _______ _____ _____    ______ ____
ROOT
ATOM      1  N   LIG    1        1.141  -1.448  -1.685  0.00  0.00    -0.281 N 
ATOM      2  H   LIG    1        1.149  -2.418  -1.660  0.00  0.00    +0.155 HD
ATOM      3  C   LIG    1        1.145  -0.804  -2.868  0.00  0.00    +0.248 C 
ATOM      4  O   LIG    1        1.055   0.407  -2.901  0.00  0.00    -0.270 OA
ENDROOT
BRANCH   1   9
ATOM      5  C   LIG    1        1.065   1.523   3.153  0.00  0.00    +0.045 C 
ATOM      6  C   LIG    1        1.087   0.733   1.869  0.00  0.00    -0.029 A 
ATOM      7  C   LIG    1        0.361   1.170   0.777  0.00  0.00    +0.007 A 
ATOM      8  C   LIG    1        0.378   0.450  -0.401  0.00  0.00    +0.024 A 
ATOM      9  C   LIG    1        1.125  -0.719  -0.492  0.00  0.00    +0.035 A 
ATOM     10  C   LIG    1        1.855  -1.160   0.602  0.00  0.00    +0.047 A 
ATOM     11  C   LIG    1        1.841  -0.430   1.783  0.00  0.00    +0.038 A 
BRANCH  11  12
ATOM     12  N   LIG    1        2.580  -0.869   2.886  0.00  0.00    -0.283 N 
ATOM     13  H   LIG    1        2.937  -0.225   3.517  0.00  0.00    +0.155 HD
BRANCH  12  14
ATOM     14  C   LIG    1        2.802  -2.223   3.077  0.00  0.00    +0.220 A 
ATOM     15  N   LIG    1        2.211  -3.094   2.271  0.00  0.00    -0.223 NA
ATOM     16  C   LIG    1        2.398  -4.396   2.421  0.00  0.00    +0.116 A 
ATOM     17  C   LIG    1        3.224  -4.849   3.435  0.00  0.00    +0.048 A 
ATOM     18  C   LIG    1        3.832  -3.907   4.269  0.00  0.00    +0.079 A 
ATOM     19  N   LIG    1        3.602  -2.613   4.056  0.00  0.00    -0.214 NA
BRANCH  18  20
ATOM     20  C   LIG    1        4.725  -4.342   5.370  0.00  0.00    +0.037 A 
ATOM     21  C   LIG    1        4.981  -5.697   5.594  0.00  0.00    +0.124 A 
ATOM     22  N   LIG    1        5.784  -6.041   6.586  0.00  0.00    -0.243 NA
ATOM     23  C   LIG    1        6.338  -5.127   7.358  0.00  0.00    +0.221 A 
ATOM     24  N   LIG    1        6.123  -3.838   7.182  0.00  0.00    -0.243 NA
ATOM     25  C   LIG    1        5.338  -3.407   6.209  0.00  0.00    +0.124 A 
ENDBRANCH  18  20
ENDBRANCH  12  14
ENDBRANCH  11  12
ENDBRANCH   1   9
BRANCH   3  26
ATOM     26  C   LIG    1        1.259  -1.572  -4.127  0.00  0.00    +0.038 A 
ATOM     27  C   LIG    1        1.356  -2.964  -4.093  0.00  0.00    +0.013 A 
ATOM     28  C   LIG    1        1.462  -3.674  -5.270  0.00  0.00    +0.003 A 
ATOM     29  C   LIG    1        1.472  -3.009  -6.484  0.00  0.00    -0.052 A 
ATOM     30  C   LIG    1        1.376  -1.630  -6.525  0.00  0.00    +0.057 A 
ATOM     31  C   LIG    1        1.263  -0.908  -5.354  0.00  0.00    +0.025 A 
BRANCH  30  32
ATOM     32  C   LIG    1        1.387  -0.914  -7.851  0.00  0.00    +0.418 C 
ATOM     33  F   LIG    1        0.310  -1.354  -8.627  0.00  0.00    -0.166 F 
ATOM     34  F   LIG    1        2.586  -1.189  -8.519  0.00  0.00    -0.166 F 
ATOM     35  F   LIG    1        1.278   0.464  -7.639  0.00  0.00    -0.166 F 
ENDBRANCH  30  32
BRANCH  29  36
ATOM     36  C   LIG    1        1.588  -3.792  -7.767  0.00  0.00    -0.043 C 
BRANCH  36  37
ATOM     37  N   LIG    1        2.995  -3.839  -8.186  0.00  0.00    +0.381 N 
ATOM     38  H   LIG    1        3.378  -2.906  -8.224  0.00  0.00    -0.081 HD
ATOM     39  C   LIG    1        3.777  -4.676  -7.251  0.00  0.00    -0.080 C 
ATOM     40  C   LIG    1        4.839  -5.415  -8.087  0.00  0.00    -0.036 C 
ATOM     41  C   LIG    1        4.587  -4.968  -9.546  0.00  0.00    -0.088 C 
ATOM     42  C   LIG    1        3.112  -4.495  -9.513  0.00  0.00    -0.094 C 
BRANCH  41  43
ATOM     43  N   LIG    1        4.755  -6.097 -10.471  0.00  0.00    +0.377 N 
ATOM     44  H   LIG    1        4.115  -6.835 -10.220  0.00  0.00    -0.082 HD
ATOM     45  C   LIG    1        6.134  -6.596 -10.390  0.00  0.00    -0.096 C 
ATOM     46  C   LIG    1        4.475  -5.651 -11.843  0.00  0.00    -0.096 C 
ENDBRANCH  41  43
ENDBRANCH  36  37
ENDBRANCH  29  36
ENDBRANCH   3  26
TORSDOF 9
