REMARK  Name = ZINC13800620
REMARK                            x       y       z     vdW  Elec       q    Type
REMARK                         _______ _______ _______ _____ _____    ______ ____
ROOT
ATOM      1  N   LIG    1        3.584   2.123  -0.021  0.00  0.00    -0.284 N 
ATOM      2  H   LIG    1        4.429   1.652   0.045  0.00  0.00    +0.155 HD
ATOM      3  C   LIG    1        3.569   3.468  -0.116  0.00  0.00    +0.234 C 
ATOM      4  O   LIG    1        2.513   4.065  -0.103  0.00  0.00    -0.274 OA
ENDROOT
BRANCH   1   7
ATOM      5  C   LIG    1        0.112   1.159  -0.752  0.00  0.00    +0.004 A 
ATOM      6  C   LIG    1        1.298   1.867  -0.756  0.00  0.00    +0.023 A 
ATOM      7  C   LIG    1        2.381   1.409  -0.019  0.00  0.00    +0.035 A 
ATOM      8  C   LIG    1        2.269   0.238   0.720  0.00  0.00    +0.051 A 
ATOM      9  C   LIG    1        1.081  -0.466   0.720  0.00  0.00    +0.107 A 
ATOM     10  C   LIG    1        0.003  -0.006  -0.015  0.00  0.00    +0.028 A 
BRANCH   9  11
ATOM     11  S   LIG    1        0.937  -1.951   1.657  0.00  0.00    +0.056 S 
ATOM     12  O   LIG    1        2.255  -2.457   1.820  0.00  0.00    -0.153 OA
ATOM     13  O   LIG    1       -0.102  -2.711   1.056  0.00  0.00    -0.153 OA
BRANCH  11  14
ATOM     14  N   LIG    1        0.402  -1.528   3.166  0.00  0.00    -0.204 NA
ATOM     15  H   LIG    1        0.633  -0.662   3.537  0.00  0.00    +0.144 HD
ATOM     16  H   LIG    1       -0.141  -2.147   3.679  0.00  0.00    +0.144 HD
ENDBRANCH  11  14
ENDBRANCH   9  11
ENDBRANCH   1   7
BRANCH   3  17
ATOM     17  C   LIG    1        4.863   4.229  -0.238  0.00  0.00    +0.200 C 
BRANCH  17  18
ATOM     18  N   LIG    1        4.580   5.664  -0.326  0.00  0.00    -0.308 N 
ATOM     19  H   LIG    1        3.663   5.979  -0.300  0.00  0.00    +0.149 HD
ATOM     20  C   LIG    1        5.593   6.545  -0.442  0.00  0.00    +0.196 C 
ATOM     21  O   LIG    1        6.739   6.151  -0.474  0.00  0.00    -0.278 OA
BRANCH  20  22
ATOM     22  C   LIG    1        5.301   8.021  -0.531  0.00  0.00    +0.011 C 
BRANCH  22  23
ATOM     23  N   LIG    1        6.563   8.764  -0.650  0.00  0.00    +0.384 N 
ATOM     24  H   LIG    1        6.367   9.752  -0.710  0.00  0.00    -0.089 HD
ATOM     25  H   LIG    1        7.051   8.466  -1.482  0.00  0.00    -0.089 HD
ATOM     26  H   LIG    1        7.137   8.583   0.159  0.00  0.00    -0.089 HD
ENDBRANCH  22  23
ENDBRANCH  20  22
ENDBRANCH  17  18
ENDBRANCH   3  17
TORSDOF 7
