REMARK  Name = ZINC28711981
REMARK                            x       y       z     vdW  Elec       q    Type
REMARK                         _______ _______ _______ _____ _____    ______ ____
ROOT
ATOM      1  C   LIG    1       -4.663  -0.501   2.776  0.00  0.00    +0.086 C 
ATOM      2  C   LIG    1       -5.308   0.841   2.548  0.00  0.00    +0.110 A 
ATOM      3  N   LIG    1       -6.022   1.351   3.505  0.00  0.00    -0.234 NA
ATOM      4  C   LIG    1       -6.637   2.553   3.370  0.00  0.00    +0.078 A 
ATOM      5  C   LIG    1       -7.411   3.099   4.397  0.00  0.00    +0.032 A 
ATOM      6  C   LIG    1       -8.015   4.311   4.223  0.00  0.00    +0.048 A 
ATOM      7  C   LIG    1       -7.872   5.018   3.031  0.00  0.00    +0.129 A 
ATOM      8  C   LIG    1       -7.112   4.502   1.997  0.00  0.00    +0.061 A 
ATOM      9  C   LIG    1       -6.489   3.266   2.159  0.00  0.00    +0.068 A 
ATOM     10  C   LIG    1       -5.668   2.663   1.099  0.00  0.00    +0.262 A 
ATOM     11  O   LIG    1       -5.501   3.226   0.032  0.00  0.00    -0.267 OA
ATOM     12  N   LIG    1       -5.106   1.459   1.354  0.00  0.00    -0.296 N 
ENDROOT
BRANCH   7  13
ATOM     13  O   LIG    1       -8.483   6.223   2.883  0.00  0.00    -0.456 OA
BRANCH  13  14
ATOM     14  C   LIG    1       -9.126   6.749   3.959  0.00  0.00    +0.129 A 
ATOM     15  C   LIG    1      -10.512   6.724   4.021  0.00  0.00    +0.049 A 
ATOM     16  C   LIG    1      -11.163   7.254   5.118  0.00  0.00    +0.042 A 
ATOM     17  C   LIG    1      -10.434   7.820   6.150  0.00  0.00    +0.124 A 
ATOM     18  F   LIG    1      -11.072   8.344   7.219  0.00  0.00    -0.205 F 
ATOM     19  C   LIG    1       -9.051   7.851   6.087  0.00  0.00    +0.042 A 
ATOM     20  C   LIG    1       -8.397   7.316   4.994  0.00  0.00    +0.049 A 
ENDBRANCH  13  14
ENDBRANCH   7  13
BRANCH  12  21
ATOM     21  C   LIG    1       -4.279   0.812   0.333  0.00  0.00    +0.128 C 
BRANCH  21  22
ATOM     22  C   LIG    1       -5.135  -0.169  -0.471  0.00  0.00    -0.008 C 
ATOM     23  C   LIG    1       -6.203   0.603  -1.250  0.00  0.00    +0.001 C 
ATOM     24  C   LIG    1       -7.016  -0.381  -2.097  0.00  0.00    -0.018 C 
ATOM     25  C   LIG    1       -6.073  -1.141  -3.033  0.00  0.00    -0.078 C 
ATOM     26  N   LIG    1       -5.071  -1.863  -2.239  0.00  0.00    +0.381 N 
ATOM     27  H   LIG    1       -5.607  -2.514  -1.534  0.00  0.00    -0.081 HD
ATOM     28  C   LIG    1       -4.247  -0.935  -1.454  0.00  0.00    -0.073 C 
BRANCH  26  29
ATOM     29  C   LIG    1       -4.234  -2.714  -3.096  0.00  0.00    -0.075 C 
ATOM     30  C   LIG    1       -3.142  -3.372  -2.251  0.00  0.00    -0.014 C 
ATOM     31  C   LIG    1       -3.588  -1.859  -4.188  0.00  0.00    -0.014 C 
ENDBRANCH  26  29
ENDBRANCH  21  22
ENDBRANCH  12  21
TORSDOF 5
