REMARK  Name = ZINC16052729
REMARK                            x       y       z     vdW  Elec       q    Type
REMARK                         _______ _______ _______ _____ _____    ______ ____
ROOT
ATOM      1  C   LIG    1        0.858   2.030   0.118  0.00  0.00    +0.129 A 
ATOM      2  C   LIG    1        0.760   3.422   0.200  0.00  0.00    +0.047 A 
ATOM      3  C   LIG    1       -0.454   4.034   0.268  0.00  0.00    +0.013 A 
ATOM      4  C   LIG    1       -1.625   3.262   0.256  0.00  0.00    -0.006 A 
ATOM      5  C   LIG    1       -1.530   1.851   0.168  0.00  0.00    -0.014 A 
ATOM      6  C   LIG    1       -2.704   1.077   0.161  0.00  0.00    +0.008 A 
ATOM      7  C   LIG    1       -3.923   1.683   0.228  0.00  0.00    +0.001 A 
ATOM      8  C   LIG    1       -4.036   3.065   0.309  0.00  0.00    +0.013 A 
ATOM      9  C   LIG    1       -2.904   3.867   0.324  0.00  0.00    +0.044 A 
ATOM     10  C   LIG    1       -0.263   1.248   0.105  0.00  0.00    +0.054 A 
ENDROOT
BRANCH   9  11
ATOM     11  C   LIG    1       -3.031   5.334   0.411  0.00  0.00    +0.245 C 
ATOM     12  N   LIG    1       -4.243   5.895   0.596  0.00  0.00    -0.308 N 
ATOM     13  H   LIG    1       -5.030   5.335   0.672  0.00  0.00    +0.149 HD
ATOM     14  O   LIG    1       -2.044   6.036   0.315  0.00  0.00    -0.270 OA
BRANCH  12  15
ATOM     15  C   LIG    1       -4.369   7.352   0.681  0.00  0.00    +0.073 C 
ATOM     16  C   LIG    1       -5.277   7.920   1.775  0.00  0.00    +0.024 C 
ATOM     17  C   LIG    1       -5.720   7.967   0.310  0.00  0.00    +0.024 C 
ENDBRANCH  12  15
ENDBRANCH   9  11
BRANCH   1  18
ATOM     18  O   LIG    1        2.084   1.446   0.051  0.00  0.00    -0.455 OA
BRANCH  18  22
ATOM     19  C   LIG    1        3.909   3.013   3.499  0.00  0.00    +0.162 A 
ATOM     20  C   LIG    1        3.291   2.487   2.402  0.00  0.00    +0.063 A 
ATOM     21  C   LIG    1        3.783   2.781   1.121  0.00  0.00    +0.046 A 
ATOM     22  C   LIG    1        3.169   2.254  -0.038  0.00  0.00    +0.139 A 
ATOM     23  C   LIG    1        3.707   2.593  -1.267  0.00  0.00    +0.066 A 
ATOM     24  C   LIG    1        4.819   3.422  -1.328  0.00  0.00    +0.115 A 
ATOM     25  N   LIG    1        5.385   3.901  -0.245  0.00  0.00    -0.255 NA
ATOM     26  C   LIG    1        4.918   3.615   0.976  0.00  0.00    +0.078 A 
ATOM     27  C   LIG    1        5.535   4.137   2.125  0.00  0.00    +0.077 A 
ATOM     28  C   LIG    1        5.030   3.844   3.359  0.00  0.00    +0.164 A 
BRANCH  19  30
ATOM     29  C   LIG    1        2.288   1.877   4.817  0.00  0.00    +0.277 C 
ATOM     30  O   LIG    1        3.433   2.729   4.741  0.00  0.00    -0.491 OA
ENDBRANCH  19  30
BRANCH  28  31
ATOM     31  O   LIG    1        5.628   4.356   4.467  0.00  0.00    -0.491 OA
ATOM     32  C   LIG    1        6.765   5.196   4.261  0.00  0.00    +0.277 C 
ENDBRANCH  28  31
ENDBRANCH  18  22
ENDBRANCH   1  18
TORSDOF 6
