REMARK  Name = ZINC00005871
REMARK                            x       y       z     vdW  Elec       q    Type
REMARK                         _______ _______ _______ _____ _____    ______ ____
ROOT
ATOM      1  C   LIG    1       -1.204  -1.164  -0.329  0.00  0.00    +0.162 A 
ATOM      2  C   LIG    1       -2.311  -0.332  -0.315  0.00  0.00    +0.050 A 
ATOM      3  C   LIG    1       -3.563  -0.851  -0.040  0.00  0.00    +0.009 A 
ATOM      4  C   LIG    1       -3.712  -2.200   0.222  0.00  0.00    -0.024 A 
ATOM      5  C   LIG    1       -2.611  -3.036   0.210  0.00  0.00    +0.054 A 
ATOM      6  C   LIG    1       -1.355  -2.523  -0.071  0.00  0.00    +0.163 A 
ENDROOT
BRANCH   4   7
ATOM      7  C   LIG    1       -5.078  -2.761   0.522  0.00  0.00    +0.082 C 
ATOM      8  C   LIG    1       -5.432  -3.825  -0.519  0.00  0.00    +0.027 C 
ATOM      9  C   LIG    1       -6.819  -4.395  -0.215  0.00  0.00    +0.016 C 
ATOM     10  C   LIG    1       -7.855  -3.269  -0.264  0.00  0.00    +0.098 C 
ATOM     11  C   LIG    1       -7.501  -2.205   0.777  0.00  0.00    +0.016 C 
ATOM     12  C   LIG    1       -6.114  -1.636   0.473  0.00  0.00    +0.027 C 
BRANCH   7  13
ATOM     13  C   LIG    1       -5.076  -3.368   1.863  0.00  0.00    +0.074 C 
ATOM     14  N   LIG    1       -5.075  -3.837   2.898  0.00  0.00    -0.196 NA
ENDBRANCH   7  13
BRANCH  10  15
ATOM     15  C   LIG    1       -7.857  -2.648  -1.637  0.00  0.00    +0.308 C 
ATOM     16  O   LIG    1       -7.585  -3.326  -2.613  0.00  0.00    -0.251 OA
BRANCH  15  17
ATOM     17  O   LIG    1       -8.130  -1.467  -1.772  0.00  0.00    -0.480 OA
ATOM     18  H   LIG    1       -8.339  -0.946  -1.021  0.00  0.00    +0.295 HD
ENDBRANCH  15  17
ENDBRANCH  10  15
ENDBRANCH   4   7
BRANCH   1  20
ATOM     19  C   LIG    1        0.108   0.749  -0.855  0.00  0.00    +0.277 C 
ATOM     20  O   LIG    1        0.028  -0.655  -0.599  0.00  0.00    -0.491 OA
ENDBRANCH   1  20
BRANCH   6  21
ATOM     21  O   LIG    1       -0.271  -3.345  -0.089  0.00  0.00    -0.485 OA
BRANCH  21  22
ATOM     22  C   LIG    1       -0.515  -4.743   0.075  0.00  0.00    +0.174 C 
ATOM     23  C   LIG    1       -0.559  -5.101   1.575  0.00  0.00    +0.044 C 
ATOM     24  C   LIG    1        0.118  -6.492   1.654  0.00  0.00    +0.004 C 
ATOM     25  C   LIG    1        1.259  -6.377   0.613  0.00  0.00    +0.004 C 
ATOM     26  C   LIG    1        0.640  -5.555  -0.537  0.00  0.00    +0.044 C 
ENDBRANCH  21  22
ENDBRANCH   6  21
TORSDOF 7
