REMARK  Name = ZINC20347397
REMARK                            x       y       z     vdW  Elec       q    Type
REMARK                         _______ _______ _______ _____ _____    ______ ____
ROOT
ATOM      1  N   LIG    1        1.359   2.034   0.000  0.00  0.00    -0.303 NA
ATOM      2  C   LIG    1        2.057   1.690   1.247  0.00  0.00    +0.066 C 
ATOM      3  C   LIG    1        3.509   2.167   1.164  0.00  0.00    -0.063 C 
ATOM      4  N   LIG    1        3.533   3.618   0.933  0.00  0.00    +0.382 N 
ATOM      5  H   LIG    1        3.002   4.103   1.765  0.00  0.00    -0.082 HD
ATOM      6  C   LIG    1        2.836   3.962  -0.314  0.00  0.00    -0.063 C 
ATOM      7  C   LIG    1        1.384   3.485  -0.231  0.00  0.00    +0.066 C 
ENDROOT
BRANCH   1   8
ATOM      8  C   LIG    1       -0.019   1.526   0.010  0.00  0.00    +0.119 C 
BRANCH   8   9
ATOM      9  C   LIG    1        0.002  -0.004   0.002  0.00  0.00    +0.166 C 
BRANCH   9  10
ATOM     10  O   LIG    1        0.671  -0.465  -1.174  0.00  0.00    -0.387 OA
ATOM     11  H   LIG    1        1.719  -0.184  -1.356  0.00  0.00    +0.210 HD
ENDBRANCH   9  10
BRANCH   9  12
ATOM     12  C   LIG    1       -1.433  -0.534   0.013  0.00  0.00    +0.261 C 
BRANCH  12  13
ATOM     13  O   LIG    1       -1.415  -1.958   0.122  0.00  0.00    -0.489 OA
BRANCH  13  19
ATOM     14  C   LIG    1       -2.673  -3.973   0.251  0.00  0.00    -0.003 A 
ATOM     15  C   LIG    1       -3.897  -4.614   0.275  0.00  0.00    +0.007 A 
ATOM     16  C   LIG    1       -5.065  -3.879   0.194  0.00  0.00    +0.001 A 
ATOM     17  C   LIG    1       -5.012  -2.501   0.090  0.00  0.00    +0.004 A 
ATOM     18  C   LIG    1       -3.791  -1.855   0.071  0.00  0.00    +0.046 A 
ATOM     19  C   LIG    1       -2.617  -2.591   0.146  0.00  0.00    +0.124 A 
BRANCH  14  21
ATOM     20  C   LIG    1       -1.381  -5.559   1.653  0.00  0.00    +0.012 C 
ATOM     21  C   LIG    1       -1.400  -4.775   0.339  0.00  0.00    +0.016 C 
ATOM     22  C   LIG    1       -1.328  -5.750  -0.838  0.00  0.00    +0.012 C 
ENDBRANCH  14  21
ENDBRANCH  13  19
ENDBRANCH  12  13
ENDBRANCH   9  12
ENDBRANCH   8   9
ENDBRANCH   1   8
BRANCH   4  23
ATOM     23  C   LIG    1        4.912   4.127   0.923  0.00  0.00    -0.057 C 
BRANCH  23  24
ATOM     24  C   LIG    1        5.522   3.973   2.317  0.00  0.00    +0.110 C 
BRANCH  24  25
ATOM     25  N   LIG    1        6.897   4.480   2.307  0.00  0.00    -0.277 N 
ATOM     26  C   LIG    1        7.900   3.629   2.016  0.00  0.00    +0.262 A 
ATOM     27  C   LIG    1        9.292   4.102   1.992  0.00  0.00    +0.048 A 
ATOM     28  C   LIG    1       10.354   3.262   1.694  0.00  0.00    +0.014 A 
ATOM     29  C   LIG    1       11.654   3.755   1.688  0.00  0.00    +0.001 A 
ATOM     30  C   LIG    1       11.924   5.063   1.971  0.00  0.00    +0.008 A 
ATOM     31  C   LIG    1       10.876   5.947   2.277  0.00  0.00    -0.016 A 
ATOM     32  C   LIG    1       11.102   7.302   2.576  0.00  0.00    +0.008 A 
ATOM     33  C   LIG    1       10.051   8.123   2.869  0.00  0.00    +0.001 A 
ATOM     34  C   LIG    1        8.743   7.654   2.882  0.00  0.00    +0.014 A 
ATOM     35  C   LIG    1        8.476   6.324   2.593  0.00  0.00    +0.048 A 
ATOM     36  C   LIG    1        9.552   5.459   2.287  0.00  0.00    +0.007 A 
ATOM     37  O   LIG    1        7.652   2.464   1.770  0.00  0.00    -0.267 OA
ATOM     38  C   LIG    1        7.111   5.778   2.593  0.00  0.00    +0.262 A 
ATOM     39  O   LIG    1        6.170   6.503   2.853  0.00  0.00    -0.267 OA
ENDBRANCH  24  25
ENDBRANCH  23  24
ENDBRANCH   4  23
TORSDOF 10
