REMARK  Name = ZINC13811893
REMARK                            x       y       z     vdW  Elec       q    Type
REMARK                         _______ _______ _______ _____ _____    ______ ____
ROOT
ATOM      1  N   LIG    1        1.359   2.152  -0.080  0.00  0.00    -0.297 N 
ATOM      2  H   LIG    1        2.111   1.625  -0.392  0.00  0.00    +0.154 HD
ENDROOT
BRANCH   1   7
ATOM      3  C   LIG    1        2.247   7.217   2.315  0.00  0.00    +0.046 C 
ATOM      4  C   LIG    1        2.011   5.871   1.679  0.00  0.00    -0.020 A 
ATOM      5  C   LIG    1        1.006   5.718   0.742  0.00  0.00    +0.007 A 
ATOM      6  C   LIG    1        0.791   4.487   0.153  0.00  0.00    +0.023 A 
ATOM      7  C   LIG    1        1.578   3.401   0.511  0.00  0.00    +0.035 A 
ATOM      8  C   LIG    1        2.587   3.558   1.452  0.00  0.00    +0.056 A 
ATOM      9  C   LIG    1        2.800   4.793   2.034  0.00  0.00    +0.126 A 
BRANCH   9  10
ATOM     10  N   LIG    1        3.875   4.961   3.037  0.00  0.00    +0.006 N 
ATOM     11  O   LIG    1        4.535   4.000   3.390  0.00  0.00    -0.130 OA
BRANCH  10  12
ATOM     12  O   LIG    1        4.100   6.061   3.510  0.00  0.00    -0.396 OA
ATOM     13  H   LIG    1        3.592   6.801   3.238  0.00  0.00    +0.329 HD
ENDBRANCH  10  12
ENDBRANCH   9  10
ENDBRANCH   1   7
BRANCH   1  14
ATOM     14  C   LIG    1        0.104   1.681  -0.215  0.00  0.00    +0.139 C 
ATOM     15  S   LIG    1       -1.229   2.655   0.237  0.00  0.00    -0.018 S 
BRANCH  14  16
ATOM     16  N   LIG    1       -0.103   0.445  -0.711  0.00  0.00    -0.297 N 
ATOM     17  H   LIG    1        0.647  -0.079  -1.035  0.00  0.00    +0.154 HD
BRANCH  16  18
ATOM     18  C   LIG    1       -1.397  -0.083  -0.759  0.00  0.00    +0.034 A 
ATOM     19  C   LIG    1       -2.277   0.135   0.294  0.00  0.00    +0.023 A 
ATOM     20  C   LIG    1       -3.556  -0.381   0.242  0.00  0.00    +0.006 A 
ATOM     21  C   LIG    1       -3.959  -1.125  -0.852  0.00  0.00    -0.032 A 
ATOM     22  C   LIG    1       -5.354  -1.693  -0.902  0.00  0.00    +0.045 C 
ATOM     23  C   LIG    1       -3.084  -1.350  -1.900  0.00  0.00    +0.046 A 
ATOM     24 CL   LIG    1       -3.595  -2.284  -3.271  0.00  0.00    -0.083 Cl
ATOM     25  C   LIG    1       -1.804  -0.830  -1.856  0.00  0.00    +0.043 A 
ENDBRANCH  16  18
ENDBRANCH  14  16
ENDBRANCH   1  14
TORSDOF 6
