REMARK  Name = ZINC19434530
REMARK                            x       y       z     vdW  Elec       q    Type
REMARK                         _______ _______ _______ _____ _____    ______ ____
ROOT
ATOM      1  C   LIG    1       -0.699   1.535   3.679  0.00  0.00    +0.016 C 
ENDROOT
BRANCH   1   2
ATOM      2  C   LIG    1       -0.010   0.905   4.863  0.00  0.00    +0.201 C 
ATOM      3  N   LIG    1        0.437   1.678   5.872  0.00  0.00    -0.303 N 
ATOM      4  C   LIG    1        0.411   3.148   5.902  0.00  0.00    +0.108 C 
ATOM      5  C   LIG    1        1.045   3.590   7.237  0.00  0.00    +0.020 C 
ATOM      6  C   LIG    1        1.913   2.365   7.630  0.00  0.00    +0.020 C 
ATOM      7  C   LIG    1        1.038   1.190   7.127  0.00  0.00    +0.108 C 
ATOM      8  O   LIG    1        0.142  -0.298   4.907  0.00  0.00    -0.277 OA
ENDBRANCH   1   2
BRANCH   1   9
ATOM      9  N   LIG    1       -1.828   0.692   3.264  0.00  0.00    +0.386 N 
ATOM     10  H   LIG    1       -2.330   1.152   2.400  0.00  0.00    -0.089 HD
ATOM     11  H   LIG    1       -1.458  -0.306   2.985  0.00  0.00    -0.089 HD
ATOM     12  H   LIG    1       -2.541   0.600   4.097  0.00  0.00    -0.089 HD
ENDBRANCH   1   9
BRANCH   1  13
ATOM     13  C   LIG    1        0.294   1.664   2.522  0.00  0.00    -0.020 C 
ATOM     14  C   LIG    1        1.442   2.586   2.934  0.00  0.00    +0.006 C 
BRANCH  13  16
ATOM     15  C   LIG    1        0.538   2.264   0.109  0.00  0.00    +0.004 C 
ATOM     16  C   LIG    1       -0.419   2.251   1.302  0.00  0.00    -0.001 C 
ENDBRANCH  13  16
ENDBRANCH   1  13
TORSDOF 4
