REMARK  Name = ZINC45506740
REMARK                            x       y       z     vdW  Elec       q    Type
REMARK                         _______ _______ _______ _____ _____    ______ ____
ROOT
ATOM      1  C   LIG    1        1.248  -2.358  -2.578  0.00  0.00    +0.061 C 
ATOM      2  C   LIG    1        1.603  -3.654  -2.567  0.00  0.00    +0.013 C 
ATOM      3  C   LIG    1        1.116  -4.543  -1.452  0.00  0.00    +0.061 C 
ATOM      4  N   LIG    1        2.396  -4.181  -3.545  0.00  0.00    -0.331 N 
ATOM      5  H   LIG    1        2.850  -5.025  -3.397  0.00  0.00    +0.147 HD
ATOM      6  C   LIG    1        2.555  -3.509  -4.755  0.00  0.00    +0.144 C 
ATOM      7  C   LIG    1        2.223  -2.166  -4.845  0.00  0.00    +0.053 C 
ATOM      8  C   LIG    1        2.382  -1.517  -6.063  0.00  0.00    +0.062 C 
ATOM      9  C   LIG    1        2.877  -2.242  -7.156  0.00  0.00    +0.023 C 
ATOM     10  C   LIG    1        3.192  -3.567  -6.991  0.00  0.00    +0.060 C 
ATOM     11  C   LIG    1        3.747  -4.409  -8.112  0.00  0.00    +0.019 C 
ATOM     12  C   LIG    1        3.478  -3.750  -9.463  0.00  0.00    +0.002 C 
ATOM     13  C   LIG    1        3.964  -2.297  -9.399  0.00  0.00    +0.000 C 
ATOM     14  C   LIG    1        3.034  -1.521  -8.467  0.00  0.00    +0.006 C 
ATOM     15  N   LIG    1        3.021  -4.154  -5.812  0.00  0.00    -0.295 NA
ATOM     16  H   LIG    1        3.247  -5.093  -5.722  0.00  0.00    +0.124 HD
ATOM     17  C   LIG    1        1.700  -1.416  -3.655  0.00  0.00    +0.065 C 
ENDROOT
BRANCH  17  18
ATOM     18  C   LIG    1        2.794  -0.533  -3.113  0.00  0.00    -0.036 A 
ATOM     19  C   LIG    1        3.967  -1.097  -2.647  0.00  0.00    +0.008 A 
ATOM     20  C   LIG    1        4.974  -0.292  -2.149  0.00  0.00    +0.050 A 
ATOM     21  C   LIG    1        4.809   1.084  -2.116  0.00  0.00    +0.162 A 
ATOM     22  C   LIG    1        3.628   1.651  -2.585  0.00  0.00    +0.162 A 
ATOM     23  C   LIG    1        2.625   0.838  -3.088  0.00  0.00    +0.053 A 
BRANCH  21  24
ATOM     24  O   LIG    1        5.799   1.878  -1.626  0.00  0.00    -0.491 OA
ATOM     25  C   LIG    1        6.982   1.226  -1.161  0.00  0.00    +0.277 C 
ENDBRANCH  21  24
BRANCH  22  26
ATOM     26  O   LIG    1        3.462   3.000  -2.555  0.00  0.00    -0.491 OA
ATOM     27  C   LIG    1        2.224   3.512  -3.054  0.00  0.00    +0.277 C 
ENDBRANCH  22  26
ENDBRANCH  17  18
BRANCH   8  28
ATOM     28  N   LIG    1        2.055  -0.170  -6.196  0.00  0.00    -0.327 NA
ATOM     29  H   LIG    1        2.170   0.274  -7.051  0.00  0.00    +0.118 HD
ATOM     30  H   LIG    1        1.713   0.323  -5.434  0.00  0.00    +0.118 HD
ENDBRANCH   8  28
BRANCH   1  31
ATOM     31  C   LIG    1        0.417  -1.869  -1.546  0.00  0.00    +0.337 C 
ATOM     32  O   LIG    1       -0.778  -1.737  -1.737  0.00  0.00    -0.245 OA
BRANCH  31  33
ATOM     33  O   LIG    1        0.949  -1.547  -0.348  0.00  0.00    -0.462 OA
BRANCH  33  35
ATOM     34  C   LIG    1        0.829  -0.748   1.930  0.00  0.00    +0.048 C 
ATOM     35  C   LIG    1        0.050  -1.057   0.650  0.00  0.00    +0.229 C 
ENDBRANCH  33  35
ENDBRANCH  31  33
ENDBRANCH   1  31
TORSDOF 7
