REMARK  Name = ZINC29487406
REMARK                            x       y       z     vdW  Elec       q    Type
REMARK                         _______ _______ _______ _____ _____    ______ ____
ROOT
ATOM      1  C   LIG    1       -0.337   0.586  -3.526  0.00  0.00    +0.108 A 
ATOM      2  C   LIG    1       -1.405   1.441  -3.329  0.00  0.00    +0.030 A 
ATOM      3  C   LIG    1       -1.523   2.587  -4.093  0.00  0.00    +0.024 A 
ATOM      4  C   LIG    1       -0.572   2.878  -5.054  0.00  0.00    +0.071 A 
ATOM      5 CL   LIG    1       -0.719   4.317  -6.014  0.00  0.00    -0.081 Cl
ATOM      6  C   LIG    1        0.497   2.022  -5.250  0.00  0.00    +0.142 A 
ATOM      7  C   LIG    1        0.617   0.879  -4.482  0.00  0.00    +0.062 A 
ENDROOT
BRANCH   1   8
ATOM      8  S   LIG    1       -0.188  -0.875  -2.551  0.00  0.00    +0.061 S 
ATOM      9  O   LIG    1       -1.496  -1.201  -2.104  0.00  0.00    -0.153 OA
ATOM     10  O   LIG    1        0.610  -1.782  -3.300  0.00  0.00    -0.153 OA
BRANCH   8  11
ATOM     11  N   LIG    1        0.688  -0.476  -1.203  0.00  0.00    -0.180 NA
ATOM     12  C   LIG    1        2.148  -0.597  -1.216  0.00  0.00    +0.131 C 
BRANCH  11  14
ATOM     13  C   LIG    1       -0.019   1.526   0.010  0.00  0.00    +0.022 C 
ATOM     14  C   LIG    1        0.002  -0.004   0.002  0.00  0.00    +0.106 C 
ENDBRANCH  11  14
ENDBRANCH   8  11
ENDBRANCH   1   8
BRANCH   6  15
ATOM     15  N   LIG    1        1.515   2.333  -6.279  0.00  0.00    +0.007 N 
ATOM     16  O   LIG    1        2.449   1.584  -6.450  0.00  0.00    -0.130 OA
BRANCH  15  17
ATOM     17  O   LIG    1        1.413   3.335  -6.947  0.00  0.00    -0.396 OA
ATOM     18  H   LIG    1        0.689   3.915  -6.814  0.00  0.00    +0.329 HD
ENDBRANCH  15  17
ENDBRANCH   6  15
TORSDOF 5
