REMARK  Name = ZINC38315919
REMARK                            x       y       z     vdW  Elec       q    Type
REMARK                         _______ _______ _______ _____ _____    ______ ____
ROOT
ATOM      1  C   LIG    1       -0.016   1.357   0.009  0.00  0.00    +0.001 A 
ATOM      2  C   LIG    1        1.169   2.091   0.002  0.00  0.00    +0.001 A 
ATOM      3  C   LIG    1        2.378   1.468  -0.013  0.00  0.00    +0.008 A 
ATOM      4  C   LIG    1        2.438   0.063  -0.021  0.00  0.00    -0.018 A 
ATOM      5  C   LIG    1        3.668  -0.615  -0.036  0.00  0.00    +0.013 A 
ATOM      6  C   LIG    1        3.687  -1.976  -0.043  0.00  0.00    -0.033 A 
ATOM      7  C   LIG    1        2.502  -2.710  -0.036  0.00  0.00    +0.005 A 
ATOM      8  C   LIG    1        1.292  -2.087  -0.021  0.00  0.00    +0.009 A 
ATOM      9  C   LIG    1        1.233  -0.683  -0.013  0.00  0.00    -0.018 A 
ATOM     10  C   LIG    1        0.002  -0.004   0.002  0.00  0.00    +0.008 A 
ENDROOT
BRANCH   6  11
ATOM     11  C   LIG    1        5.008  -2.700  -0.060  0.00  0.00    +0.116 C 
BRANCH  11  12
ATOM     12  N   LIG    1        5.451  -2.943   1.319  0.00  0.00    -0.314 NA
ATOM     13  H   LIG    1        5.503  -2.080   1.839  0.00  0.00    +0.122 HD
BRANCH  12  14
ATOM     14  C   LIG    1        6.739  -3.649   1.342  0.00  0.00    +0.062 C 
BRANCH  14  15
ATOM     15  C   LIG    1        7.167  -3.883   2.792  0.00  0.00    -0.071 C 
BRANCH  15  16
ATOM     16  N   LIG    1        8.455  -4.589   2.815  0.00  0.00    +0.379 N 
ATOM     17  H   LIG    1        9.152  -4.032   2.344  0.00  0.00    -0.090 HD
ATOM     18  H   LIG    1        8.360  -5.476   2.345  0.00  0.00    -0.090 HD
ATOM     19  H   LIG    1        8.737  -4.743   3.771  0.00  0.00    -0.090 HD
ENDBRANCH  15  16
ENDBRANCH  14  15
ENDBRANCH  12  14
ENDBRANCH  11  12
ENDBRANCH   6  11
TORSDOF 5
