REMARK  Name = ZINC26817456
REMARK                            x       y       z     vdW  Elec       q    Type
REMARK                         _______ _______ _______ _____ _____    ______ ____
ROOT
ATOM      1  C   LIG    1       -0.800   1.987  -1.118  0.00  0.00    +0.141 C 
ENDROOT
BRANCH   1   6
ATOM      2  C   LIG    1       -1.851   5.353  -0.298  0.00  0.00    +0.138 A 
ATOM      3  N   LIG    1       -0.766   5.638  -1.076  0.00  0.00    -0.344 N 
ATOM      4  H   LIG    1       -0.300   6.581  -1.397  0.00  0.00    +0.167 HD
ATOM      5  C   LIG    1       -0.236   4.441  -1.476  0.00  0.00    +0.109 A 
ATOM      6  C   LIG    1       -1.005   3.470  -0.944  0.00  0.00    +0.073 A 
ATOM      7  N   LIG    1       -1.980   4.047  -0.232  0.00  0.00    -0.231 NA
BRANCH   2  11
ATOM      8  C   LIG    1       -4.376   8.202   1.586  0.00  0.00    +0.000 A 
ATOM      9  C   LIG    1       -4.625   6.851   1.744  0.00  0.00    +0.001 A 
ATOM     10  C   LIG    1       -3.808   5.920   1.135  0.00  0.00    +0.011 A 
ATOM     11  C   LIG    1       -2.730   6.345   0.358  0.00  0.00    +0.017 A 
ATOM     12  C   LIG    1       -2.482   7.710   0.207  0.00  0.00    +0.011 A 
ATOM     13  C   LIG    1       -3.309   8.630   0.817  0.00  0.00    +0.001 A 
ENDBRANCH   2  11
ENDBRANCH   1   6
BRANCH   1  14
ATOM     14  N   LIG    1       -0.018   1.465   0.010  0.00  0.00    -0.294 NA
ATOM     15  C   LIG    1        1.348   2.008   0.000  0.00  0.00    +0.104 C 
ATOM     16  C   LIG    1        2.103   1.504   1.232  0.00  0.00    +0.123 C 
ATOM     17  N   LIG    1        2.123   0.034   1.224  0.00  0.00    -0.297 N 
ATOM     18  C   LIG    1        0.757  -0.508   1.234  0.00  0.00    +0.123 C 
ATOM     19  C   LIG    1        0.002  -0.004   0.002  0.00  0.00    +0.104 C 
BRANCH  17  20
ATOM     20  C   LIG    1        2.860  -0.458   2.287  0.00  0.00    +0.218 A 
ATOM     21  N   LIG    1        2.288  -1.298   3.137  0.00  0.00    -0.223 NA
ATOM     22  C   LIG    1        2.966  -1.791   4.160  0.00  0.00    +0.116 A 
ATOM     23  C   LIG    1        4.286  -1.409   4.344  0.00  0.00    +0.039 A 
ATOM     24  C   LIG    1        4.851  -0.524   3.440  0.00  0.00    +0.116 A 
ATOM     25  N   LIG    1        4.119  -0.072   2.434  0.00  0.00    -0.223 NA
ENDBRANCH  17  20
ENDBRANCH   1  14
TORSDOF 4
