REMARK  Name = ZINC40379749
REMARK                            x       y       z     vdW  Elec       q    Type
REMARK                         _______ _______ _______ _____ _____    ______ ____
ROOT
ATOM      1  C   LIG    1        0.093   0.823   1.045  0.00  0.00    +0.001 A 
ATOM      2  C   LIG    1        1.041   1.561   0.412  0.00  0.00    +0.012 A 
ATOM      3  C   LIG    1        2.331   1.029   0.235  0.00  0.00    +0.028 A 
ATOM      4  C   LIG    1        2.619  -0.320   0.741  0.00  0.00    +0.105 A 
ATOM      5  N   LIG    1        3.881  -0.580   0.451  0.00  0.00    -0.170 NA
ATOM      6  N   LIG    1        4.438   0.517  -0.215  0.00  0.00    -0.258 N 
ATOM      7  C   LIG    1        1.585  -1.031   1.389  0.00  0.00    +0.082 A 
ATOM      8  C   LIG    1        3.513   1.490  -0.350  0.00  0.00    +0.077 A 
ATOM      9  C   LIG    1        0.363  -0.459   1.527  0.00  0.00    +0.014 A 
ENDROOT
BRANCH   8  10
ATOM     10  C   LIG    1        3.713   2.801  -0.997  0.00  0.00    +0.001 A 
ATOM     11  C   LIG    1        2.875   3.203  -2.039  0.00  0.00    +0.013 A 
ATOM     12  C   LIG    1        3.067   4.429  -2.640  0.00  0.00    +0.039 A 
ATOM     13  C   LIG    1        4.089   5.262  -2.212  0.00  0.00    +0.123 A 
ATOM     14  F   LIG    1        4.273   6.462  -2.804  0.00  0.00    -0.205 F 
ATOM     15  C   LIG    1        4.924   4.868  -1.178  0.00  0.00    +0.039 A 
ATOM     16  C   LIG    1        4.738   3.647  -0.565  0.00  0.00    +0.013 A 
ENDBRANCH   8  10
BRANCH   7  17
ATOM     17  C   LIG    1        1.839  -2.417   1.923  0.00  0.00    +0.419 C 
ATOM     18  F   LIG    1        2.862  -2.370   2.876  0.00  0.00    -0.166 F 
ATOM     19  F   LIG    1        2.218  -3.260   0.873  0.00  0.00    -0.166 F 
ATOM     20  F   LIG    1        0.671  -2.909   2.517  0.00  0.00    -0.166 F 
ENDBRANCH   7  17
BRANCH   6  21
ATOM     21  C   LIG    1        5.820   0.598  -0.695  0.00  0.00    +0.180 C 
BRANCH  21  22
ATOM     22  C   LIG    1        5.933  -0.104  -2.023  0.00  0.00    -0.008 A 
ATOM     23  C   LIG    1        6.054  -1.481  -2.069  0.00  0.00    +0.010 A 
ATOM     24  C   LIG    1        6.157  -2.126  -3.287  0.00  0.00    +0.039 A 
ATOM     25  C   LIG    1        6.139  -1.394  -4.462  0.00  0.00    +0.125 A 
ATOM     26  F   LIG    1        6.241  -2.024  -5.653  0.00  0.00    -0.205 F 
ATOM     27  C   LIG    1        6.018  -0.016  -4.416  0.00  0.00    +0.058 A 
ATOM     28  C   LIG    1        5.909   0.628  -3.197  0.00  0.00    +0.049 A 
ATOM     29 CL   LIG    1        5.750   2.356  -3.138  0.00  0.00    -0.083 Cl
ENDBRANCH  21  22
ENDBRANCH   6  21
TORSDOF 4
