REMARK  Name = ZINC19842127
REMARK                            x       y       z     vdW  Elec       q    Type
REMARK                         _______ _______ _______ _____ _____    ______ ____
ROOT
ATOM      1  N   LIG    1       -0.018   1.465   0.010  0.00  0.00    -0.302 NA
ATOM      2  C   LIG    1       -0.799   1.987  -1.120  0.00  0.00    +0.066 C 
ATOM      3  C   LIG    1       -0.862   3.514  -1.031  0.00  0.00    -0.063 C 
ATOM      4  N   LIG    1        0.503   4.059  -1.041  0.00  0.00    +0.381 N 
ATOM      5  H   LIG    1        0.992   3.734  -1.971  0.00  0.00    -0.082 HD
ATOM      6  C   LIG    1        1.284   3.537   0.089  0.00  0.00    -0.063 C 
ATOM      7  C   LIG    1        1.347   2.010   0.000  0.00  0.00    +0.066 C 
ENDROOT
BRANCH   1   8
ATOM      8  C   LIG    1        0.002  -0.004   0.002  0.00  0.00    +0.119 C 
BRANCH   8  13
ATOM      9  C   LIG    1       -3.522  -1.244  -0.562  0.00  0.00    +0.120 A 
ATOM     10  C   LIG    1       -3.939  -1.488   0.739  0.00  0.00    +0.045 A 
ATOM     11  C   LIG    1       -3.080  -1.250   1.794  0.00  0.00    +0.004 A 
ATOM     12  C   LIG    1       -1.804  -0.775   1.554  0.00  0.00    +0.005 A 
ATOM     13  C   LIG    1       -1.388  -0.527   0.259  0.00  0.00    -0.030 A 
ATOM     14  C   LIG    1       -2.244  -0.763  -0.800  0.00  0.00    +0.050 A 
BRANCH   9  16
ATOM     15  C   LIG    1       -5.668  -1.973  -1.283  0.00  0.00    +0.277 C 
ATOM     16  O   LIG    1       -4.366  -1.477  -1.602  0.00  0.00    -0.495 OA
ENDBRANCH   9  16
ENDBRANCH   8  13
ENDBRANCH   1   8
BRANCH   4  17
ATOM     17  C   LIG    1        0.483   5.528  -1.033  0.00  0.00    -0.078 C 
BRANCH  17  18
ATOM     18  C   LIG    1       -0.119   6.037  -2.344  0.00  0.00    -0.014 C 
BRANCH  18  19
ATOM     19  C   LIG    1       -0.139   7.567  -2.336  0.00  0.00    +0.033 C 
BRANCH  19  20
ATOM     20  C   LIG    1       -0.732   8.068  -3.627  0.00  0.00    -0.047 A 
ATOM     21  C   LIG    1        0.088   8.321  -4.712  0.00  0.00    +0.003 A 
ATOM     22  C   LIG    1       -0.456   8.777  -5.898  0.00  0.00    +0.000 A 
ATOM     23  C   LIG    1       -1.819   8.989  -5.997  0.00  0.00    +0.000 A 
ATOM     24  C   LIG    1       -2.638   8.741  -4.911  0.00  0.00    +0.000 A 
ATOM     25  C   LIG    1       -2.094   8.281  -3.726  0.00  0.00    +0.003 A 
ENDBRANCH  19  20
ENDBRANCH  18  19
ENDBRANCH  17  18
ENDBRANCH   4  17
TORSDOF 7
