REMARK  Name = ZINC18118278
REMARK                            x       y       z     vdW  Elec       q    Type
REMARK                         _______ _______ _______ _____ _____    ______ ____
ROOT
ATOM      1  C   LIG    1        0.038   1.261   0.515  0.00  0.00    +0.062 A 
ATOM      2  C   LIG    1        0.876   2.018  -0.296  0.00  0.00    +0.068 A 
ATOM      3  C   LIG    1        2.039   1.447  -0.815  0.00  0.00    +0.068 A 
ATOM      4  N   LIG    1        2.890   2.189  -1.629  0.00  0.00    -0.316 N 
ATOM      5  H   LIG    1        3.696   1.783  -1.984  0.00  0.00    +0.169 HD
ATOM      6  C   LIG    1        2.596   3.471  -1.925  0.00  0.00    +0.314 A 
ATOM      7  O   LIG    1        3.335   4.122  -2.635  0.00  0.00    -0.262 OA
ATOM      8  C   LIG    1        1.353   4.081  -1.371  0.00  0.00    +0.314 A 
ATOM      9  O   LIG    1        1.070   5.235  -1.626  0.00  0.00    -0.262 OA
ATOM     10  C   LIG    1        2.351   0.125  -0.515  0.00  0.00    +0.062 A 
ATOM     11  C   LIG    1        1.512  -0.616   0.292  0.00  0.00    +0.154 A 
ATOM     12  N   LIG    1        0.546   3.340  -0.585  0.00  0.00    -0.316 N 
ATOM     13  H   LIG    1       -0.265   3.727  -0.221  0.00  0.00    +0.169 HD
ATOM     14  C   LIG    1        0.358  -0.049   0.806  0.00  0.00    +0.154 A 
ENDROOT
BRANCH  11  15
ATOM     15  N   LIG    1        1.848  -2.022   0.609  0.00  0.00    +0.008 N 
ATOM     16  O   LIG    1        2.997  -2.340   0.809  0.00  0.00    -0.130 OA
BRANCH  15  17
ATOM     17  O   LIG    1        0.972  -2.854   0.668  0.00  0.00    -0.396 OA
ATOM     18  H   LIG    1        0.081  -2.608   0.513  0.00  0.00    +0.329 HD
ENDBRANCH  15  17
ENDBRANCH  11  15
BRANCH  14  19
ATOM     19  N   LIG    1       -0.536  -0.852   1.671  0.00  0.00    +0.008 N 
ATOM     20  O   LIG    1       -1.735  -0.732   1.577  0.00  0.00    -0.130 OA
BRANCH  19  21
ATOM     21  O   LIG    1       -0.066  -1.627   2.471  0.00  0.00    -0.396 OA
ATOM     22  H   LIG    1        0.863  -1.720   2.544  0.00  0.00    +0.329 HD
ENDBRANCH  19  21
ENDBRANCH  14  19
TORSDOF 4
