REMARK  Name = ZINC28378768
REMARK                            x       y       z     vdW  Elec       q    Type
REMARK                         _______ _______ _______ _____ _____    ______ ____
ROOT
ATOM      1  C   LIG    1        0.011   1.072   2.506  0.00  0.00    +0.044 C 
ATOM      2  C   LIG    1       -0.155  -0.458   2.668  0.00  0.00    +0.131 C 
ATOM      3  C   LIG    1       -1.338  -0.598   3.600  0.00  0.00    +0.237 C 
ATOM      4  N   LIG    1       -1.589   0.515   4.197  0.00  0.00    -0.277 N 
ATOM      5  H   LIG    1       -2.424   0.581   4.910  0.00  0.00    +0.304 HD
ATOM      6  C   LIG    1       -0.660   1.582   3.803  0.00  0.00    +0.173 C 
ATOM      7  C   LIG    1       -1.424   2.879   3.531  0.00  0.00    +0.057 C 
ENDROOT
BRANCH   3   8
ATOM      8  N   LIG    1       -2.049  -1.754   3.785  0.00  0.00    -0.254 N 
ATOM      9  H   LIG    1       -1.769  -2.665   3.235  0.00  0.00    +0.288 HD
ATOM     10  H   LIG    1       -2.898  -1.773   4.483  0.00  0.00    +0.288 HD
ENDBRANCH   3   8
BRANCH   1  12
ATOM     11  C   LIG    1       -0.013   1.086   0.008  0.00  0.00    +0.004 C 
ATOM     12  C   LIG    1       -0.729   1.579   1.267  0.00  0.00    +0.005 C 
ENDBRANCH   1  12
TORSDOF 2
