REMARK  Name = ZINC33963476
REMARK                            x       y       z     vdW  Elec       q    Type
REMARK                         _______ _______ _______ _____ _____    ______ ____
ROOT
ATOM      1  C   LIG    1        2.551  -7.153  -4.378  0.00  0.00    +0.047 C 
ATOM      2  C   LIG    1        2.447  -8.489  -4.170  0.00  0.00    +0.011 C 
ENDROOT
BRANCH   2   3
ATOM      3  C   LIG    1        3.008  -9.430  -5.146  0.00  0.00    -0.021 A 
ATOM      4  C   LIG    1        3.657  -8.950  -6.291  0.00  0.00    +0.012 A 
ATOM      5  C   LIG    1        4.183  -9.835  -7.205  0.00  0.00    +0.050 A 
ATOM      6  C   LIG    1        4.072 -11.204  -6.996  0.00  0.00    +0.158 A 
ATOM      7  C   LIG    1        3.428 -11.690  -5.858  0.00  0.00    +0.162 A 
ATOM      8  C   LIG    1        2.902 -10.810  -4.933  0.00  0.00    +0.057 A 
BRANCH   6   9
ATOM      9  O   LIG    1        4.593 -12.072  -7.901  0.00  0.00    -0.503 OA
ATOM     10  H   LIG    1        5.511 -12.318  -7.727  0.00  0.00    +0.292 HD
ENDBRANCH   6   9
BRANCH   7  11
ATOM     11  O   LIG    1        3.321 -13.031  -5.658  0.00  0.00    -0.491 OA
ATOM     12  C   LIG    1        2.649 -13.458  -4.472  0.00  0.00    +0.277 C 
ENDBRANCH   7  11
ENDBRANCH   2   3
BRANCH   1  13
ATOM     13  C   LIG    1        2.012  -6.251  -3.441  0.00  0.00    +0.163 C 
ATOM     14  O   LIG    1        1.454  -6.669  -2.446  0.00  0.00    -0.292 OA
BRANCH  13  15
ATOM     15  C   LIG    1        2.127  -4.766  -3.673  0.00  0.00    +0.153 C 
BRANCH  15  16
ATOM     16  C   LIG    1        1.476  -4.028  -2.532  0.00  0.00    +0.141 C 
ATOM     17  O   LIG    1        0.970  -4.643  -1.625  0.00  0.00    -0.297 OA
BRANCH  16  18
ATOM     18  C   LIG    1        1.455  -2.521  -2.524  0.00  0.00    +0.075 C 
BRANCH  18  19
ATOM     19  C   LIG    1        0.739  -2.027  -1.265  0.00  0.00    +0.007 C 
BRANCH  19  20
ATOM     20  C   LIG    1        0.718  -0.497  -1.257  0.00  0.00    +0.000 C 
BRANCH  20  22
ATOM     21  C   LIG    1       -0.019   1.526   0.010  0.00  0.00    +0.004 C 
ATOM     22  C   LIG    1        0.002  -0.004   0.002  0.00  0.00    -0.003 C 
ENDBRANCH  20  22
ENDBRANCH  19  20
ENDBRANCH  18  19
ENDBRANCH  16  18
ENDBRANCH  15  16
ENDBRANCH  13  15
ENDBRANCH   1  13
TORSDOF 10
