REMARK  Name = ZINC72118775
REMARK                            x       y       z     vdW  Elec       q    Type
REMARK                         _______ _______ _______ _____ _____    ______ ____
ROOT
ATOM      1  C   LIG    1        0.082  -2.778   0.091  0.00  0.00    +0.164 A 
ATOM      2  N   LIG    1       -1.168  -2.343   0.118  0.00  0.00    -0.224 NA
ATOM      3  C   LIG    1       -2.195  -3.174   0.237  0.00  0.00    +0.087 A 
ATOM      4  C   LIG    1       -1.921  -4.521   0.263  0.00  0.00    +0.019 A 
ATOM      5  C   LIG    1       -2.932  -5.602   0.239  0.00  0.00    +0.045 C 
ATOM      6  C   LIG    1       -3.550  -5.892   1.625  0.00  0.00    +0.011 C 
ATOM      7  C   LIG    1       -3.834  -4.544   2.309  0.00  0.00    +0.058 C 
ATOM      8  C   LIG    1       -4.412  -3.519   1.382  0.00  0.00    +0.072 A 
ATOM      9  N   LIG    1       -5.636  -3.088   1.282  0.00  0.00    -0.178 NA
ATOM     10  N   LIG    1       -5.665  -2.049   0.338  0.00  0.00    -0.284 N 
ATOM     11  H   LIG    1       -6.447  -1.535   0.082  0.00  0.00    +0.188 HD
ATOM     12  C   LIG    1       -4.412  -1.888  -0.154  0.00  0.00    +0.115 A 
ATOM     13  C   LIG    1       -3.637  -2.810   0.441  0.00  0.00    +0.042 A 
ATOM     14  S   LIG    1       -0.153  -4.548   0.229  0.00  0.00    -0.056 S 
ENDROOT
BRANCH   1  15
ATOM     15  N   LIG    1        1.260  -2.055  -0.021  0.00  0.00    -0.279 N 
ATOM     16  H   LIG    1        2.108  -2.519  -0.103  0.00  0.00    +0.155 HD
BRANCH  15  21
ATOM     17  C   LIG    1        2.369   1.437  -0.016  0.00  0.00    +0.005 A 
ATOM     18  C   LIG    1        1.126   2.057  -0.007  0.00  0.00    +0.020 A 
ATOM     19  C   LIG    1       -0.016   1.281  -0.004  0.00  0.00    +0.113 A 
ATOM     20  N   LIG    1        0.061  -0.036  -0.009  0.00  0.00    -0.240 NA
ATOM     21  C   LIG    1        1.226  -0.664  -0.017  0.00  0.00    +0.124 A 
ATOM     22  C   LIG    1        2.418   0.055  -0.021  0.00  0.00    +0.044 A 
ENDBRANCH  15  21
ENDBRANCH   1  15
TORSDOF 2
