REMARK  Name = ZINC34325316
REMARK                            x       y       z     vdW  Elec       q    Type
REMARK                         _______ _______ _______ _____ _____    ______ ____
ROOT
ATOM      1  C   LIG    1       -1.273  -1.957  -0.227  0.00  0.00    +0.001 C 
ATOM      2  C   LIG    1       -2.610  -2.611  -0.583  0.00  0.00    -0.072 C 
ATOM      3  N   LIG    1       -2.411  -4.054  -0.769  0.00  0.00    +0.385 N 
ATOM      4  H   LIG    1       -1.709  -4.206  -1.477  0.00  0.00    -0.081 HD
ATOM      5  C   LIG    1       -3.668  -4.683  -1.195  0.00  0.00    -0.073 C 
ATOM      6  C   LIG    1       -3.364  -6.101  -1.681  0.00  0.00    +0.017 C 
ATOM      7  C   LIG    1       -2.542  -6.832  -0.650  0.00  0.00    -0.044 A 
ATOM      8  C   LIG    1       -2.452  -8.213  -0.733  0.00  0.00    +0.053 A 
ATOM      9  C   LIG    1       -1.705  -8.921   0.192  0.00  0.00    +0.162 A 
ATOM     10  C   LIG    1       -1.042  -8.241   1.209  0.00  0.00    +0.162 A 
ATOM     11  C   LIG    1       -1.136  -6.863   1.287  0.00  0.00    +0.051 A 
ATOM     12  C   LIG    1       -1.888  -6.157   0.359  0.00  0.00    -0.054 A 
ATOM     13  C   LIG    1       -1.972  -4.660   0.489  0.00  0.00    -0.035 C 
ATOM     14  C   LIG    1       -0.606  -4.093   0.883  0.00  0.00    +0.021 C 
ATOM     15  C   LIG    1       -0.730  -2.576   1.063  0.00  0.00    +0.115 C 
ENDROOT
BRANCH   9  16
ATOM     16  O   LIG    1       -1.620 -10.276   0.108  0.00  0.00    -0.491 OA
ATOM     17  C   LIG    1       -2.328 -10.905  -0.963  0.00  0.00    +0.277 C 
ENDBRANCH   9  16
BRANCH  10  18
ATOM     18  O   LIG    1       -0.304  -8.928   2.121  0.00  0.00    -0.491 OA
ATOM     19  C   LIG    1        0.349  -8.162   3.136  0.00  0.00    +0.277 C 
ENDBRANCH  10  18
BRANCH  15  20
ATOM     20  O   LIG    1        0.556  -2.024   1.354  0.00  0.00    -0.392 OA
ATOM     21  H   LIG    1        0.927  -2.313   2.199  0.00  0.00    +0.210 HD
ENDBRANCH  15  20
BRANCH   1  22
ATOM     22  C   LIG    1       -1.478  -0.454  -0.024  0.00  0.00    +0.007 C 
BRANCH  22  24
ATOM     23  C   LIG    1       -2.221   1.663  -1.123  0.00  0.00    +0.007 C 
ATOM     24  C   LIG    1       -1.880   0.189  -1.353  0.00  0.00    -0.017 C 
ATOM     25  C   LIG    1       -0.718   0.084  -2.343  0.00  0.00    +0.007 C 
ENDBRANCH  22  24
ENDBRANCH   1  22
TORSDOF 5
