REMARK  Name = ZINC25973757
REMARK                            x       y       z     vdW  Elec       q    Type
REMARK                         _______ _______ _______ _____ _____    ______ ____
ROOT
ATOM      1  C   LIG    1        3.703  -0.671   0.069  0.00  0.00    +0.323 C 
ATOM      2  N   LIG    1        3.909  -1.866  -0.358  0.00  0.00    -0.040 NA
ATOM      3  C   LIG    1        3.108  -2.617  -1.164  0.00  0.00    +0.197 A 
ATOM      4  C   LIG    1        3.696  -3.432  -2.135  0.00  0.00    +0.057 A 
ATOM      5  C   LIG    1        2.915  -4.274  -2.902  0.00  0.00    +0.004 A 
ATOM      6  C   LIG    1        1.546  -4.314  -2.716  0.00  0.00    +0.002 A 
ATOM      7  C   LIG    1        0.948  -3.498  -1.771  0.00  0.00    +0.027 A 
ATOM      8  C   LIG    1        1.718  -2.638  -1.006  0.00  0.00    +0.083 A 
ATOM      9  N   LIG    1        1.090  -1.789  -0.082  0.00  0.00    -0.310 N 
ATOM     10  H   LIG    1        0.493  -2.215   0.739  0.00  0.00    +0.152 HD
ATOM     11  C   LIG    1        1.242  -0.409  -0.231  0.00  0.00    +0.047 A 
ATOM     12  C   LIG    1        0.132   0.394  -0.438  0.00  0.00    +0.025 A 
ATOM     13  C   LIG    1        0.287   1.755  -0.630  0.00  0.00    +0.022 A 
ATOM     14  C   LIG    1        1.551   2.319  -0.630  0.00  0.00    +0.042 A 
ATOM     15 CL   LIG    1        1.735   4.025  -0.891  0.00  0.00    -0.084 Cl
ATOM     16  C   LIG    1        2.667   1.531  -0.422  0.00  0.00    +0.037 A 
ATOM     17  C   LIG    1        2.522   0.160  -0.206  0.00  0.00    +0.088 A 
ENDROOT
BRANCH   1  22
ATOM     18  C   LIG    1        6.588   0.467   4.554  0.00  0.00    +0.105 C 
ATOM     19  N   LIG    1        6.162   0.470   3.148  0.00  0.00    -0.298 NA
ATOM     20  C   LIG    1        6.243  -0.878   2.571  0.00  0.00    +0.128 C 
ATOM     21  C   LIG    1        5.967  -0.803   1.066  0.00  0.00    +0.241 C 
ATOM     22  N   LIG    1        4.683  -0.116   0.860  0.00  0.00    -0.218 N 
ATOM     23  C   LIG    1        4.477   1.184   1.517  0.00  0.00    +0.241 C 
ATOM     24  C   LIG    1        4.810   1.028   3.009  0.00  0.00    +0.128 C 
ENDBRANCH   1  22
TORSDOF 1
