REMARK  Name = ZINC66066276
REMARK                            x       y       z     vdW  Elec       q    Type
REMARK                         _______ _______ _______ _____ _____    ______ ____
ROOT
ATOM      1  N   LIG    1        5.022  -6.559  -0.110  0.00  0.00    -0.281 N 
ATOM      2  H   LIG    1        5.076  -7.198   0.618  0.00  0.00    +0.155 HD
ENDROOT
BRANCH   1   3
ATOM      3  C   LIG    1        5.923  -6.629  -1.161  0.00  0.00    +0.222 A 
ATOM      4  N   LIG    1        5.917  -5.677  -2.081  0.00  0.00    -0.220 NA
ATOM      5  C   LIG    1        6.750  -5.716  -3.111  0.00  0.00    +0.144 A 
ATOM      6  C   LIG    1        7.648  -6.770  -3.217  0.00  0.00    +0.106 A 
ATOM      7  C   LIG    1        7.647  -7.741  -2.213  0.00  0.00    +0.163 A 
ATOM      8  N   LIG    1        8.581  -8.768  -2.217  0.00  0.00    -0.326 N 
ATOM      9  C   LIG    1        8.148 -10.165  -2.299  0.00  0.00    +0.151 C 
ATOM     10  C   LIG    1        9.934  -8.451  -2.144  0.00  0.00    +0.056 A 
ATOM     11  C   LIG    1       10.696  -8.918  -1.081  0.00  0.00    +0.026 A 
ATOM     12  C   LIG    1       12.031  -8.579  -0.986  0.00  0.00    +0.002 A 
ATOM     13  C   LIG    1       12.617  -7.772  -1.947  0.00  0.00    +0.001 A 
ATOM     14  C   LIG    1       11.879  -7.311  -3.015  0.00  0.00    +0.015 A 
ATOM     15  C   LIG    1       10.529  -7.659  -3.134  0.00  0.00    +0.063 A 
ATOM     16  C   LIG    1        9.768  -7.229  -4.314  0.00  0.00    +0.261 A 
ATOM     17  O   LIG    1       10.353  -7.222  -5.379  0.00  0.00    -0.267 OA
ATOM     18  N   LIG    1        8.499  -6.849  -4.318  0.00  0.00    -0.307 N 
ATOM     19  C   LIG    1        7.931  -6.472  -5.615  0.00  0.00    +0.152 C 
ATOM     20  N   LIG    1        6.773  -7.645  -1.218  0.00  0.00    -0.195 NA
ENDBRANCH   1   3
BRANCH   1  24
ATOM     21  C   LIG    1        2.078  -3.598  -0.077  0.00  0.00    +0.033 A 
ATOM     22  C   LIG    1        2.501  -4.146  -1.281  0.00  0.00    +0.025 A 
ATOM     23  C   LIG    1        3.476  -5.126  -1.291  0.00  0.00    +0.029 A 
ATOM     24  C   LIG    1        4.033  -5.564  -0.099  0.00  0.00    +0.076 A 
ATOM     25  C   LIG    1        3.610  -5.015   1.110  0.00  0.00    +0.143 A 
ATOM     26  C   LIG    1        2.637  -4.030   1.118  0.00  0.00    +0.070 A 
BRANCH  21  32
ATOM     27  C   LIG    1       -0.124   1.397  -0.001  0.00  0.00    -0.096 C 
ATOM     28  N   LIG    1       -0.085  -0.071  -0.032  0.00  0.00    +0.380 N 
ATOM     29  H   LIG    1       -1.027  -0.431  -0.052  0.00  0.00    -0.082 HD
ATOM     30  C   LIG    1        0.631  -0.515  -1.234  0.00  0.00    -0.060 C 
ATOM     31  C   LIG    1        0.574  -2.043  -1.326  0.00  0.00    +0.086 C 
ATOM     32  N   LIG    1        1.091  -2.606  -0.069  0.00  0.00    -0.333 N 
ATOM     33  C   LIG    1        0.541  -2.096   1.196  0.00  0.00    +0.086 C 
ATOM     34  C   LIG    1        0.600  -0.565   1.170  0.00  0.00    -0.060 C 
ENDBRANCH  21  32
BRANCH  25  35
ATOM     35  O   LIG    1        4.155  -5.444   2.280  0.00  0.00    -0.493 OA
ATOM     36  C   LIG    1        3.674  -4.837   3.481  0.00  0.00    +0.277 C 
ENDBRANCH  25  35
ENDBRANCH   1  24
TORSDOF 4
