REMARK  Name = ZINC26815863
REMARK                            x       y       z     vdW  Elec       q    Type
REMARK                         _______ _______ _______ _____ _____    ______ ____
ROOT
ATOM      1  C   LIG    1        4.842   1.243  -0.148  0.00  0.00    +0.108 C 
ENDROOT
BRANCH   1   2
ATOM      2  N   LIG    1        3.594   2.000  -0.021  0.00  0.00    -0.311 N 
BRANCH   2   3
ATOM      3  C   LIG    1        2.374   1.332  -0.013  0.00  0.00    +0.122 A 
ATOM      4  C   LIG    1        1.190   2.062   0.002  0.00  0.00    +0.045 A 
ATOM      5  C   LIG    1       -0.017   1.385   0.010  0.00  0.00    +0.020 A 
ATOM      6  C   LIG    1        0.002  -0.004   0.002  0.00  0.00    +0.036 A 
ATOM      7 BR   LIG    1       -1.617  -0.982   0.013  0.00  0.00    -0.049 Br
ATOM      8  C   LIG    1        1.215  -0.664  -0.013  0.00  0.00    +0.128 A 
ATOM      9  N   LIG    1        2.351   0.009  -0.020  0.00  0.00    -0.239 NA
ENDBRANCH   2   3
BRANCH   2  10
ATOM     10  C   LIG    1        3.631   3.460   0.097  0.00  0.00    +0.141 C 
BRANCH  10  18
ATOM     11  C   LIG    1        2.561   4.051   2.280  0.00  0.00    +0.007 A 
ATOM     12  C   LIG    1        2.638   4.399   3.616  0.00  0.00    +0.022 A 
ATOM     13  C   LIG    1        3.872   4.550   4.221  0.00  0.00    +0.059 A 
ATOM     14 CL   LIG    1        3.970   4.993   5.897  0.00  0.00    -0.082 Cl
ATOM     15  C   LIG    1        5.030   4.348   3.489  0.00  0.00    +0.060 A 
ATOM     16 CL   LIG    1        6.581   4.537   4.247  0.00  0.00    -0.082 Cl
ATOM     17  C   LIG    1        4.951   3.995   2.154  0.00  0.00    +0.026 A 
ATOM     18  C   LIG    1        3.717   3.844   1.551  0.00  0.00    -0.029 A 
ENDBRANCH  10  18
ENDBRANCH   2  10
ENDBRANCH   1   2
BRANCH   1  19
ATOM     19  C   LIG    1        5.203   1.098  -1.628  0.00  0.00    +0.038 C 
BRANCH  19  20
ATOM     20  C   LIG    1        6.506   0.308  -1.760  0.00  0.00    +0.105 C 
BRANCH  20  21
ATOM     21  N   LIG    1        6.851   0.169  -3.177  0.00  0.00    -0.327 N 
ATOM     22  H   LIG    1        6.199   0.606  -3.947  0.00  0.00    +0.148 HD
BRANCH  21  23
ATOM     23  C   LIG    1        7.968  -0.495  -3.537  0.00  0.00    +0.130 C 
ATOM     24  S   LIG    1        8.982  -1.176  -2.338  0.00  0.00    -0.019 S 
BRANCH  23  25
ATOM     25  N   LIG    1        8.285  -0.623  -4.840  0.00  0.00    -0.327 N 
ATOM     26  H   LIG    1        7.633  -0.186  -5.611  0.00  0.00    +0.148 HD
BRANCH  25  27
ATOM     27  C   LIG    1        9.499  -1.345  -5.231  0.00  0.00    +0.103 C 
BRANCH  27  28
ATOM     28  C   LIG    1        9.624  -1.344  -6.756  0.00  0.00    +0.025 C 
BRANCH  28  29
ATOM     29  C   LIG    1       10.891  -2.098  -7.164  0.00  0.00    +0.056 C 
BRANCH  29  30
ATOM     30  C   LIG    1       11.014  -2.097  -8.666  0.00  0.00    +0.033 A 
ATOM     31  C   LIG    1       12.075  -1.663  -9.373  0.00  0.00    +0.105 A 
ATOM     32  N   LIG    1       11.770  -1.842 -10.695  0.00  0.00    -0.352 N 
ATOM     33  C   LIG    1       10.532  -2.380 -10.751  0.00  0.00    +0.171 A 
ATOM     34  H   LIG    1       12.495  -1.555 -11.471  0.00  0.00    +0.166 HD
ATOM     35  N   LIG    1       10.089  -2.535  -9.533  0.00  0.00    -0.350 N 
ATOM     36  H   LIG    1        9.137  -2.942  -9.162  0.00  0.00    +0.166 HD
ENDBRANCH  29  30
ENDBRANCH  28  29
ENDBRANCH  27  28
ENDBRANCH  25  27
ENDBRANCH  23  25
ENDBRANCH  21  23
ENDBRANCH  20  21
ENDBRANCH  19  20
ENDBRANCH   1  19
TORSDOF 13
