REMARK  Name = ZINC28472591
REMARK                            x       y       z     vdW  Elec       q    Type
REMARK                         _______ _______ _______ _____ _____    ______ ____
ROOT
ATOM      1  C   LIG    1       -1.223   1.754   0.017  0.00  0.00    +0.121 A 
ATOM      2  C   LIG    1       -0.013   1.076   0.008  0.00  0.00    +0.045 A 
ATOM      3  C   LIG    1        1.174   1.783   0.000  0.00  0.00    +0.004 A 
ATOM      4  C   LIG    1        1.156   3.166   0.008  0.00  0.00    +0.004 A 
ATOM      5  C   LIG    1       -0.049   3.844   0.023  0.00  0.00    -0.033 A 
ATOM      6  C   LIG    1       -1.239   3.141   0.031  0.00  0.00    +0.049 A 
ENDROOT
BRANCH   1   7
ATOM      7  O   LIG    1       -2.392   1.060   0.019  0.00  0.00    -0.492 OA
BRANCH   7   8
ATOM      8  C   LIG    1       -2.300  -0.366   0.011  0.00  0.00    +0.229 C 
BRANCH   8   9
ATOM      9  C   LIG    1       -3.706  -0.968   0.014  0.00  0.00    +0.046 C 
BRANCH   9  10
ATOM     10  C   LIG    1       -3.608  -2.495   0.005  0.00  0.00    +0.038 C 
BRANCH  10  14
ATOM     11  C   LIG    1       -7.535  -4.176   0.015  0.00  0.00    +0.000 A 
ATOM     12  C   LIG    1       -6.905  -3.897  -1.184  0.00  0.00    +0.000 A 
ATOM     13  C   LIG    1       -5.634  -3.353  -1.187  0.00  0.00    +0.003 A 
ATOM     14  C   LIG    1       -4.993  -3.087   0.009  0.00  0.00    -0.047 A 
ATOM     15  C   LIG    1       -5.621  -3.371   1.207  0.00  0.00    +0.003 A 
ATOM     16  C   LIG    1       -6.894  -3.911   1.210  0.00  0.00    +0.000 A 
ENDBRANCH  10  14
ENDBRANCH   9  10
ENDBRANCH   8   9
ENDBRANCH   7   8
ENDBRANCH   1   7
BRANCH   5  17
ATOM     17  C   LIG    1       -0.065   5.351   0.032  0.00  0.00    +0.155 C 
BRANCH  17  18
ATOM     18  C   LIG    1       -0.084   5.861  -1.386  0.00  0.00    +0.309 C 
ATOM     19  O   LIG    1       -0.085   5.080  -2.309  0.00  0.00    -0.251 OA
BRANCH  18  20
ATOM     20  O   LIG    1       -0.101   7.181  -1.624  0.00  0.00    -0.480 OA
ATOM     21  H   LIG    1       -0.100   7.787  -0.909  0.00  0.00    +0.295 HD
ENDBRANCH  18  20
ENDBRANCH  17  18
ENDBRANCH   5  17
TORSDOF 8
