REMARK  Name = ZINC20459046
REMARK                            x       y       z     vdW  Elec       q    Type
REMARK                         _______ _______ _______ _____ _____    ______ ____
ROOT
ATOM      1  C   LIG    1        3.613   0.574   0.007  0.00  0.00    +0.062 A 
ATOM      2  C   LIG    1        2.221   0.662  -0.088  0.00  0.00    +0.035 A 
ATOM      3  C   LIG    1        1.474  -0.474  -0.312  0.00  0.00    +0.042 A 
ATOM      4 CL   LIG    1       -0.255  -0.363  -0.430  0.00  0.00    -0.084 Cl
ATOM      5  C   LIG    1        2.096  -1.707  -0.445  0.00  0.00    +0.023 A 
ATOM      6  C   LIG    1        3.469  -1.810  -0.353  0.00  0.00    +0.044 A 
ATOM      7  C   LIG    1        4.239  -0.675  -0.134  0.00  0.00    +0.111 A 
ENDROOT
BRANCH   1   8
ATOM      8  C   LIG    1        4.418   1.784   0.246  0.00  0.00    +0.196 C 
ATOM      9  O   LIG    1        4.426   2.301   1.347  0.00  0.00    -0.287 OA
BRANCH   8  13
ATOM     10  C   LIG    1        6.713   3.467  -2.907  0.00  0.00    +0.000 A 
ATOM     11  C   LIG    1        6.723   4.059  -1.656  0.00  0.00    +0.001 A 
ATOM     12  C   LIG    1        5.981   3.517  -0.627  0.00  0.00    +0.012 A 
ATOM     13  C   LIG    1        5.216   2.370  -0.851  0.00  0.00    +0.022 A 
ATOM     14  C   LIG    1        5.210   1.779  -2.116  0.00  0.00    +0.012 A 
ATOM     15  C   LIG    1        5.958   2.330  -3.135  0.00  0.00    +0.001 A 
ENDBRANCH   8  13
ENDBRANCH   1   8
BRANCH   7  16
ATOM     16  N   LIG    1        5.625  -0.776  -0.047  0.00  0.00    -0.243 N 
ATOM     17  H   LIG    1        6.150  -0.935  -0.846  0.00  0.00    +0.265 HD
BRANCH  16  18
ATOM     18  C   LIG    1        6.249  -0.651   1.174  0.00  0.00    +0.393 C 
ATOM     19  N   LIG    1        5.539  -0.543   2.260  0.00  0.00    -0.129 NA
ATOM     20  H   LIG    1        4.571  -0.581   2.213  0.00  0.00    +0.306 HD
BRANCH  18  21
ATOM     21  N   LIG    1        7.627  -0.639   1.247  0.00  0.00    -0.189 N 
ATOM     22  H   LIG    1        8.156  -0.633   0.433  0.00  0.00    +0.271 HD
BRANCH  21  23
ATOM     23  C   LIG    1        8.250  -0.637   2.470  0.00  0.00    +0.350 C 
ATOM     24  N   LIG    1        9.572  -0.496   2.544  0.00  0.00    -0.291 N 
ATOM     25  H   LIG    1       10.012  -0.494   3.408  0.00  0.00    +0.255 HD
ATOM     26  H   LIG    1       10.095  -0.395   1.733  0.00  0.00    +0.255 HD
BRANCH  23  27
ATOM     27  N   LIG    1        7.533  -0.775   3.583  0.00  0.00    -0.291 N 
ATOM     28  H   LIG    1        7.822  -0.346   4.403  0.00  0.00    +0.255 HD
ATOM     29  H   LIG    1        6.721  -1.306   3.573  0.00  0.00    +0.255 HD
ENDBRANCH  23  27
ENDBRANCH  21  23
ENDBRANCH  18  21
ENDBRANCH  16  18
ENDBRANCH   7  16
TORSDOF 7
