REMARK  Name = ZINC18189761
REMARK                            x       y       z     vdW  Elec       q    Type
REMARK                         _______ _______ _______ _____ _____    ______ ____
ROOT
ATOM      1  C   LIG    1       -0.005  -0.608  -2.378  0.00  0.00    +0.401 C 
ATOM      2  N   LIG    1        0.628  -0.939  -3.481  0.00  0.00    -0.072 NA
ENDROOT
BRANCH   2   3
ATOM      3  C   LIG    1        1.959  -1.247  -3.438  0.00  0.00    +0.145 A 
ATOM      4  C   LIG    1        2.439  -2.251  -2.586  0.00  0.00    +0.065 A 
ATOM      5  C   LIG    1        3.788  -2.529  -2.576  0.00  0.00    +0.114 A 
ATOM      6  N   LIG    1        4.623  -1.865  -3.353  0.00  0.00    -0.263 NA
ATOM      7  C   LIG    1        4.213  -0.912  -4.171  0.00  0.00    +0.114 A 
ATOM      8  C   LIG    1        2.881  -0.572  -4.250  0.00  0.00    +0.065 A 
ENDBRANCH   2   3
BRANCH   1   9
ATOM      9  N   LIG    1        0.692  -0.451  -1.209  0.00  0.00    -0.272 N 
ATOM     10  H   LIG    1        1.660  -0.509  -1.210  0.00  0.00    +0.258 HD
BRANCH   9  12
ATOM     11  C   LIG    1       -0.300   1.304   0.176  0.00  0.00    +0.048 C 
ATOM     12  C   LIG    1       -0.025  -0.195   0.043  0.00  0.00    +0.147 C 
BRANCH  12  13
ATOM     13  C   LIG    1        0.826  -0.665   1.224  0.00  0.00    -0.005 C 
ATOM     14  C   LIG    1        2.152   0.098   1.232  0.00  0.00    +0.014 C 
ATOM     15  C   LIG    1        1.101  -2.164   1.090  0.00  0.00    +0.014 C 
ATOM     16  C   LIG    1        0.077  -0.398   2.531  0.00  0.00    +0.014 C 
ENDBRANCH  12  13
ENDBRANCH   9  12
ENDBRANCH   1   9
BRANCH   1  17
ATOM     17  N   LIG    1       -1.367  -0.419  -2.398  0.00  0.00    -0.177 N 
ATOM     18  H   LIG    1       -1.835  -0.175  -1.584  0.00  0.00    +0.278 HD
BRANCH  17  19
ATOM     19  C   LIG    1       -2.056  -0.575  -3.555  0.00  0.00    +0.255 C 
ATOM     20  N   LIG    1       -2.634  -0.705  -4.524  0.00  0.00    -0.154 NA
ENDBRANCH  17  19
ENDBRANCH   1  17
TORSDOF 6
