REMARK  Name = ZINC33821372
REMARK                            x       y       z     vdW  Elec       q    Type
REMARK                         _______ _______ _______ _____ _____    ______ ____
ROOT
ATOM      1  C   LIG    1       -4.604   2.013   0.065  0.00  0.00    +0.318 C 
ATOM      2  N   LIG    1       -4.541   1.478  -1.112  0.00  0.00    -0.070 NA
ATOM      3  C   LIG    1       -3.336   0.644  -1.224  0.00  0.00    +0.302 C 
ATOM      4  C   LIG    1       -2.658   0.778   0.154  0.00  0.00    +0.249 C 
ATOM      5  N   LIG    1       -3.559   1.676   0.894  0.00  0.00    -0.222 N 
ATOM      6  H   LIG    1       -3.326   1.956   1.932  0.00  0.00    +0.292 HD
ENDROOT
BRANCH   3   7
ATOM      7  C   LIG    1       -2.432   1.165  -2.311  0.00  0.00    +0.005 A 
ATOM      8  C   LIG    1       -2.346   2.525  -2.545  0.00  0.00    +0.009 A 
ATOM      9  C   LIG    1       -1.513   3.004  -3.538  0.00  0.00    +0.020 A 
ATOM     10  C   LIG    1       -0.774   2.122  -4.306  0.00  0.00    +0.041 A 
ATOM     11 CL   LIG    1        0.267   2.722  -5.559  0.00  0.00    -0.084 Cl
ATOM     12  C   LIG    1       -0.865   0.760  -4.075  0.00  0.00    +0.020 A 
ATOM     13  C   LIG    1       -1.694   0.283  -3.078  0.00  0.00    +0.009 A 
ENDBRANCH   3   7
BRANCH   4  14
ATOM     14  C   LIG    1       -1.290   1.396   0.014  0.00  0.00    -0.001 A 
ATOM     15  C   LIG    1       -0.162   0.599   0.075  0.00  0.00    +0.009 A 
ATOM     16  C   LIG    1        1.092   1.163  -0.059  0.00  0.00    +0.020 A 
ATOM     17  C   LIG    1        1.219   2.528  -0.249  0.00  0.00    +0.041 A 
ATOM     18 CL   LIG    1        2.794   3.238  -0.418  0.00  0.00    -0.084 Cl
ATOM     19  C   LIG    1        0.090   3.326  -0.304  0.00  0.00    +0.020 A 
ATOM     20  C   LIG    1       -1.163   2.760  -0.170  0.00  0.00    +0.009 A 
ENDBRANCH   4  14
BRANCH   1  26
ATOM     21  C   LIG    1       -6.740   3.209  -0.409  0.00  0.00    +0.139 A 
ATOM     22  C   LIG    1       -7.768   4.048  -0.010  0.00  0.00    +0.092 A 
ATOM     23  C   LIG    1       -7.768   4.585   1.268  0.00  0.00    +0.124 A 
ATOM     24  C   LIG    1       -6.739   4.285   2.154  0.00  0.00    +0.047 A 
ATOM     25  C   LIG    1       -5.715   3.448   1.770  0.00  0.00    +0.023 A 
ATOM     26  C   LIG    1       -5.703   2.907   0.482  0.00  0.00    +0.107 A 
BRANCH  23  27
ATOM     27  O   LIG    1       -8.777   5.406   1.657  0.00  0.00    -0.495 OA
ATOM     28  C   LIG    1       -8.716   5.925   2.987  0.00  0.00    +0.277 C 
ENDBRANCH  23  27
BRANCH  21  29
ATOM     29  O   LIG    1       -6.738   2.683  -1.660  0.00  0.00    -0.488 OA
BRANCH  29  31
ATOM     30  C   LIG    1       -7.726   4.293  -3.169  0.00  0.00    +0.051 C 
ATOM     31  C   LIG    1       -7.885   2.939  -2.474  0.00  0.00    +0.167 C 
ATOM     32  C   LIG    1       -8.018   1.837  -3.527  0.00  0.00    +0.051 C 
ENDBRANCH  29  31
ENDBRANCH  21  29
ENDBRANCH   1  26
TORSDOF 6
