REMARK  Name = ZINC19045017
REMARK                            x       y       z     vdW  Elec       q    Type
REMARK                         _______ _______ _______ _____ _____    ______ ____
ROOT
ATOM      1  C   LIG    1        0.731  -0.503   1.223  0.00  0.00    +0.066 A 
ATOM      2  C   LIG    1        2.112  -0.661   1.347  0.00  0.00    +0.059 A 
ATOM      3  C   LIG    1        2.312  -1.140   2.633  0.00  0.00    +0.143 A 
ATOM      4  N   LIG    1        1.071  -1.243   3.199  0.00  0.00    -0.271 N 
ATOM      5  H   LIG    1        0.892  -1.552   4.100  0.00  0.00    +0.189 HD
ATOM      6  N   LIG    1        0.181  -0.860   2.356  0.00  0.00    -0.178 NA
ENDROOT
BRANCH   1   8
ATOM      7  C   LIG    1       -0.019   1.526   0.010  0.00  0.00    +0.014 C 
ATOM      8  C   LIG    1        0.002  -0.004   0.002  0.00  0.00    +0.033 C 
ATOM      9  C   LIG    1        0.718  -0.497  -1.257  0.00  0.00    +0.014 C 
ENDBRANCH   1   8
BRANCH   3  10
ATOM     10  C   LIG    1        3.597  -1.472   3.260  0.00  0.00    +0.355 C 
ATOM     11  O   LIG    1        3.627  -1.888   4.410  0.00  0.00    -0.243 OA
BRANCH  10  12
ATOM     12  O   LIG    1        4.638  -1.331   2.632  0.00  0.00    -0.476 OA
ATOM     13  H   LIG    1        4.615  -1.013   1.751  0.00  0.00    +0.295 HD
ENDBRANCH  10  12
ENDBRANCH   3  10
TORSDOF 3
