REMARK  Name = ZINC34451922
REMARK                            x       y       z     vdW  Elec       q    Type
REMARK                         _______ _______ _______ _____ _____    ______ ____
ROOT
ATOM      1  N   LIG    1        0.011  -4.946  -1.129  0.00  0.00    -0.327 N 
ATOM      2  C   LIG    1        1.278  -5.343  -1.762  0.00  0.00    +0.120 C 
ATOM      3  C   LIG    1        1.236  -4.930  -3.237  0.00  0.00    +0.103 C 
ATOM      4  N   LIG    1        0.028  -5.485  -3.863  0.00  0.00    -0.299 NA
ATOM      5  C   LIG    1       -1.189  -4.936  -3.250  0.00  0.00    +0.103 C 
ATOM      6  C   LIG    1       -1.246  -5.354  -1.772  0.00  0.00    +0.120 C 
ENDROOT
BRANCH   1  16
ATOM      7  C   LIG    1       -0.032   1.434   0.067  0.00  0.00    +0.065 C 
ATOM      8  C   LIG    1       -0.023  -0.073   0.048  0.00  0.00    +0.039 A 
ATOM      9  C   LIG    1       -0.015  -0.736  -1.176  0.00  0.00    +0.024 A 
ATOM     10  C   LIG    1       -0.007  -2.102  -1.212  0.00  0.00    +0.013 A 
ATOM     11  C   LIG    1       -0.006  -2.797   0.009  0.00  0.00    +0.021 A 
ATOM     12  C   LIG    1       -0.014  -2.062   1.220  0.00  0.00    +0.073 A 
ATOM     13  C   LIG    1       -0.013  -2.754   2.443  0.00  0.00    +0.028 A 
ATOM     14  C   LIG    1       -0.004  -4.116   2.456  0.00  0.00    +0.004 A 
ATOM     15  C   LIG    1        0.004  -4.848   1.274  0.00  0.00    +0.024 A 
ATOM     16  C   LIG    1        0.003  -4.208   0.051  0.00  0.00    +0.039 A 
ATOM     17  N   LIG    1       -0.017  -0.725   1.186  0.00  0.00    -0.252 NA
ENDBRANCH   1  16
BRANCH   4  18
ATOM     18  C   LIG    1        0.036  -5.258  -5.314  0.00  0.00    +0.089 C 
BRANCH  18  19
ATOM     19  C   LIG    1       -1.098  -6.057  -5.961  0.00  0.00    +0.050 C 
BRANCH  19  20
ATOM     20  C   LIG    1       -1.090  -5.824  -7.450  0.00  0.00    -0.044 A 
ATOM     21  C   LIG    1       -1.820  -4.781  -7.990  0.00  0.00    +0.004 A 
ATOM     22  C   LIG    1       -1.816  -4.565  -9.355  0.00  0.00    +0.002 A 
ATOM     23  C   LIG    1       -1.082  -5.390 -10.185  0.00  0.00    +0.023 A 
ATOM     24  C   LIG    1       -0.347  -6.438  -9.646  0.00  0.00    +0.038 A 
ATOM     25  C   LIG    1       -0.349  -6.649  -8.273  0.00  0.00    +0.027 A 
BRANCH  24  26
ATOM     26  N   LIG    1        0.398  -7.276 -10.483  0.00  0.00    -0.254 N 
ATOM     27  C   LIG    1        1.302  -8.344 -10.033  0.00  0.00    +0.134 C 
ATOM     28  C   LIG    1        1.852  -8.939 -11.344  0.00  0.00    +0.125 C 
ATOM     29  N   LIG    1        1.199  -8.142 -12.394  0.00  0.00    -0.297 N 
ATOM     30  H   LIG    1        1.327  -8.257 -13.348  0.00  0.00    +0.150 HD
ATOM     31  C   LIG    1        0.396  -7.236 -11.822  0.00  0.00    +0.307 C 
ATOM     32  O   LIG    1       -0.272  -6.445 -12.460  0.00  0.00    -0.252 OA
ENDBRANCH  24  26
ENDBRANCH  19  20
ENDBRANCH  18  19
ENDBRANCH   4  18
TORSDOF 5
