REMARK  Name = ZINC13761811
REMARK                            x       y       z     vdW  Elec       q    Type
REMARK                         _______ _______ _______ _____ _____    ______ ____
ROOT
ATOM      1  C   LIG    1        0.044  -2.845   2.459  0.00  0.00    +0.075 A 
ATOM      2  C   LIG    1        0.136  -2.311   3.713  0.00  0.00    +0.062 A 
ATOM      3  C   LIG    1        0.129  -3.363   4.629  0.00  0.00    +0.166 A 
ATOM      4  N   LIG    1        0.037  -4.491   3.969  0.00  0.00    -0.162 NA
ATOM      5  N   LIG    1       -0.024  -4.202   2.600  0.00  0.00    -0.232 N 
ENDROOT
BRANCH   1  11
ATOM      6  C   LIG    1       -1.274  -2.534  -2.344  0.00  0.00    +0.044 C 
ATOM      7  C   LIG    1       -0.615  -1.939  -1.127  0.00  0.00    -0.050 A 
ATOM      8  C   LIG    1       -0.034  -0.686  -1.199  0.00  0.00    +0.003 A 
ATOM      9  C   LIG    1        0.572  -0.132  -0.085  0.00  0.00    +0.001 A 
ATOM     10  C   LIG    1        0.601  -0.829   1.106  0.00  0.00    +0.010 A 
ATOM     11  C   LIG    1        0.017  -2.093   1.185  0.00  0.00    +0.001 A 
ATOM     12  C   LIG    1       -0.598  -2.643   0.060  0.00  0.00    +0.013 A 
ENDBRANCH   1  11
BRANCH   5  13
ATOM     13  C   LIG    1       -0.133  -5.136   1.562  0.00  0.00    +0.066 A 
ATOM     14  C   LIG    1        0.675  -5.024   0.438  0.00  0.00    +0.030 A 
ATOM     15  C   LIG    1        0.565  -5.947  -0.584  0.00  0.00    +0.030 A 
ATOM     16  C   LIG    1       -0.349  -6.981  -0.489  0.00  0.00    +0.105 A 
ATOM     17  C   LIG    1       -1.155  -7.094   0.629  0.00  0.00    +0.030 A 
ATOM     18  C   LIG    1       -1.045  -6.178   1.657  0.00  0.00    +0.030 A 
BRANCH  16  19
ATOM     19  S   LIG    1       -0.486  -8.155  -1.795  0.00  0.00    +0.056 S 
ATOM     20  O   LIG    1       -0.006  -7.515  -2.969  0.00  0.00    -0.153 OA
ATOM     21  O   LIG    1       -1.793  -8.707  -1.709  0.00  0.00    -0.153 OA
BRANCH  19  22
ATOM     22  N   LIG    1        0.570  -9.386  -1.461  0.00  0.00    -0.204 NA
ATOM     23  H   LIG    1        1.385  -9.204  -0.966  0.00  0.00    +0.144 HD
ATOM     24  H   LIG    1        0.375 -10.287  -1.761  0.00  0.00    +0.144 HD
ENDBRANCH  19  22
ENDBRANCH  16  19
ENDBRANCH   5  13
BRANCH   3  25
ATOM     25  C   LIG    1        0.213  -3.226   6.127  0.00  0.00    +0.436 C 
ATOM     26  F   LIG    1        0.950  -2.082   6.450  0.00  0.00    -0.164 F 
ATOM     27  F   LIG    1        0.844  -4.354   6.664  0.00  0.00    -0.164 F 
ATOM     28  F   LIG    1       -1.077  -3.116   6.658  0.00  0.00    -0.164 F 
ENDBRANCH   3  25
TORSDOF 5
