REMARK  Name = ZINC19796087
REMARK                            x       y       z     vdW  Elec       q    Type
REMARK                         _______ _______ _______ _____ _____    ______ ____
ROOT
ATOM      1  C   LIG    1        0.778   1.582   1.662  0.00  0.00    +0.061 C 
ATOM      2  C   LIG    1        0.733   0.125   1.282  0.00  0.00    +0.016 C 
ATOM      3  C   LIG    1       -0.448  -0.452   0.999  0.00  0.00    +0.065 C 
ATOM      4  C   LIG    1       -0.539  -1.899   0.608  0.00  0.00    +0.096 C 
ATOM      5  C   LIG    1        0.726  -2.627   0.962  0.00  0.00    +0.065 C 
ATOM      6  C   LIG    1        1.860  -1.964   1.247  0.00  0.00    +0.016 C 
ATOM      7  C   LIG    1        3.108  -2.736   1.589  0.00  0.00    +0.061 C 
ATOM      8  N   LIG    1        1.896  -0.595   1.224  0.00  0.00    -0.321 N 
ATOM      9  H   LIG    1        2.747  -0.133   1.171  0.00  0.00    +0.152 HD
ENDROOT
BRANCH   4  10
ATOM     10  C   LIG    1       -0.768  -1.998  -0.878  0.00  0.00    -0.033 A 
ATOM     11  C   LIG    1        0.112  -1.390  -1.755  0.00  0.00    +0.005 A 
ATOM     12  C   LIG    1       -0.098  -1.481  -3.118  0.00  0.00    +0.003 A 
ATOM     13  C   LIG    1       -1.187  -2.179  -3.605  0.00  0.00    +0.032 A 
ATOM     14  C   LIG    1       -2.066  -2.787  -2.729  0.00  0.00    +0.122 A 
ATOM     15  C   LIG    1       -1.854  -2.700  -1.365  0.00  0.00    +0.037 A 
BRANCH  14  16
ATOM     16  N   LIG    1       -3.233  -3.534  -3.250  0.00  0.00    +0.006 N 
ATOM     17  O   LIG    1       -3.366  -3.693  -4.441  0.00  0.00    -0.130 OA
BRANCH  16  18
ATOM     18  O   LIG    1       -4.053  -3.986  -2.485  0.00  0.00    -0.396 OA
ATOM     19  H   LIG    1       -3.950  -3.863  -1.562  0.00  0.00    +0.329 HD
ENDBRANCH  16  18
ENDBRANCH  14  16
ENDBRANCH   4  10
BRANCH   3  20
ATOM     20  C   LIG    1       -1.630   0.322   1.072  0.00  0.00    +0.337 C 
ATOM     21  O   LIG    1       -1.571   1.495   1.388  0.00  0.00    -0.245 OA
BRANCH  20  22
ATOM     22  O   LIG    1       -2.823  -0.242   0.790  0.00  0.00    -0.465 OA
ATOM     23  C   LIG    1       -3.975   0.598   0.884  0.00  0.00    +0.280 C 
ENDBRANCH  20  22
ENDBRANCH   3  20
BRANCH   5  24
ATOM     24  C   LIG    1        0.725  -4.041   0.997  0.00  0.00    +0.337 C 
ATOM     25  O   LIG    1        0.195  -4.625   1.924  0.00  0.00    -0.245 OA
BRANCH  24  26
ATOM     26  O   LIG    1        1.310  -4.741   0.003  0.00  0.00    -0.463 OA
BRANCH  26  27
ATOM     27  C   LIG    1        1.370  -6.160   0.158  0.00  0.00    +0.214 C 
BRANCH  27  28
ATOM     28  C   LIG    1        2.167  -6.766  -0.998  0.00  0.00    -0.037 C 
BRANCH  28  29
ATOM     29  N   LIG    1        3.553  -6.282  -0.944  0.00  0.00    +0.383 N 
ATOM     30  H   LIG    1        3.557  -5.274  -0.918  0.00  0.00    -0.082 HD
ATOM     31  C   LIG    1        4.207  -6.805   0.263  0.00  0.00    -0.096 C 
BRANCH  29  32
ATOM     32  C   LIG    1        4.280  -6.744  -2.134  0.00  0.00    -0.043 C 
BRANCH  32  33
ATOM     33  C   LIG    1        5.658  -6.133  -2.150  0.00  0.00    -0.064 A 
ATOM     34  C   LIG    1        5.846  -4.867  -2.674  0.00  0.00    +0.002 A 
ATOM     35  C   LIG    1        7.109  -4.307  -2.688  0.00  0.00    +0.000 A 
ATOM     36  C   LIG    1        8.184  -5.011  -2.179  0.00  0.00    +0.000 A 
ATOM     37  C   LIG    1        7.996  -6.276  -1.654  0.00  0.00    +0.000 A 
ATOM     38  C   LIG    1        6.731  -6.835  -1.635  0.00  0.00    +0.002 A 
ENDBRANCH  32  33
ENDBRANCH  29  32
ENDBRANCH  28  29
ENDBRANCH  27  28
ENDBRANCH  26  27
ENDBRANCH  24  26
ENDBRANCH   5  24
TORSDOF 12
