REMARK  Name = ZINC26263384
REMARK                            x       y       z     vdW  Elec       q    Type
REMARK                         _______ _______ _______ _____ _____    ______ ____
ROOT
ATOM      1  C   LIG    1       -1.412  -0.526   0.013  0.00  0.00    +0.215 C 
ATOM      2  N   LIG    1       -1.640  -1.854   0.008  0.00  0.00    -0.299 N 
ATOM      3  C   LIG    1       -0.520  -2.808  -0.002  0.00  0.00    +0.126 C 
ATOM      4  C   LIG    1       -0.795  -3.876   1.071  0.00  0.00    +0.075 C 
ATOM      5  C   LIG    1       -1.050  -3.147   2.410  0.00  0.00    +0.022 C 
ATOM      6  C   LIG    1       -2.568  -2.874   2.431  0.00  0.00    +0.022 C 
ATOM      7  C   LIG    1       -3.097  -3.462   1.103  0.00  0.00    +0.075 C 
ATOM      8  N   LIG    1       -2.093  -4.517   0.732  0.00  0.00    -0.290 NA
ATOM      9  C   LIG    1       -3.014  -2.380   0.018  0.00  0.00    +0.126 C 
ATOM     10  O   LIG    1       -2.344   0.250   0.026  0.00  0.00    -0.276 OA
ENDROOT
BRANCH   1  12
ATOM     11  C   LIG    1       -0.019   1.526   0.010  0.00  0.00    +0.013 C 
ATOM     12  C   LIG    1        0.002  -0.004   0.002  0.00  0.00    +0.092 C 
ENDBRANCH   1  12
BRANCH   8  13
ATOM     13  C   LIG    1       -2.299  -5.740   1.519  0.00  0.00    +0.112 C 
BRANCH  13  14
ATOM     14  C   LIG    1       -3.492  -6.488   0.982  0.00  0.00    -0.011 C 
ATOM     15  C   LIG    1       -3.369  -7.756   0.614  0.00  0.00    +0.005 C 
BRANCH  15  16
ATOM     16  C   LIG    1       -4.538  -8.490   0.087  0.00  0.00    -0.025 A 
ATOM     17  C   LIG    1       -5.773  -7.849  -0.030  0.00  0.00    +0.008 A 
ATOM     18  C   LIG    1       -6.861  -8.540  -0.523  0.00  0.00    +0.001 A 
ATOM     19  C   LIG    1       -6.730  -9.865  -0.899  0.00  0.00    +0.000 A 
ATOM     20  C   LIG    1       -5.510 -10.506  -0.785  0.00  0.00    +0.001 A 
ATOM     21  C   LIG    1       -4.412  -9.824  -0.300  0.00  0.00    +0.008 A 
ENDBRANCH  15  16
ENDBRANCH  13  14
ENDBRANCH   8  13
TORSDOF 4
