REMARK  Name = ZINC28641173
REMARK                            x       y       z     vdW  Elec       q    Type
REMARK                         _______ _______ _______ _____ _____    ______ ____
ROOT
ATOM      1  N   LIG    1        3.626   3.460  -0.015  0.00  0.00    -0.341 N 
ATOM      2  H   LIG    1        2.686   4.031  -0.003  0.00  0.00    +0.146 HD
ENDROOT
BRANCH   1   3
ATOM      3  C   LIG    1        3.595   2.067  -0.022  0.00  0.00    +0.035 A 
ATOM      4  C   LIG    1        4.769   1.342  -0.037  0.00  0.00    +0.023 A 
ATOM      5  C   LIG    1        4.747  -0.049  -0.045  0.00  0.00    +0.002 A 
ATOM      6  C   LIG    1        3.571  -0.736  -0.037  0.00  0.00    +0.010 A 
ATOM      7  C   LIG    1        2.354  -0.037  -0.021  0.00  0.00    +0.002 A 
ATOM      8  C   LIG    1        1.115  -0.699  -0.012  0.00  0.00    +0.119 A 
ATOM      9  N   LIG    1        0.002  -0.004   0.002  0.00  0.00    -0.263 NA
ATOM     10  C   LIG    1       -0.016   1.322   0.009  0.00  0.00    +0.111 A 
ATOM     11  C   LIG    1        1.132   2.056   0.002  0.00  0.00    +0.030 A 
ATOM     12  C   LIG    1        2.364   1.382  -0.013  0.00  0.00    +0.006 A 
ENDBRANCH   1   3
BRANCH   1  17
ATOM     13  N   LIG    1        6.512   6.414   0.821  0.00  0.00    +0.380 N 
ATOM     14  H   LIG    1        5.712   6.899   1.401  0.00  0.00    -0.082 HD
ATOM     15  C   LIG    1        6.056   6.314  -0.571  0.00  0.00    -0.077 C 
ATOM     16  C   LIG    1        4.724   5.561  -0.621  0.00  0.00    +0.003 C 
ATOM     17  C   LIG    1        4.911   4.164  -0.023  0.00  0.00    +0.067 C 
ATOM     18  C   LIG    1        5.432   4.294   1.410  0.00  0.00    +0.003 C 
ATOM     19  C   LIG    1        6.743   5.085   1.401  0.00  0.00    -0.077 C 
BRANCH  13  20
ATOM     20  C   LIG    1        7.716   7.249   0.922  0.00  0.00    -0.079 C 
BRANCH  20  22
ATOM     21  C   LIG    1        9.556   8.000   2.436  0.00  0.00    +0.002 C 
ATOM     22  C   LIG    1        8.302   7.130   2.331  0.00  0.00    -0.022 C 
ENDBRANCH  20  22
ENDBRANCH  13  20
ENDBRANCH   1  17
TORSDOF 4
