REMARK  Name = ZINC39949130
REMARK                            x       y       z     vdW  Elec       q    Type
REMARK                         _______ _______ _______ _____ _____    ______ ____
ROOT
ATOM      1  C   LIG    1       -0.234   0.422  -4.849  0.00  0.00    +0.112 C 
ATOM      2  C   LIG    1        0.691   0.505  -6.061  0.00  0.00    +0.101 C 
ATOM      3  N   LIG    1        1.169  -0.808  -6.484  0.00  0.00    -0.297 NA
ATOM      4  C   LIG    1        2.635  -0.830  -6.574  0.00  0.00    +0.105 C 
ATOM      5  C   LIG    1        0.676  -1.922  -5.670  0.00  0.00    +0.088 C 
ATOM      6  C   LIG    1        1.127  -3.245  -6.300  0.00  0.00    +0.037 C 
ATOM      7  C   LIG    1        0.392  -4.412  -5.644  0.00  0.00    +0.065 C 
ATOM      8  C   LIG    1        0.596  -5.755  -6.294  0.00  0.00    +0.092 C 
ATOM      9  N   LIG    1       -0.563  -6.190  -6.701  0.00  0.00    -0.259 NA
ATOM     10  C   LIG    1       -1.580  -5.318  -6.512  0.00  0.00    +0.068 A 
ATOM     11  C   LIG    1       -2.959  -5.337  -6.766  0.00  0.00    +0.028 A 
ATOM     12  C   LIG    1       -3.674  -4.121  -6.494  0.00  0.00    +0.003 A 
ATOM     13  C   LIG    1       -3.073  -2.942  -6.075  0.00  0.00    +0.008 A 
ATOM     14  C   LIG    1       -1.711  -2.924  -5.818  0.00  0.00    -0.015 A 
ATOM     15  C   LIG    1       -1.063  -4.147  -5.927  0.00  0.00    -0.006 A 
ATOM     16  C   LIG    1       -0.827  -1.804  -5.534  0.00  0.00    -0.026 C 
ATOM     17  C   LIG    1       -1.302  -0.623  -5.121  0.00  0.00    -0.007 C 
ENDROOT
BRANCH   1  20
ATOM     18  N   LIG    1       -0.055  -0.114  -2.441  0.00  0.00    -0.310 N 
ATOM     19  H   LIG    1       -1.010   0.038  -2.368  0.00  0.00    +0.149 HD
ATOM     20  C   LIG    1        0.561   0.028  -3.631  0.00  0.00    +0.221 C 
ATOM     21  O   LIG    1        1.755  -0.162  -3.722  0.00  0.00    -0.275 OA
BRANCH  18  22
ATOM     22  CA  LIG    1        0.718  -0.497  -1.257  0.00  0.00    +0.098 C 
BRANCH  22  24
ATOM     23  C   LIG    1       -0.019   1.526   0.010  0.00  0.00    +0.006 C 
ATOM     24  C   LIG    1        0.002  -0.004   0.002  0.00  0.00    +0.021 C 
ENDBRANCH  22  24
BRANCH  22  25
ATOM     25  C   LIG    1        0.849  -2.021  -1.205  0.00  0.00    +0.178 C 
BRANCH  25  26
ATOM     26  O   LIG    1       -0.442  -2.604  -1.018  0.00  0.00    -0.393 OA
ATOM     27  H   LIG    1       -0.435  -3.570  -0.976  0.00  0.00    +0.209 HD
ENDBRANCH  25  26
ENDBRANCH  22  25
ENDBRANCH  18  22
ENDBRANCH   1  20
TORSDOF 5
