REMARK  Name = ZINC00026213
REMARK                            x       y       z     vdW  Elec       q    Type
REMARK                         _______ _______ _______ _____ _____    ______ ____
ROOT
ATOM      1  C   LIG    1       -1.265  -0.759   0.011  0.00  0.00    +0.136 A 
ATOM      2  C   LIG    1       -1.384  -2.118   0.010  0.00  0.00    +0.050 A 
ATOM      3  C   LIG    1       -2.755  -2.408   0.021  0.00  0.00    +0.050 A 
ATOM      4  C   LIG    1       -3.415  -1.214   0.027  0.00  0.00    +0.136 A 
ATOM      5  O   LIG    1       -2.501  -0.224   0.026  0.00  0.00    -0.455 OA
ENDROOT
BRANCH   1  11
ATOM      6  C   LIG    1       -0.017   1.394   0.010  0.00  0.00    +0.012 A 
ATOM      7  C   LIG    1        1.157   2.093   0.002  0.00  0.00    +0.016 A 
ATOM      8  C   LIG    1        2.376   1.411  -0.013  0.00  0.00    +0.061 A 
ATOM      9  C   LIG    1        2.396   0.013  -0.021  0.00  0.00    +0.016 A 
ATOM     10  C   LIG    1        1.223  -0.686  -0.013  0.00  0.00    +0.012 A 
ATOM     11  C   LIG    1        0.002  -0.004   0.002  0.00  0.00    +0.017 A 
BRANCH   8  12
ATOM     12  C   LIG    1        3.646   2.167  -0.022  0.00  0.00    +0.266 C 
ATOM     13  N   LIG    1        4.809   1.517  -0.036  0.00  0.00    -0.288 N 
ATOM     14  H   LIG    1        5.642   2.014  -0.042  0.00  0.00    +0.301 HD
ATOM     15  H   LIG    1        4.822   0.547  -0.041  0.00  0.00    +0.301 HD
BRANCH  12  16
ATOM     16  N   LIG    1        3.627   3.500  -0.015  0.00  0.00    -0.250 N 
ATOM     17  H   LIG    1        4.460   3.996  -0.020  0.00  0.00    +0.288 HD
ATOM     18  H   LIG    1        2.781   3.973  -0.004  0.00  0.00    +0.288 HD
ENDBRANCH  12  16
ENDBRANCH   8  12
ENDBRANCH   1  11
BRANCH   4  19
ATOM     19  C   LIG    1       -4.878  -1.036   0.038  0.00  0.00    +0.017 A 
ATOM     20  C   LIG    1       -5.719  -2.154   0.049  0.00  0.00    +0.012 A 
ATOM     21  C   LIG    1       -7.074  -1.989   0.059  0.00  0.00    +0.016 A 
ATOM     22  C   LIG    1       -7.622  -0.704   0.059  0.00  0.00    +0.061 A 
ATOM     23  C   LIG    1       -6.783   0.414   0.048  0.00  0.00    +0.016 A 
ATOM     24  C   LIG    1       -5.427   0.250   0.044  0.00  0.00    +0.012 A 
BRANCH  22  25
ATOM     25  C   LIG    1       -9.089  -0.526   0.070  0.00  0.00    +0.266 C 
ATOM     26  N   LIG    1       -9.612   0.700   0.071  0.00  0.00    -0.288 N 
ATOM     27  H   LIG    1      -10.575   0.817   0.078  0.00  0.00    +0.301 HD
ATOM     28  H   LIG    1       -9.029   1.476   0.063  0.00  0.00    +0.301 HD
BRANCH  25  29
ATOM     29  N   LIG    1       -9.889  -1.591   0.080  0.00  0.00    -0.250 N 
ATOM     30  H   LIG    1      -10.852  -1.474   0.088  0.00  0.00    +0.288 HD
ATOM     31  H   LIG    1       -9.509  -2.484   0.080  0.00  0.00    +0.288 HD
ENDBRANCH  25  29
ENDBRANCH  22  25
ENDBRANCH   4  19
TORSDOF 6
