REMARK  Name = ZINC27215004
REMARK                            x       y       z     vdW  Elec       q    Type
REMARK                         _______ _______ _______ _____ _____    ______ ____
ROOT
ATOM      1  CA  PHE A  4        6.138   0.798   5.818  0.00  0.00    +0.163 C 
ENDROOT
BRANCH   1   4
ATOM      2  N   LEU A  5        4.528   0.591   3.951  0.00  0.00    -0.302 N 
ATOM      3  H   LEU A  5        3.981   0.032   4.524  0.00  0.00    +0.150 HD
ATOM      4  C   PHE A  4        5.662   1.141   4.430  0.00  0.00    +0.234 C 
ATOM      5  O   PHE A  4        6.299   1.911   3.743  0.00  0.00    -0.274 OA
BRANCH   2   6
ATOM      6  CA  LEU A  5        4.122   0.838   2.565  0.00  0.00    +0.159 C 
BRANCH   6   9
ATOM      7  N   THR A  6        1.997   0.992   1.309  0.00  0.00    -0.299 N 
ATOM      8  H   THR A  6        2.476   1.476   0.619  0.00  0.00    +0.150 HD
ATOM      9  C   LEU A  5        2.642   0.595   2.424  0.00  0.00    +0.234 C 
ATOM     10  O   LEU A  5        2.031   0.041   3.313  0.00  0.00    -0.274 OA
BRANCH   7  11
ATOM     11  CA  THR A  6        0.573   0.693   1.141  0.00  0.00    +0.210 C 
BRANCH  11  12
ATOM     12  C   THR A  6        0.415  -0.691   0.565  0.00  0.00    +0.328 C 
ATOM     13  O   THR A  6        1.391  -1.293   0.149  0.00  0.00    -0.249 OA
BRANCH  12  14
ATOM     14  OXT THR A  6       -0.687  -1.209   0.515  0.00  0.00    -0.479 OA
ATOM     15  HXT THR A  6       -1.437  -0.746   0.835  0.00  0.00    +0.295 HD
ENDBRANCH  12  14
ENDBRANCH  11  12
BRANCH  11  17
ATOM     16  CG2 THR A  6        0.214   3.128   0.713  0.00  0.00    +0.040 C 
ATOM     17  CB  THR A  6       -0.054   1.715   0.191  0.00  0.00    +0.143 C 
BRANCH  17  18
ATOM     18  OG1 THR A  6        0.519   1.571  -1.110  0.00  0.00    -0.390 OA
ATOM     19  HG1 THR A  6        0.167   2.189  -1.765  0.00  0.00    +0.210 HD
ENDBRANCH  17  18
ENDBRANCH  11  17
ENDBRANCH   7  11
ENDBRANCH   6   9
BRANCH   6  20
ATOM     20  CB  LEU A  5        4.886  -0.106   1.634  0.00  0.00    +0.034 C 
BRANCH  20  21
ATOM     21  CG  LEU A  5        4.497   0.184   0.183  0.00  0.00    -0.015 C 
ATOM     22  CD2 LEU A  5        5.138  -0.859  -0.735  0.00  0.00    +0.007 C 
ATOM     23  CD1 LEU A  5        4.990   1.579  -0.207  0.00  0.00    +0.007 C 
ENDBRANCH  20  21
ENDBRANCH   6  20
ENDBRANCH   2   6
ENDBRANCH   1   4
BRANCH   1  24
ATOM     24  N   PHE A  4        7.382   1.518   6.100  0.00  0.00    -0.302 N 
ATOM     25  H   PHE A  4        7.580   2.345   5.632  0.00  0.00    +0.150 HD
ATOM     26  C   GLY A  3        8.251   1.033   7.009  0.00  0.00    +0.231 C 
ATOM     27  O   GLY A  3        8.002   0.000   7.593  0.00  0.00    -0.274 OA
BRANCH  26  28
ATOM     28  CA  GLY A  3        9.530   1.774   7.298  0.00  0.00    +0.200 C 
BRANCH  28  29
ATOM     29  N   GLY A  3       10.296   1.048   8.315  0.00  0.00    -0.305 N 
ATOM     30  H   GLY A  3        9.948   0.222   8.686  0.00  0.00    +0.149 HD
ATOM     31  C   SER A  2       11.484   1.527   8.734  0.00  0.00    +0.236 C 
ATOM     32  O   SER A  2       11.919   2.560   8.270  0.00  0.00    -0.274 OA
BRANCH  31  33
ATOM     33  CA  SER A  2       12.271   0.780   9.779  0.00  0.00    +0.184 C 
BRANCH  33  34
ATOM     34  N   SER A  2       13.515   1.501  10.061  0.00  0.00    -0.301 N 
ATOM     35  H   SER A  2       13.898   2.088   9.390  0.00  0.00    +0.150 HD
ATOM     36  C   TYR A  1       14.128   1.348  11.251  0.00  0.00    +0.231 C 
ATOM     37  O   TYR A  1       13.649   0.614  12.090  0.00  0.00    -0.274 OA
BRANCH  36  38
ATOM     38  CA  TYR A  1       15.408   2.089  11.541  0.00  0.00    +0.142 C 
BRANCH  38  39
ATOM     39  N   TYR A  1       15.619   2.152  12.993  0.00  0.00    -0.320 NA
ATOM     40  H1  TYR A  1       16.437   2.700  13.216  0.00  0.00    +0.119 HD
ATOM     41  H2  TYR A  1       15.684   1.227  13.390  0.00  0.00    +0.119 HD
ENDBRANCH  38  39
BRANCH  38  42
ATOM     42  CB  TYR A  1       16.581   1.356  10.886  0.00  0.00    +0.063 C 
BRANCH  42  43
ATOM     43  CG  TYR A  1       17.841   2.161  11.071  0.00  0.00    -0.045 A 
ATOM     44  CD2 TYR A  1       18.200   3.107  10.130  0.00  0.00    +0.007 A 
ATOM     45  CE2 TYR A  1       19.356   3.846  10.296  0.00  0.00    +0.045 A 
ATOM     46  CZ  TYR A  1       20.156   3.637  11.410  0.00  0.00    +0.117 A 
ATOM     47  CE1 TYR A  1       19.794   2.687  12.354  0.00  0.00    +0.045 A 
ATOM     48  CD1 TYR A  1       18.635   1.955  12.185  0.00  0.00    +0.007 A 
BRANCH  46  49
ATOM     49  OH  TYR A  1       21.294   4.362  11.576  0.00  0.00    -0.507 OA
ATOM     50  HH  TYR A  1       21.167   5.186  12.067  0.00  0.00    +0.292 HD
ENDBRANCH  46  49
ENDBRANCH  42  43
ENDBRANCH  38  42
ENDBRANCH  36  38
ENDBRANCH  33  34
BRANCH  33  51
ATOM     51  CB  SER A  2       12.600  -0.623   9.264  0.00  0.00    +0.187 C 
BRANCH  51  52
ATOM     52  OG  SER A  2       13.272  -0.523   8.007  0.00  0.00    -0.393 OA
ATOM     53  H   SER A  2       13.511  -1.377   7.621  0.00  0.00    +0.209 HD
ENDBRANCH  51  52
ENDBRANCH  33  51
ENDBRANCH  31  33
ENDBRANCH  28  29
ENDBRANCH  26  28
ENDBRANCH   1  24
BRANCH   1  54
ATOM     54  CB  PHE A  4        5.071   1.204   6.837  0.00  0.00    +0.067 C 
BRANCH  54  55
ATOM     55  CG  PHE A  4        5.492   0.751   8.212  0.00  0.00    -0.045 A 
ATOM     56  CD2 PHE A  4        5.128  -0.502   8.668  0.00  0.00    +0.004 A 
ATOM     57  CE2 PHE A  4        5.514  -0.917   9.929  0.00  0.00    +0.000 A 
ATOM     58  CZ  PHE A  4        6.264  -0.080  10.733  0.00  0.00    +0.000 A 
ATOM     59  CE1 PHE A  4        6.628   1.173  10.277  0.00  0.00    +0.000 A 
ATOM     60  CD1 PHE A  4        6.246   1.587   9.014  0.00  0.00    +0.004 A 
ENDBRANCH  54  55
ENDBRANCH   1  54
TORSDOF 24
