REMARK  Name = ZINC45368487
REMARK                            x       y       z     vdW  Elec       q    Type
REMARK                         _______ _______ _______ _____ _____    ______ ____
ROOT
ATOM      1  C   LIG    1        6.167   2.641   2.860  0.00  0.00    +0.010 C 
ATOM      2  C   LIG    1        5.698   3.757   3.797  0.00  0.00    +0.015 C 
ATOM      3  C   LIG    1        5.973   5.115   3.144  0.00  0.00    +0.105 C 
ATOM      4  N   LIG    1        7.395   5.188   2.783  0.00  0.00    -0.315 N 
ATOM      5  C   LIG    1        7.971   4.117   1.960  0.00  0.00    +0.105 C 
ATOM      6  C   LIG    1        7.674   2.769   2.626  0.00  0.00    +0.015 C 
ENDROOT
BRANCH   4   7
ATOM      7  C   LIG    1        8.177   6.246   3.210  0.00  0.00    +0.134 A 
ATOM      8  C   LIG    1        8.298   7.410   2.436  0.00  0.00    +0.059 A 
ATOM      9  C   LIG    1        7.761   7.862   1.153  0.00  0.00    +0.032 A 
ATOM     10  C   LIG    1        8.249   9.095   0.940  0.00  0.00    +0.085 A 
ATOM     11  N   LIG    1        9.055   9.463   1.987  0.00  0.00    -0.346 N 
ATOM     12  H   LIG    1        9.520  10.310   2.059  0.00  0.00    +0.167 HD
ATOM     13  C   LIG    1        9.105   8.459   2.914  0.00  0.00    +0.143 A 
ATOM     14  N   LIG    1        9.723   8.303   4.085  0.00  0.00    -0.218 NA
ATOM     15  C   LIG    1        9.581   7.194   4.777  0.00  0.00    +0.225 A 
ATOM     16  N   LIG    1        8.829   6.188   4.368  0.00  0.00    -0.220 NA
ENDBRANCH   4   7
BRANCH   1  19
ATOM     17  N   LIG    1        4.194   2.264   1.417  0.00  0.00    -0.312 N 
ATOM     18  H   LIG    1        3.761   1.839   2.174  0.00  0.00    +0.149 HD
ATOM     19  C   LIG    1        5.443   2.754   1.543  0.00  0.00    +0.202 C 
ATOM     20  O   LIG    1        5.985   3.285   0.597  0.00  0.00    -0.277 OA
BRANCH  17  21
ATOM     21  C   LIG    1        3.490   2.373   0.137  0.00  0.00    +0.141 C 
BRANCH  21  24
ATOM     22  C   LIG    1       -0.252   1.991   0.461  0.00  0.00    +0.020 A 
ATOM     23  C   LIG    1        1.003   2.559   0.348  0.00  0.00    +0.008 A 
ATOM     24  C   LIG    1        2.122   1.753   0.261  0.00  0.00    -0.012 A 
ATOM     25  C   LIG    1        1.987   0.376   0.289  0.00  0.00    +0.047 A 
ATOM     26 CL   LIG    1        3.393  -0.637   0.180  0.00  0.00    -0.083 Cl
ATOM     27  C   LIG    1        0.732  -0.193   0.402  0.00  0.00    +0.040 A 
ATOM     28  C   LIG    1       -0.388   0.615   0.488  0.00  0.00    +0.042 A 
ATOM     29 CL   LIG    1       -1.964  -0.099   0.631  0.00  0.00    -0.083 Cl
ENDBRANCH  21  24
ENDBRANCH  17  21
ENDBRANCH   1  19
BRANCH   1  30
ATOM     30  N   LIG    1        5.876   1.337   3.469  0.00  0.00    +0.388 N 
ATOM     31  H   LIG    1        4.882   1.252   3.623  0.00  0.00    -0.089 HD
ATOM     32  H   LIG    1        6.361   1.261   4.351  0.00  0.00    -0.089 HD
ATOM     33  H   LIG    1        6.184   0.601   2.852  0.00  0.00    -0.089 HD
ENDBRANCH   1  30
TORSDOF 5
