REMARK  Name = ZINC19805507
REMARK                            x       y       z     vdW  Elec       q    Type
REMARK                         _______ _______ _______ _____ _____    ______ ____
ROOT
ATOM      1  C   LIG    1       -1.269  -0.764   0.011  0.00  0.00    +0.008 A 
ATOM      2  C   LIG    1       -1.616  -1.569   1.100  0.00  0.00    -0.017 A 
ATOM      3  C   LIG    1       -2.807  -2.265   1.081  0.00  0.00    +0.047 A 
ATOM      4  C   LIG    1       -2.952  -3.057   2.365  0.00  0.00    +0.056 C 
ATOM      5  C   LIG    1       -1.534  -3.114   2.969  0.00  0.00    +0.011 C 
ATOM      6  N   LIG    1       -3.624  -2.179   0.041  0.00  0.00    -0.236 NA
ATOM      7  C   LIG    1       -3.352  -1.436  -1.017  0.00  0.00    +0.135 A 
ATOM      8  C   LIG    1       -0.878  -1.841   2.392  0.00  0.00    +0.038 C 
ATOM      9  C   LIG    1       -2.163  -0.691  -1.077  0.00  0.00    +0.099 A 
ENDROOT
BRANCH   1  16
ATOM     10  C   LIG    1       -0.017   1.391   0.010  0.00  0.00    +0.011 A 
ATOM     11  C   LIG    1        1.169   2.094   0.002  0.00  0.00    +0.039 A 
ATOM     12  C   LIG    1        2.379   1.418  -0.013  0.00  0.00    +0.123 A 
ATOM     13  F   LIG    1        3.538   2.111  -0.022  0.00  0.00    -0.205 F 
ATOM     14  C   LIG    1        2.403   0.032  -0.021  0.00  0.00    +0.039 A 
ATOM     15  C   LIG    1        1.222  -0.680  -0.013  0.00  0.00    +0.011 A 
ATOM     16  C   LIG    1        0.002  -0.004   0.002  0.00  0.00    -0.016 A 
ENDBRANCH   1  16
BRANCH   7  17
ATOM     17  N   LIG    1       -4.247  -1.389  -2.072  0.00  0.00    -0.342 N 
ATOM     18  H   LIG    1       -4.051  -0.844  -2.850  0.00  0.00    +0.144 HD
ATOM     19  H   LIG    1       -5.070  -1.900  -2.033  0.00  0.00    +0.144 HD
ENDBRANCH   7  17
BRANCH   9  20
ATOM     20  C   LIG    1       -1.864   0.122  -2.218  0.00  0.00    +0.103 C 
ATOM     21  N   LIG    1       -1.627   0.766  -3.123  0.00  0.00    -0.191 NA
ENDBRANCH   9  20
TORSDOF 3
