REMARK  Name = ZINC13831818
REMARK                            x       y       z     vdW  Elec       q    Type
REMARK                         _______ _______ _______ _____ _____    ______ ____
ROOT
ATOM      1  C   LIG    1       -0.017   1.413   0.010  0.00  0.00    +0.098 A 
ATOM      2  C   LIG    1        1.153   2.083   0.002  0.00  0.00    +0.134 A 
ATOM      3  O   LIG    1        2.321   1.431  -0.013  0.00  0.00    -0.462 OA
ATOM      4  C   LIG    1        2.389   0.093  -0.021  0.00  0.00    +0.244 A 
ATOM      5  C   LIG    1        1.265  -0.658  -0.014  0.00  0.00    +0.199 A 
ATOM      6  C   LIG    1        0.002  -0.004   0.002  0.00  0.00    +0.226 A 
ATOM      7  O   LIG    1       -1.037  -0.646   0.009  0.00  0.00    -0.284 OA
ENDROOT
BRANCH   5   8
ATOM      8  O   LIG    1        1.341  -2.017  -0.022  0.00  0.00    -0.501 OA
ATOM      9  H   LIG    1        2.245  -2.360  -0.033  0.00  0.00    +0.292 HD
ENDBRANCH   5   8
BRANCH   2  10
ATOM     10  C   LIG    1        1.145   3.590   0.010  0.00  0.00    +0.230 C 
BRANCH  10  11
ATOM     11  O   LIG    1        1.723   4.063   1.228  0.00  0.00    -0.387 OA
ATOM     12  H   LIG    1        1.751   5.027   1.303  0.00  0.00    +0.210 HD
ENDBRANCH  10  11
ENDBRANCH   2  10
TORSDOF 3
