REMARK  Name = ZINC33696845
REMARK                            x       y       z     vdW  Elec       q    Type
REMARK                         _______ _______ _______ _____ _____    ______ ____
ROOT
ATOM      1  C   LIG    1       -2.425  -0.617   1.949  0.00  0.00    +0.012 C 
ATOM      2  C   LIG    1       -2.217   0.821   1.470  0.00  0.00    -0.018 C 
ATOM      3  C   LIG    1       -0.730   1.198   1.449  0.00  0.00    +0.008 C 
ATOM      4  C   LIG    1       -0.006   0.477   0.313  0.00  0.00    +0.005 C 
ATOM      5  C   LIG    1       -0.617   0.926  -1.018  0.00  0.00    +0.000 C 
ATOM      6  C   LIG    1       -2.077   0.476  -1.052  0.00  0.00    -0.004 C 
ATOM      7  C   LIG    1       -2.707   0.853  -2.394  0.00  0.00    +0.006 C 
ATOM      8  C   LIG    1       -1.956   0.147  -3.528  0.00  0.00    +0.023 C 
ATOM      9  C   LIG    1       -0.805  -0.660  -2.930  0.00  0.00    +0.079 C 
ATOM     10  N   LIG    1       -0.077  -1.392  -3.955  0.00  0.00    -0.312 N 
ATOM     11  H   LIG    1       -0.617  -1.823  -4.811  0.00  0.00    +0.149 HD
ATOM     12  C   LIG    1        1.245  -1.580  -3.923  0.00  0.00    +0.213 C 
ATOM     13  O   LIG    1        1.746  -2.261  -4.792  0.00  0.00    -0.276 OA
ATOM     14  C   LIG    1        2.147  -0.998  -2.874  0.00  0.00    +0.096 C 
ATOM     15  C   LIG    1        1.329  -0.532  -1.665  0.00  0.00    +0.018 C 
ATOM     16  C   LIG    1        0.137   0.279  -2.177  0.00  0.00    -0.010 C 
ATOM     17  C   LIG    1        0.639   1.367  -3.128  0.00  0.00    +0.013 C 
ATOM     18  C   LIG    1       -2.927   1.863   2.375  0.00  0.00    +0.081 C 
ATOM     19  C   LIG    1       -3.387   3.002   1.448  0.00  0.00    +0.013 C 
ATOM     20  C   LIG    1       -2.980   2.595   0.013  0.00  0.00    +0.005 C 
ATOM     21  C   LIG    1       -2.864   1.061   0.094  0.00  0.00    -0.001 C 
ENDROOT
BRANCH  18  22
ATOM     22  C   LIG    1       -1.965   2.391   3.408  0.00  0.00    +0.217 C 
ATOM     23  N   LIG    1       -1.775   1.716   4.559  0.00  0.00    -0.310 N 
ATOM     24  H   LIG    1       -2.321   0.780   4.745  0.00  0.00    +0.149 HD
ATOM     25  O   LIG    1       -1.362   3.423   3.204  0.00  0.00    -0.275 OA
BRANCH  23  26
ATOM     26  C   LIG    1       -0.840   2.230   5.564  0.00  0.00    +0.026 C 
ATOM     27  C   LIG    1        0.561   2.325   4.955  0.00  0.00    +0.031 C 
ATOM     28  C   LIG    1       -0.811   1.283   6.765  0.00  0.00    +0.031 C 
ATOM     29  C   LIG    1       -1.293   3.619   6.019  0.00  0.00    +0.031 C 
ENDBRANCH  23  26
ENDBRANCH  18  22
TORSDOF 2
