REMARK  Name = ZINC14961821
REMARK                            x       y       z     vdW  Elec       q    Type
REMARK                         _______ _______ _______ _____ _____    ______ ____
ROOT
ATOM      1  C   LIG    1       -0.016   1.361   0.009  0.00  0.00    +0.001 A 
ATOM      2  C   LIG    1        1.170   2.084   0.002  0.00  0.00    +0.002 A 
ATOM      3  C   LIG    1        2.377   1.446  -0.013  0.00  0.00    +0.028 A 
ATOM      4  C   LIG    1        2.425   0.053  -0.021  0.00  0.00    +0.066 A 
ATOM      5  C   LIG    1        1.225  -0.679  -0.013  0.00  0.00    +0.030 A 
ATOM      6  C   LIG    1        1.606  -2.096  -0.025  0.00  0.00    +0.135 A 
ATOM      7  N   LIG    1        2.918  -2.152  -0.039  0.00  0.00    -0.170 NA
ATOM      8  N   LIG    1        3.450  -0.859  -0.037  0.00  0.00    -0.276 N 
ATOM      9  H   LIG    1        4.395  -0.640  -0.046  0.00  0.00    +0.189 HD
ATOM     10  C   LIG    1        0.002  -0.004   0.002  0.00  0.00    +0.012 A 
ENDROOT
BRANCH   6  11
ATOM     11  C   LIG    1        0.684  -3.248  -0.022  0.00  0.00    +0.160 A 
ATOM     12  N   LIG    1        1.065  -4.564  -0.028  0.00  0.00    -0.337 N 
ATOM     13  C   LIG    1       -0.088  -5.324  -0.021  0.00  0.00    +0.067 A 
ATOM     14  C   LIG    1       -0.343  -6.688  -0.023  0.00  0.00    +0.028 A 
ATOM     15  C   LIG    1       -1.645  -7.141  -0.016  0.00  0.00    +0.002 A 
ATOM     16  C   LIG    1       -2.702  -6.242  -0.006  0.00  0.00    +0.002 A 
ATOM     17  C   LIG    1       -2.472  -4.895  -0.004  0.00  0.00    +0.030 A 
ATOM     18  C   LIG    1       -1.159  -4.413  -0.012  0.00  0.00    +0.090 A 
ATOM     19  H   LIG    1        1.976  -4.899  -0.035  0.00  0.00    +0.167 HD
ATOM     20  N   LIG    1       -0.625  -3.167  -0.007  0.00  0.00    -0.226 NA
ENDBRANCH   6  11
TORSDOF 1
