REMARK  Name = ZINC28874690
REMARK                            x       y       z     vdW  Elec       q    Type
REMARK                         _______ _______ _______ _____ _____    ______ ____
ROOT
ATOM      1  C   LIG    1        2.540   1.334  -0.542  0.00  0.00    +0.185 C 
ATOM      2  O   LIG    1        3.510   2.054  -0.652  0.00  0.00    -0.290 OA
ENDROOT
BRANCH   1   7
ATOM      3  C   LIG    1       -2.619   3.610   0.577  0.00  0.00    +0.044 C 
ATOM      4  C   LIG    1       -1.266   3.013   0.284  0.00  0.00    -0.050 A 
ATOM      5  C   LIG    1       -1.155   1.661   0.011  0.00  0.00    +0.004 A 
ATOM      6  C   LIG    1        0.079   1.106  -0.253  0.00  0.00    +0.012 A 
ATOM      7  C   LIG    1        1.219   1.916  -0.256  0.00  0.00    +0.022 A 
ATOM      8  C   LIG    1        1.098   3.283   0.015  0.00  0.00    -0.040 A 
ATOM      9  C   LIG    1        2.320   4.164   0.015  0.00  0.00    +0.044 C 
ATOM     10  C   LIG    1       -0.143   3.821   0.283  0.00  0.00    +0.007 A 
ENDBRANCH   1   7
BRANCH   1  11
ATOM     11  C   LIG    1        2.687  -0.158  -0.701  0.00  0.00    +0.251 C 
BRANCH  11  12
ATOM     12  S   LIG    1        4.422  -0.561  -1.045  0.00  0.00    +0.004 S 
ATOM     13  O   LIG    1        5.224  -0.286   0.095  0.00  0.00    -0.169 OA
ATOM     14  O   LIG    1        4.793  -0.072  -2.327  0.00  0.00    -0.169 OA
BRANCH  12  15
ATOM     15  C   LIG    1        4.456  -2.315  -1.206  0.00  0.00    +0.089 A 
ATOM     16  C   LIG    1        4.684  -3.107  -0.096  0.00  0.00    +0.027 A 
ATOM     17  C   LIG    1        4.705  -4.483  -0.222  0.00  0.00    +0.002 A 
ATOM     18  C   LIG    1        4.509  -5.068  -1.459  0.00  0.00    +0.000 A 
ATOM     19  C   LIG    1        4.287  -4.276  -2.570  0.00  0.00    +0.002 A 
ATOM     20  C   LIG    1        4.260  -2.900  -2.444  0.00  0.00    +0.027 A 
ENDBRANCH  12  15
ENDBRANCH  11  12
ENDBRANCH   1  11
TORSDOF 4
