REMARK  Name = ZINC13800424
REMARK                            x       y       z     vdW  Elec       q    Type
REMARK                         _______ _______ _______ _____ _____    ______ ____
ROOT
ATOM      1  N   LIG    1        3.582   2.122  -0.021  0.00  0.00    -0.216 N 
ATOM      2  H   LIG    1        4.296   1.862  -0.624  0.00  0.00    +0.174 HD
ENDROOT
BRANCH   1   5
ATOM      3  C   LIG    1       -0.017   1.378   0.010  0.00  0.00    +0.004 A 
ATOM      4  C   LIG    1        1.169   2.087   0.002  0.00  0.00    +0.024 A 
ATOM      5  C   LIG    1        2.381   1.409  -0.013  0.00  0.00    +0.050 A 
ATOM      6  C   LIG    1        2.396   0.020  -0.021  0.00  0.00    +0.053 A 
ATOM      7  C   LIG    1        1.207  -0.682  -0.013  0.00  0.00    +0.107 A 
ATOM      8  C   LIG    1        0.002  -0.004   0.002  0.00  0.00    +0.028 A 
BRANCH   7   9
ATOM      9  S   LIG    1        1.225  -2.444  -0.023  0.00  0.00    +0.056 S 
ATOM     10  O   LIG    1        2.469  -2.834  -0.589  0.00  0.00    -0.153 OA
ATOM     11  O   LIG    1       -0.021  -2.860  -0.565  0.00  0.00    -0.153 OA
BRANCH   9  12
ATOM     12  N   LIG    1        1.246  -2.943   1.556  0.00  0.00    -0.204 NA
ATOM     13  H   LIG    1        1.258  -3.890   1.765  0.00  0.00    +0.144 HD
ATOM     14  H   LIG    1        1.246  -2.288   2.271  0.00  0.00    +0.144 HD
ENDBRANCH   9  12
ENDBRANCH   7   9
ENDBRANCH   1   5
BRANCH   1  15
ATOM     15  S   LIG    1        3.786   3.412   0.997  0.00  0.00    +0.072 S 
ATOM     16  O   LIG    1        2.633   4.229   0.853  0.00  0.00    -0.150 OA
ATOM     17  O   LIG    1        5.101   3.902   0.774  0.00  0.00    -0.150 OA
BRANCH  15  18
ATOM     18  C   LIG    1        3.756   2.785   2.644  0.00  0.00    +0.109 A 
ATOM     19  C   LIG    1        2.556   2.692   3.325  0.00  0.00    +0.030 A 
ATOM     20  C   LIG    1        2.529   2.201   4.615  0.00  0.00    +0.024 A 
ATOM     21  C   LIG    1        3.708   1.800   5.229  0.00  0.00    +0.025 A 
ATOM     22  C   LIG    1        4.912   1.895   4.543  0.00  0.00    +0.024 A 
ATOM     23  C   LIG    1        4.931   2.382   3.250  0.00  0.00    +0.030 A 
BRANCH  21  24
ATOM     24  N   LIG    1        3.685   1.304   6.535  0.00  0.00    -0.358 N 
ATOM     25  H   LIG    1        4.509   1.025   6.963  0.00  0.00    +0.142 HD
ATOM     26  H   LIG    1        2.844   1.238   7.013  0.00  0.00    +0.142 HD
ENDBRANCH  21  24
ENDBRANCH  15  18
ENDBRANCH   1  15
TORSDOF 6
