REMARK  Name = ZINC45319649
REMARK                            x       y       z     vdW  Elec       q    Type
REMARK                         _______ _______ _______ _____ _____    ______ ____
ROOT
ATOM      1  C   LIG    1       -1.183  -2.102  -0.103  0.00  0.00    +0.394 C 
ATOM      2  N   LIG    1       -2.137  -2.797   0.442  0.00  0.00    +0.154 NA
ENDROOT
BRANCH   1   3
ATOM      3  C   LIG    1       -0.006  -2.788  -0.683  0.00  0.00    +0.242 A 
ATOM      4  C   LIG    1        0.178  -4.241  -0.788  0.00  0.00    +0.196 A 
ATOM      5  N   LIG    1        1.332  -4.468  -1.353  0.00  0.00    -0.033 NA
ATOM      6  O   LIG    1        1.935  -3.217  -1.632  0.00  0.00    -0.240 OA
ATOM      7  N   LIG    1        1.047  -2.204  -1.194  0.00  0.00    -0.039 NA
BRANCH   4   8
ATOM      8  N   LIG    1       -0.723  -5.207  -0.360  0.00  0.00    -0.338 N 
ATOM      9  H   LIG    1       -0.514  -6.148  -0.472  0.00  0.00    +0.144 HD
ATOM     10  H   LIG    1       -1.560  -4.942   0.051  0.00  0.00    +0.144 HD
ENDBRANCH   4   8
ENDBRANCH   1   3
BRANCH   1  11
ATOM     11  N   LIG    1       -1.268  -0.719  -0.142  0.00  0.00    -0.195 N 
ATOM     12  H   LIG    1       -2.136  -0.287  -0.159  0.00  0.00    +0.299 HD
BRANCH  11  20
ATOM     13  C   LIG    1       -0.097   1.292  -0.785  0.00  0.00    +0.052 A 
ATOM     14  C   LIG    1        1.056   2.053  -0.799  0.00  0.00    +0.044 A 
ATOM     15  C   LIG    1        2.206   1.582  -0.189  0.00  0.00    +0.142 A 
ATOM     16  F   LIG    1        3.332   2.328  -0.205  0.00  0.00    -0.204 F 
ATOM     17  C   LIG    1        2.204   0.346   0.437  0.00  0.00    +0.080 A 
ATOM     18 CL   LIG    1        3.648  -0.243   1.200  0.00  0.00    -0.080 Cl
ATOM     19  C   LIG    1        1.053  -0.419   0.454  0.00  0.00    +0.071 A 
ATOM     20  C   LIG    1       -0.102   0.053  -0.158  0.00  0.00    +0.120 A 
ENDBRANCH  11  20
ENDBRANCH   1  11
BRANCH   2  21
ATOM     21  O   LIG    1       -3.319  -2.153   0.882  0.00  0.00    -0.311 OA
ATOM     22  H   LIG    1       -3.938  -2.738   1.341  0.00  0.00    +0.361 HD
ENDBRANCH   2  21
TORSDOF 5
