REMARK  Name = ZINC29133764
REMARK                            x       y       z     vdW  Elec       q    Type
REMARK                         _______ _______ _______ _____ _____    ______ ____
ROOT
ATOM      1  C   LIG    1        1.170   5.864  -0.039  0.00  0.00    +0.048 A 
ATOM      2  C   LIG    1        2.331   5.105  -0.116  0.00  0.00    +0.056 A 
ATOM      3  C   LIG    1        3.563   5.726  -0.134  0.00  0.00    +0.123 A 
ATOM      4  C   LIG    1        3.655   7.107  -0.064  0.00  0.00    +0.033 A 
ATOM      5  C   LIG    1        2.515   7.877   0.019  0.00  0.00    +0.019 A 
ATOM      6  C   LIG    1        1.259   7.264   0.032  0.00  0.00    +0.080 A 
ENDROOT
BRANCH   1   7
ATOM      7  N   LIG    1       -0.071   5.242  -0.026  0.00  0.00    -0.314 N 
ATOM      8  H   LIG    1       -0.439   4.766   0.895  0.00  0.00    +0.152 HD
BRANCH   7  13
ATOM      9  C   LIG    1       -1.207   5.872  -3.465  0.00  0.00    +0.002 A 
ATOM     10  C   LIG    1       -2.403   5.178  -3.476  0.00  0.00    +0.012 A 
ATOM     11  C   LIG    1       -2.830   4.511  -2.343  0.00  0.00    +0.057 A 
ATOM     12  C   LIG    1       -2.056   4.525  -1.199  0.00  0.00    +0.035 A 
ATOM     13  C   LIG    1       -0.854   5.221  -1.184  0.00  0.00    +0.032 A 
ATOM     14  C   LIG    1       -0.431   5.896  -2.322  0.00  0.00    +0.023 A 
BRANCH  11  15
ATOM     15  C   LIG    1       -4.137   3.762  -2.358  0.00  0.00    +0.417 C 
ATOM     16  F   LIG    1       -4.990   4.293  -1.384  0.00  0.00    -0.166 F 
ATOM     17  F   LIG    1       -3.903   2.410  -2.085  0.00  0.00    -0.166 F 
ATOM     18  F   LIG    1       -4.732   3.887  -3.618  0.00  0.00    -0.166 F 
ENDBRANCH  11  15
ENDBRANCH   7  13
ENDBRANCH   1   7
BRANCH   3  19
ATOM     19  N   LIG    1        4.796   4.911  -0.222  0.00  0.00    +0.006 N 
ATOM     20  O   LIG    1        5.886   5.455  -0.233  0.00  0.00    -0.130 OA
BRANCH  19  21
ATOM     21  O   LIG    1        4.720   3.697  -0.283  0.00  0.00    -0.396 OA
ATOM     22  H   LIG    1        3.882   3.279  -0.274  0.00  0.00    +0.329 HD
ENDBRANCH  19  21
ENDBRANCH   3  19
BRANCH   6  23
ATOM     23  C   LIG    1        0.037   8.081   0.120  0.00  0.00    +0.339 C 
ATOM     24  O   LIG    1       -1.046   7.543   0.248  0.00  0.00    -0.245 OA
BRANCH  23  25
ATOM     25  O   LIG    1        0.118   9.425   0.059  0.00  0.00    -0.477 OA
ATOM     26  H   LIG    1        0.953   9.839  -0.040  0.00  0.00    +0.295 HD
ENDBRANCH  23  25
ENDBRANCH   6  23
TORSDOF 7
