REMARK  Name = ZINC13795220
REMARK                            x       y       z     vdW  Elec       q    Type
REMARK                         _______ _______ _______ _____ _____    ______ ____
ROOT
ATOM      1  C   LIG    1        1.296  -0.376  -0.012  0.00  0.00    +0.034 A 
ATOM      2  N   LIG    1        2.046   0.735  -0.013  0.00  0.00    -0.350 N 
ATOM      3  H   LIG    1        3.073   0.759  -0.023  0.00  0.00    +0.166 HD
ATOM      4  C   LIG    1        1.268   1.782  -0.001  0.00  0.00    +0.171 A 
ATOM      5  N   LIG    1       -0.017   1.365   0.009  0.00  0.00    -0.352 N 
ATOM      6  H   LIG    1       -0.829   1.947   0.020  0.00  0.00    +0.166 HD
ATOM      7  C   LIG    1        0.002  -0.004   0.002  0.00  0.00    +0.105 A 
ENDROOT
BRANCH   1   8
ATOM      8  C   LIG    1        1.810  -1.793  -0.025  0.00  0.00    +0.067 C 
BRANCH   8   9
ATOM      9  C   LIG    1        2.751  -1.983  -1.217  0.00  0.00    +0.095 C 
BRANCH   9  11
ATOM     10  C   LIG    1        3.654  -4.471  -1.238  0.00  0.00    -0.102 C 
ATOM     11  C   LIG    1        3.253  -3.367  -1.229  0.00  0.00    -0.102 C 
BRANCH  10  13
ATOM     12  C   LIG    1        2.978  -6.823  -1.370  0.00  0.00    +0.017 C 
ATOM     13  C   LIG    1        4.156  -5.854  -1.251  0.00  0.00    +0.085 C 
ENDBRANCH  10  13
ENDBRANCH   9  11
ENDBRANCH   8   9
ENDBRANCH   1   8
TORSDOF 4
