REMARK  Name = ZINC34842286
REMARK                            x       y       z     vdW  Elec       q    Type
REMARK                         _______ _______ _______ _____ _____    ______ ____
ROOT
ATOM      1  C   LIG    1        1.393  -4.046  -1.494  0.00  0.00    +0.004 A 
ATOM      2  C   LIG    1        1.141  -5.269  -0.878  0.00  0.00    +0.024 A 
ATOM      3  C   LIG    1        1.127  -6.419  -1.673  0.00  0.00    +0.048 A 
ATOM      4  C   LIG    1        1.397  -6.314  -3.055  0.00  0.00    +0.075 A 
ATOM      5  N   LIG    1        1.591  -5.106  -3.599  0.00  0.00    -0.254 NA
ATOM      6  C   LIG    1        1.492  -7.496  -3.894  0.00  0.00    +0.029 A 
ATOM      7  C   LIG    1        0.726  -8.575  -3.853  0.00  0.00    +0.011 A 
ATOM      8  C   LIG    1       -0.390  -8.832  -2.960  0.00  0.00    -0.014 A 
ATOM      9  C   LIG    1       -1.548  -9.457  -3.454  0.00  0.00    +0.010 A 
ATOM     10  C   LIG    1       -2.584  -9.745  -2.618  0.00  0.00    +0.025 A 
ATOM     11  C   LIG    1       -2.514  -9.431  -1.260  0.00  0.00    +0.050 A 
ATOM     12  C   LIG    1       -1.394  -8.799  -0.747  0.00  0.00    +0.036 A 
ATOM     13  C   LIG    1       -0.334  -8.476  -1.595  0.00  0.00    +0.031 A 
ATOM     14  C   LIG    1        0.821  -7.726  -1.076  0.00  0.00    +0.196 A 
ATOM     15  O   LIG    1        1.506  -8.178  -0.176  0.00  0.00    -0.287 OA
ATOM     16  C   LIG    1        1.600  -4.011  -2.878  0.00  0.00    +0.120 A 
ENDROOT
BRANCH   1  20
ATOM     17  C   LIG    1        1.813   0.762  -0.196  0.00  0.00    +0.172 C 
ATOM     18  N   LIG    1        1.619  -0.688  -0.132  0.00  0.00    -0.274 N 
ATOM     19  C   LIG    1        1.665  -1.539  -1.177  0.00  0.00    +0.116 A 
ATOM     20  C   LIG    1        1.435  -2.796  -0.696  0.00  0.00    +0.021 A 
ATOM     21  C   LIG    1        1.244  -2.690   0.696  0.00  0.00    +0.143 A 
ATOM     22  N   LIG    1        1.361  -1.431   1.026  0.00  0.00    -0.179 NA
ENDBRANCH   1  20
BRANCH  11  23
ATOM     23  N   LIG    1       -3.576  -9.755  -0.417  0.00  0.00    -0.206 N 
ATOM     24  H   LIG    1       -3.905  -9.102   0.222  0.00  0.00    +0.175 HD
BRANCH  23  25
ATOM     25  S   LIG    1       -4.277 -11.252  -0.506  0.00  0.00    +0.112 S 
ATOM     26  O   LIG    1       -4.608 -11.466  -1.871  0.00  0.00    -0.138 OA
ATOM     27  O   LIG    1       -5.248 -11.309   0.531  0.00  0.00    -0.138 OA
BRANCH  25  28
ATOM     28  N   LIG    1       -3.110 -12.363  -0.122  0.00  0.00    -0.164 NA
ATOM     29  C   LIG    1       -2.185 -12.838  -1.154  0.00  0.00    +0.133 C 
BRANCH  28  30
ATOM     30  C   LIG    1       -3.003 -12.870   1.248  0.00  0.00    +0.144 C 
BRANCH  30  31
ATOM     31  C   LIG    1       -3.784 -14.179   1.370  0.00  0.00    +0.160 C 
ATOM     32  C   LIG    1       -3.660 -14.718   2.798  0.00  0.00    +0.192 C 
ATOM     33  O   LIG    1       -4.482 -15.881   2.934  0.00  0.00    -0.375 OA
ATOM     34  C   LIG    1       -5.862 -15.644   2.640  0.00  0.00    +0.188 C 
ATOM     35  C   LIG    1       -5.987 -15.105   1.212  0.00  0.00    +0.188 C 
ATOM     36  O   LIG    1       -5.164 -13.943   1.075  0.00  0.00    -0.371 OA
ENDBRANCH  30  31
ENDBRANCH  28  30
ENDBRANCH  25  28
ENDBRANCH  23  25
ENDBRANCH  11  23
TORSDOF 6
