REMARK  Name = ZINC00057237
REMARK                            x       y       z     vdW  Elec       q    Type
REMARK                         _______ _______ _______ _____ _____    ______ ____
ROOT
ATOM      1  C   LIG    1       -2.551  -4.195   0.004  0.00  0.00    -0.021 A 
ATOM      2  C   LIG    1       -2.639  -4.989  -1.075  0.00  0.00    +0.087 A 
ATOM      3  N   LIG    1       -2.585  -6.302  -0.694  0.00  0.00    -0.360 N 
ATOM      4  C   LIG    1       -2.458  -6.387   0.676  0.00  0.00    +0.048 A 
ATOM      5  C   LIG    1       -2.363  -7.455   1.562  0.00  0.00    +0.050 A 
ATOM      6  C   LIG    1       -2.225  -7.220   2.913  0.00  0.00    +0.084 A 
ATOM      7 CL   LIG    1       -2.099  -8.559   4.010  0.00  0.00    -0.080 Cl
ATOM      8  C   LIG    1       -2.196  -5.917   3.406  0.00  0.00    +0.139 A 
ATOM      9  C   LIG    1       -2.295  -4.844   2.543  0.00  0.00    +0.057 A 
ATOM     10  H   LIG    1       -2.630  -7.059  -1.298  0.00  0.00    +0.165 HD
ATOM     11  C   LIG    1       -2.425  -5.071   1.171  0.00  0.00    +0.006 A 
ENDROOT
BRANCH   8  12
ATOM     12  O   LIG    1       -2.070  -5.702   4.743  0.00  0.00    -0.494 OA
ATOM     13  C   LIG    1       -2.046  -4.343   5.182  0.00  0.00    +0.277 C 
ENDBRANCH   8  12
BRANCH   1  14
ATOM     14  C   LIG    1       -2.571  -2.688   0.012  0.00  0.00    +0.056 C 
BRANCH  14  15
ATOM     15  C   LIG    1       -1.136  -2.159   0.001  0.00  0.00    +0.109 C 
BRANCH  15  18
ATOM     16  C   LIG    1       -0.018   1.503   0.010  0.00  0.00    +0.109 C 
ATOM     17  C   LIG    1        0.002  -0.004   0.002  0.00  0.00    +0.210 C 
ATOM     18  N   LIG    1       -1.156  -0.694   0.009  0.00  0.00    -0.315 N 
ATOM     19  H   LIG    1       -2.002  -0.220   0.020  0.00  0.00    +0.149 HD
ATOM     20  O   LIG    1        1.060  -0.596  -0.011  0.00  0.00    -0.276 OA
ENDBRANCH  15  18
ENDBRANCH  14  15
ENDBRANCH   1  14
TORSDOF 4
