REMARK  Name = ZINC00005723
REMARK                            x       y       z     vdW  Elec       q    Type
REMARK                         _______ _______ _______ _____ _____    ______ ____
ROOT
ATOM      1  N   LIG    1        5.450  -1.678   1.382  0.00  0.00    -0.326 N 
ATOM      2  H   LIG    1        5.864  -1.911   0.536  0.00  0.00    +0.148 HD
ENDROOT
BRANCH   1   3
ATOM      3  C   LIG    1        6.050  -2.013   2.541  0.00  0.00    +0.136 C 
ATOM      4  S   LIG    1        5.319  -1.603   4.034  0.00  0.00    -0.019 S 
BRANCH   3   5
ATOM      5  N   LIG    1        7.226  -2.671   2.526  0.00  0.00    -0.276 N 
ATOM      6  H   LIG    1        7.641  -2.904   1.680  0.00  0.00    +0.156 HD
BRANCH   5   7
ATOM      7  C   LIG    1        7.845  -3.016   3.721  0.00  0.00    +0.164 A 
ATOM      8  N   LIG    1        7.433  -2.791   4.950  0.00  0.00    -0.233 NA
ATOM      9  C   LIG    1        8.143  -3.187   5.991  0.00  0.00    +0.120 A 
ATOM     10  C   LIG    1        9.307  -3.831   5.733  0.00  0.00    +0.068 A 
ATOM     11  S   LIG    1        9.301  -3.830   3.948  0.00  0.00    -0.061 S 
ENDBRANCH   5   7
ENDBRANCH   3   5
ENDBRANCH   1   3
BRANCH   1  12
ATOM     12  C   LIG    1        4.171  -0.963   1.399  0.00  0.00    +0.108 C 
BRANCH  12  13
ATOM     13  C   LIG    1        3.711  -0.707  -0.038  0.00  0.00    +0.054 C 
BRANCH  13  17
ATOM     14  C   LIG    1       -0.017   1.378   0.010  0.00  0.00    +0.000 A 
ATOM     15  C   LIG    1        1.171   2.086   0.002  0.00  0.00    +0.000 A 
ATOM     16  C   LIG    1        2.377   1.411  -0.013  0.00  0.00    +0.004 A 
ATOM     17  C   LIG    1        2.396   0.029  -0.020  0.00  0.00    -0.046 A 
ATOM     18  C   LIG    1        1.208  -0.679  -0.012  0.00  0.00    +0.004 A 
ATOM     19  C   LIG    1        0.002  -0.004   0.002  0.00  0.00    +0.000 A 
ENDBRANCH  13  17
ENDBRANCH  12  13
ENDBRANCH   1  12
TORSDOF 6
