REMARK  Name = ZINC29463466
REMARK                            x       y       z     vdW  Elec       q    Type
REMARK                         _______ _______ _______ _____ _____    ______ ____
ROOT
ATOM      1  C   LIG    1       -0.272  -0.810   0.257  0.00  0.00    +0.225 A 
ATOM      2  N   LIG    1       -0.502   0.489   0.303  0.00  0.00    -0.219 NA
ATOM      3  C   LIG    1        0.496   1.366   0.270  0.00  0.00    +0.147 A 
ATOM      4  C   LIG    1        1.812   0.880   0.184  0.00  0.00    +0.147 A 
ATOM      5  C   LIG    1        2.003  -0.511   0.137  0.00  0.00    +0.166 A 
ATOM      6  N   LIG    1        3.359  -0.703   0.056  0.00  0.00    -0.311 N 
ATOM      7  C   LIG    1        3.947   0.526   0.055  0.00  0.00    +0.202 A 
ATOM      8  N   LIG    1        3.038   1.454   0.130  0.00  0.00    -0.231 NA
ATOM      9  N   LIG    1        0.943  -1.311   0.176  0.00  0.00    -0.216 NA
ENDROOT
BRANCH   3  10
ATOM     10  N   LIG    1        0.245   2.726   0.318  0.00  0.00    -0.341 N 
ATOM     11  H   LIG    1       -0.790   3.093   0.385  0.00  0.00    +0.144 HD
ATOM     12  H   LIG    1        1.081   3.441   0.290  0.00  0.00    +0.144 HD
ENDBRANCH   3  10
BRANCH   6  13
ATOM     13  C   LIG    1        4.049  -1.994  -0.016  0.00  0.00    +0.152 C 
BRANCH  13  14
ATOM     14  C   LIG    1        4.097  -2.458  -1.449  0.00  0.00    -0.007 C 
ATOM     15  C   LIG    1        5.243  -2.787  -1.993  0.00  0.00    -0.002 C 
BRANCH  15  16
ATOM     16  C   LIG    1        6.487  -2.853  -1.146  0.00  0.00    +0.183 C 
BRANCH  16  17
ATOM     17  O   LIG    1        7.225  -4.032  -1.473  0.00  0.00    -0.391 OA
ATOM     18  H   LIG    1        8.169  -4.252  -0.955  0.00  0.00    +0.210 HD
ENDBRANCH  16  17
ENDBRANCH  15  16
ENDBRANCH  13  14
ENDBRANCH   6  13
TORSDOF 5
