REMARK  Name = ZINC19367174
REMARK                            x       y       z     vdW  Elec       q    Type
REMARK                         _______ _______ _______ _____ _____    ______ ____
ROOT
ATOM      1  C   LIG    1        3.711  -0.707  -0.038  0.00  0.00    +0.178 C 
ENDROOT
BRANCH   1   5
ATOM      2  C   LIG    1       -0.017   1.378   0.010  0.00  0.00    +0.000 A 
ATOM      3  C   LIG    1        1.171   2.086   0.002  0.00  0.00    +0.000 A 
ATOM      4  C   LIG    1        2.377   1.411  -0.013  0.00  0.00    +0.006 A 
ATOM      5  C   LIG    1        2.396   0.029  -0.020  0.00  0.00    -0.015 A 
ATOM      6  C   LIG    1        1.208  -0.679  -0.012  0.00  0.00    +0.006 A 
ATOM      7  C   LIG    1        0.002  -0.004   0.002  0.00  0.00    +0.000 A 
ENDBRANCH   1   5
BRANCH   1   8
ATOM      8  C   LIG    1        4.044  -1.175   1.356  0.00  0.00    -0.015 A 
ATOM      9  C   LIG    1        3.537  -2.373   1.822  0.00  0.00    +0.006 A 
ATOM     10  C   LIG    1        3.842  -2.802   3.100  0.00  0.00    +0.000 A 
ATOM     11  C   LIG    1        4.654  -2.033   3.912  0.00  0.00    +0.000 A 
ATOM     12  C   LIG    1        5.162  -0.835   3.446  0.00  0.00    +0.000 A 
ATOM     13  C   LIG    1        4.860  -0.408   2.166  0.00  0.00    +0.006 A 
ENDBRANCH   1   8
BRANCH   1  14
ATOM     14  O   LIG    1        3.614  -1.836  -0.908  0.00  0.00    -0.366 OA
BRANCH  14  15
ATOM     15  C   LIG    1        4.848  -2.196  -1.533  0.00  0.00    +0.176 C 
BRANCH  15  16
ATOM     16  C   LIG    1        4.626  -3.410  -2.437  0.00  0.00    +0.112 C 
BRANCH  16  17
ATOM     17  N   LIG    1        3.725  -3.043  -3.538  0.00  0.00    -0.304 NA
ATOM     18  C   LIG    1        4.357  -2.060  -4.430  0.00  0.00    +0.065 C 
ATOM     19  C   LIG    1        3.368  -1.660  -5.526  0.00  0.00    -0.067 C 
ATOM     20  N   LIG    1        2.971  -2.853  -6.287  0.00  0.00    +0.381 N 
ATOM     21  H   LIG    1        3.789  -3.277  -6.697  0.00  0.00    -0.086 HD
ATOM     22  H   LIG    1        2.328  -2.587  -7.017  0.00  0.00    -0.086 HD
ATOM     23  C   LIG    1        2.319  -3.814  -5.388  0.00  0.00    -0.067 C 
ATOM     24  C   LIG    1        3.300  -4.232  -4.290  0.00  0.00    +0.065 C 
ENDBRANCH  16  17
ENDBRANCH  15  16
ENDBRANCH  14  15
ENDBRANCH   1  14
TORSDOF 6
