REMARK  Name = ZINC21992895
REMARK                            x       y       z     vdW  Elec       q    Type
REMARK                         _______ _______ _______ _____ _____    ______ ____
ROOT
ATOM      1  C   LIG    1        3.324   4.125   0.992  0.00  0.00    +0.181 A 
ATOM      2  C   LIG    1        2.545   3.798  -0.077  0.00  0.00    +0.214 A 
ATOM      3  C   LIG    1        2.970   4.150  -1.384  0.00  0.00    +0.238 A 
ATOM      4  C   LIG    1        4.255   4.857  -1.511  0.00  0.00    +0.109 A 
ATOM      5  C   LIG    1        4.751   5.243  -2.763  0.00  0.00    +0.135 A 
ATOM      6  C   LIG    1        5.962   5.906  -2.840  0.00  0.00    +0.091 A 
ATOM      7  C   LIG    1        6.681   6.185  -1.683  0.00  0.00    +0.124 A 
ATOM      8  C   LIG    1        6.196   5.806  -0.441  0.00  0.00    +0.092 A 
ATOM      9  C   LIG    1        4.983   5.141  -0.343  0.00  0.00    +0.147 A 
ATOM     10  O   LIG    1        2.297   3.877  -2.365  0.00  0.00    -0.283 OA
ATOM     11  O   LIG    1        4.498   4.767   0.859  0.00  0.00    -0.451 OA
ENDROOT
BRANCH   1  17
ATOM     12  C   LIG    1        2.465   2.446   2.615  0.00  0.00    +0.015 A 
ATOM     13  C   LIG    1        2.042   2.102   3.882  0.00  0.00    +0.050 A 
ATOM     14  C   LIG    1        2.001   3.058   4.886  0.00  0.00    +0.158 A 
ATOM     15  C   LIG    1        2.394   4.370   4.622  0.00  0.00    +0.159 A 
ATOM     16  C   LIG    1        2.825   4.720   3.357  0.00  0.00    +0.060 A 
ATOM     17  C   LIG    1        2.865   3.757   2.344  0.00  0.00    +0.025 A 
BRANCH  14  18
ATOM     18  O   LIG    1        1.578   2.716   6.131  0.00  0.00    -0.503 OA
ATOM     19  H   LIG    1        1.546   3.472   6.929  0.00  0.00    +0.292 HD
ENDBRANCH  14  18
BRANCH  15  20
ATOM     20  O   LIG    1        2.353   5.304   5.609  0.00  0.00    -0.503 OA
ATOM     21  H   LIG    1        2.663   6.338   5.401  0.00  0.00    +0.292 HD
ENDBRANCH  15  20
ENDBRANCH   1  17
BRANCH   5  22
ATOM     22  O   LIG    1        4.049   4.968  -3.891  0.00  0.00    -0.506 OA
ATOM     23  H   LIG    1        4.442   5.274  -4.872  0.00  0.00    +0.292 HD
ENDBRANCH   5  22
BRANCH   7  24
ATOM     24  O   LIG    1        7.869   6.837  -1.770  0.00  0.00    -0.507 OA
ATOM     25  H   LIG    1        8.442   7.061  -0.859  0.00  0.00    +0.292 HD
ENDBRANCH   7  24
BRANCH   2  26
ATOM     26  O   LIG    1        1.366   3.144   0.108  0.00  0.00    -0.453 OA
BRANCH  26  27
ATOM     27  C   LIG    1        0.223   3.942   0.419  0.00  0.00    +0.340 C 
ATOM     28  C   LIG    1       -0.907   3.042   0.926  0.00  0.00    +0.214 C 
ATOM     29  C   LIG    1       -1.309   2.067  -0.186  0.00  0.00    +0.180 C 
ATOM     30  C   LIG    1       -1.715   2.866  -1.428  0.00  0.00    +0.177 C 
ATOM     31  C   LIG    1       -0.554   3.774  -1.843  0.00  0.00    +0.179 C 
ATOM     32  O   LIG    1       -0.210   4.633  -0.754  0.00  0.00    -0.331 OA
BRANCH  28  33
ATOM     33  O   LIG    1       -0.458   2.308   2.066  0.00  0.00    -0.383 OA
ATOM     34  H   LIG    1       -1.137   1.604   2.570  0.00  0.00    +0.210 HD
ENDBRANCH  28  33
BRANCH  29  35
ATOM     35  O   LIG    1       -2.412   1.272   0.252  0.00  0.00    -0.386 OA
ATOM     36  H   LIG    1       -2.841   0.511  -0.416  0.00  0.00    +0.210 HD
ENDBRANCH  29  35
BRANCH  30  37
ATOM     37  O   LIG    1       -2.024   1.968  -2.495  0.00  0.00    -0.386 OA
ATOM     38  H   LIG    1       -2.337   2.362  -3.473  0.00  0.00    +0.210 HD
ENDBRANCH  30  37
BRANCH  31  39
ATOM     39  C   LIG    1       -0.973   4.619  -3.048  0.00  0.00    +0.190 C 
BRANCH  39  40
ATOM     40  O   LIG    1        0.145   5.383  -3.505  0.00  0.00    -0.392 OA
ATOM     41  H   LIG    1        0.035   6.056  -4.369  0.00  0.00    +0.210 HD
ENDBRANCH  39  40
ENDBRANCH  31  39
ENDBRANCH  26  27
ENDBRANCH   2  26
TORSDOF 12
