REMARK  Name = ZINC38812326
REMARK                            x       y       z     vdW  Elec       q    Type
REMARK                         _______ _______ _______ _____ _____    ______ ____
ROOT
ATOM      1  C   LIG    1        6.570  -5.308  -0.116  0.00  0.00    -0.005 A 
ATOM      2  C   LIG    1        5.477  -6.174  -0.227  0.00  0.00    +0.010 A 
ATOM      3  C   LIG    1        5.681  -7.516  -0.377  0.00  0.00    +0.010 A 
ATOM      4  C   LIG    1        6.983  -8.025  -0.420  0.00  0.00    -0.005 A 
ATOM      5  C   LIG    1        8.077  -7.159  -0.310  0.00  0.00    +0.010 A 
ATOM      6  C   LIG    1        7.873  -5.816  -0.165  0.00  0.00    +0.010 A 
ENDROOT
BRANCH   1   8
ATOM      7  N   LIG    1        5.141  -3.389   0.091  0.00  0.00    -0.190 NA
ATOM      8  C   LIG    1        6.350  -3.861   0.045  0.00  0.00    +0.138 C 
BRANCH   7   9
ATOM      9  N   LIG    1        4.931  -2.012   0.244  0.00  0.00    -0.237 N 
ATOM     10  H   LIG    1        5.690  -1.411   0.317  0.00  0.00    +0.174 HD
BRANCH   9  14
ATOM     11  C   LIG    1        1.053  -0.500   0.388  0.00  0.00    +0.001 A 
ATOM     12  C   LIG    1        2.117   0.374   0.375  0.00  0.00    +0.017 A 
ATOM     13  C   LIG    1        3.425  -0.119   0.327  0.00  0.00    +0.081 A 
ATOM     14  C   LIG    1        3.641  -1.508   0.293  0.00  0.00    +0.062 A 
ATOM     15  C   LIG    1        2.553  -2.373   0.307  0.00  0.00    +0.025 A 
ATOM     16  C   LIG    1        1.270  -1.869   0.354  0.00  0.00    +0.002 A 
BRANCH  13  17
ATOM     17  C   LIG    1        4.566   0.808   0.311  0.00  0.00    +0.339 C 
ATOM     18  O   LIG    1        4.373   2.014   0.229  0.00  0.00    -0.245 OA
BRANCH  17  19
ATOM     19  O   LIG    1        5.708   0.374   0.381  0.00  0.00    -0.477 OA
ATOM     20  H   LIG    1        5.855  -0.549   0.444  0.00  0.00    +0.295 HD
ENDBRANCH  17  19
ENDBRANCH  13  17
ENDBRANCH   9  14
ENDBRANCH   7   9
ENDBRANCH   1   8
BRANCH   4  21
ATOM     21  C   LIG    1        7.203  -9.472  -0.581  0.00  0.00    +0.138 C 
ATOM     22  N   LIG    1        8.413  -9.944  -0.621  0.00  0.00    -0.190 NA
BRANCH  22  23
ATOM     23  N   LIG    1        8.622 -11.321  -0.774  0.00  0.00    -0.237 N 
ATOM     24  H   LIG    1        7.864 -11.921  -0.850  0.00  0.00    +0.174 HD
BRANCH  23  25
ATOM     25  C   LIG    1        9.912 -11.825  -0.817  0.00  0.00    +0.062 A 
ATOM     26  C   LIG    1       10.131 -13.188  -1.088  0.00  0.00    +0.081 A 
ATOM     27  C   LIG    1       11.438 -13.682  -1.128  0.00  0.00    +0.017 A 
ATOM     28  C   LIG    1       12.500 -12.835  -0.903  0.00  0.00    +0.001 A 
ATOM     29  C   LIG    1       12.282 -11.492  -0.636  0.00  0.00    +0.002 A 
ATOM     30  C   LIG    1       10.999 -10.986  -0.598  0.00  0.00    +0.025 A 
BRANCH  26  31
ATOM     31  C   LIG    1        8.992 -14.087  -1.327  0.00  0.00    +0.339 C 
ATOM     32  O   LIG    1        8.947 -15.178  -0.773  0.00  0.00    -0.245 OA
BRANCH  31  33
ATOM     33  O   LIG    1        8.089 -13.745  -2.079  0.00  0.00    -0.477 OA
ATOM     34  H   LIG    1        8.124 -12.910  -2.503  0.00  0.00    +0.295 HD
ENDBRANCH  31  33
ENDBRANCH  26  31
ENDBRANCH  23  25
ENDBRANCH  22  23
ENDBRANCH   4  21
TORSDOF 10
