REMARK  Name = ZINC22309483
REMARK                            x       y       z     vdW  Elec       q    Type
REMARK                         _______ _______ _______ _____ _____    ______ ____
ROOT
ATOM      1  C   LIG    1       -1.206   3.484   0.032  0.00  0.00    +0.021 A 
ATOM      2  C   LIG    1       -1.225   2.122   0.031  0.00  0.00    +0.012 A 
ATOM      3  C   LIG    1       -0.017   1.411   0.010  0.00  0.00    +0.014 A 
ATOM      4  C   LIG    1        1.212   2.117   0.002  0.00  0.00    +0.074 A 
ATOM      5  N   LIG    1        2.367   1.449  -0.013  0.00  0.00    -0.240 NA
ATOM      6  CA  LIG    1        2.405   0.128  -0.020  0.00  0.00    +0.149 A 
ATOM      7  C   LIG    1        1.236  -0.638  -0.013  0.00  0.00    +0.050 A 
ATOM      8  C   LIG    1        1.192   3.524   0.010  0.00  0.00    +0.048 A 
ATOM      9  C   LIG    1        0.002  -0.004   0.002  0.00  0.00    +0.016 A 
ATOM     10  C   LIG    1        0.000   4.183   0.025  0.00  0.00    +0.043 A 
ATOM     11 CL   LIG    1       -0.017   5.918   0.033  0.00  0.00    -0.083 Cl
ENDROOT
BRANCH   6  12
ATOM     12  C   LIG    1        3.718  -0.557  -0.036  0.00  0.00    +0.355 C 
ATOM     13  O   LIG    1        3.770  -1.770  -0.043  0.00  0.00    -0.243 OA
BRANCH  12  14
ATOM     14  OXT LIG    1        4.855   0.165  -0.043  0.00  0.00    -0.476 OA
ATOM     15  HXT LIG    1        4.815   1.101  -0.038  0.00  0.00    +0.295 HD
ENDBRANCH  12  14
ENDBRANCH   6  12
BRANCH   9  16
ATOM     16  S   LIG    1       -1.496  -0.932   0.011  0.00  0.00    -0.142 S 
ATOM     17  H   LIG    1       -2.556  -0.081   0.025  0.00  0.00    +0.107 HD
ENDBRANCH   9  16
TORSDOF 3
