REMARK  Name = ZINC35636067
REMARK                            x       y       z     vdW  Elec       q    Type
REMARK                         _______ _______ _______ _____ _____    ______ ____
ROOT
ATOM      1  C   LIG    1        3.674   2.180  -0.019  0.00  0.00    +0.184 A 
ATOM      2  N   LIG    1        3.818   3.486  -0.100  0.00  0.00    -0.108 NA
ATOM      3  N   LIG    1        5.063   3.803  -0.082  0.00  0.00    -0.023 NA
ATOM      4  N   LIG    1        5.794   2.745   0.010  0.00  0.00    -0.043 NA
ATOM      5  N   LIG    1        4.918   1.647   0.060  0.00  0.00    -0.221 N 
ENDROOT
BRANCH   1   8
ATOM      6  C   LIG    1        0.966  -0.232   0.961  0.00  0.00    +0.002 A 
ATOM      7  C   LIG    1        2.160   0.459   0.957  0.00  0.00    +0.013 A 
ATOM      8  C   LIG    1        2.395   1.435  -0.011  0.00  0.00    +0.040 A 
ATOM      9  C   LIG    1        1.419   1.707  -0.971  0.00  0.00    +0.070 A 
ATOM     10 CL   LIG    1        1.702   2.921  -2.180  0.00  0.00    -0.081 Cl
ATOM     11  C   LIG    1        0.227   1.008  -0.957  0.00  0.00    +0.060 A 
ATOM     12 CL   LIG    1       -0.989   1.344  -2.149  0.00  0.00    -0.082 Cl
ATOM     13  C   LIG    1        0.001   0.041   0.008  0.00  0.00    +0.021 A 
ENDBRANCH   1   8
BRANCH   5  14
ATOM     14  C   LIG    1        5.273   0.230   0.171  0.00  0.00    +0.184 C 
BRANCH  14  15
ATOM     15  C   LIG    1        5.568  -0.323  -1.200  0.00  0.00    -0.008 A 
ATOM     16  C   LIG    1        4.540  -0.790  -2.005  0.00  0.00    +0.008 A 
ATOM     17  C   LIG    1        4.858  -1.290  -3.258  0.00  0.00    +0.020 A 
ATOM     18  C   LIG    1        6.181  -1.306  -3.661  0.00  0.00    +0.111 A 
ATOM     19  N   LIG    1        7.133  -0.855  -2.868  0.00  0.00    -0.263 NA
ATOM     20  C   LIG    1        6.866  -0.366  -1.672  0.00  0.00    +0.116 A 
ENDBRANCH  14  15
ENDBRANCH   5  14
TORSDOF 3
