REMARK  Name = ZINC14965294
REMARK                            x       y       z     vdW  Elec       q    Type
REMARK                         _______ _______ _______ _____ _____    ______ ____
ROOT
ATOM      1  C   LIG    1       -6.617   1.489   0.539  0.00  0.00    +0.131 A 
ATOM      2  C   LIG    1       -5.939   2.703   0.502  0.00  0.00    +0.050 A 
ATOM      3  C   LIG    1       -4.566   2.732   0.368  0.00  0.00    +0.052 A 
ATOM      4  C   LIG    1       -3.855   1.547   0.268  0.00  0.00    +0.157 A 
ATOM      5  C   LIG    1       -4.532   0.319   0.304  0.00  0.00    +0.115 A 
ATOM      6  N   LIG    1       -3.586  -0.652   0.181  0.00  0.00    -0.195 NA
ATOM      7  C   LIG    1       -2.411  -0.084   0.086  0.00  0.00    +0.293 A 
ATOM      8  O   LIG    1       -2.540   1.254   0.132  0.00  0.00    -0.424 OA
ATOM      9  C   LIG    1       -5.921   0.298   0.440  0.00  0.00    +0.078 A 
ENDROOT
BRANCH   7  10
ATOM     10  N   LIG    1       -1.217  -0.757  -0.049  0.00  0.00    -0.269 N 
ATOM     11  H   LIG    1       -1.214  -1.719  -0.174  0.00  0.00    +0.157 HD
BRANCH  10  12
ATOM     12  C   LIG    1       -0.009  -0.054  -0.005  0.00  0.00    +0.038 A 
ATOM     13  C   LIG    1        0.073   1.145   0.690  0.00  0.00    +0.025 A 
ATOM     14  C   LIG    1        1.266   1.840   0.733  0.00  0.00    +0.025 A 
ATOM     15  C   LIG    1        2.382   1.343   0.085  0.00  0.00    +0.083 A 
ATOM     16 CL   LIG    1        3.880   2.219   0.142  0.00  0.00    -0.080 Cl
ATOM     17  C   LIG    1        2.306   0.144  -0.611  0.00  0.00    +0.140 A 
ATOM     18  C   LIG    1        1.110  -0.555  -0.657  0.00  0.00    +0.070 A 
BRANCH  17  19
ATOM     19  O   LIG    1        3.403  -0.343  -1.249  0.00  0.00    -0.492 OA
BRANCH  19  20
ATOM     20  C   LIG    1        3.252  -1.581  -1.946  0.00  0.00    +0.214 C 
BRANCH  20  21
ATOM     21  C   LIG    1        4.583  -1.967  -2.595  0.00  0.00    -0.031 C 
ATOM     22  N   LIG    1        5.566  -2.363  -1.590  0.00  0.00    +0.382 N 
ATOM     23  H   LIG    1        5.112  -2.915  -0.853  0.00  0.00    -0.082 HD
ATOM     24  C   LIG    1        6.212  -1.160  -0.975  0.00  0.00    -0.096 C 
ATOM     25  C   LIG    1        6.565  -3.181  -2.287  0.00  0.00    -0.079 C 
ATOM     26  C   LIG    1        5.717  -4.035  -3.255  0.00  0.00    -0.020 C 
ATOM     27  C   LIG    1        4.413  -3.236  -3.457  0.00  0.00    -0.014 C 
ENDBRANCH  20  21
ENDBRANCH  19  20
ENDBRANCH  17  19
ENDBRANCH  10  12
ENDBRANCH   7  10
BRANCH   1  28
ATOM     28  O   LIG    1       -7.970   1.473   0.672  0.00  0.00    -0.456 OA
BRANCH  28  31
ATOM     29  C   LIG    1      -10.349   0.863   3.369  0.00  0.00    +0.129 A 
ATOM     30  C   LIG    1       -9.859   1.211   2.114  0.00  0.00    +0.079 A 
ATOM     31  C   LIG    1       -8.487   1.147   1.884  0.00  0.00    +0.132 A 
ATOM     32  C   LIG    1       -7.659   0.747   2.929  0.00  0.00    +0.066 A 
ATOM     33  C   LIG    1       -8.220   0.422   4.151  0.00  0.00    +0.115 A 
ATOM     34  N   LIG    1       -9.521   0.487   4.337  0.00  0.00    -0.250 NA
BRANCH  29  38
ATOM     35  C   LIG    1      -13.728   0.645   5.102  0.00  0.00    +0.128 C 
ATOM     36  N   LIG    1      -12.287   0.589   4.845  0.00  0.00    -0.313 N 
ATOM     37  H   LIG    1      -11.679   0.315   5.548  0.00  0.00    +0.149 HD
ATOM     38  C   LIG    1      -11.806   0.919   3.629  0.00  0.00    +0.262 C 
ATOM     39  O   LIG    1      -12.569   1.263   2.748  0.00  0.00    -0.269 OA
ENDBRANCH  29  38
ENDBRANCH  28  31
ENDBRANCH   1  28
TORSDOF 8
