REMARK  Name = ZINC13808171
REMARK                            x       y       z     vdW  Elec       q    Type
REMARK                         _______ _______ _______ _____ _____    ______ ____
ROOT
ATOM      1  C   LIG    1       -0.929  -0.545  -1.020  0.00  0.00    +0.037 A 
ATOM      2  C   LIG    1        0.363  -0.690  -1.481  0.00  0.00    +0.024 A 
ATOM      3  C   LIG    1        0.620  -1.338  -2.685  0.00  0.00    +0.002 A 
ATOM      4  C   LIG    1       -0.393  -1.846  -3.440  0.00  0.00    +0.010 A 
ATOM      5  C   LIG    1       -1.724  -1.720  -3.006  0.00  0.00    +0.010 A 
ATOM      6  C   LIG    1       -2.789  -2.234  -3.765  0.00  0.00    +0.116 A 
ATOM      7  C   LIG    1       -4.065  -2.109  -3.307  0.00  0.00    +0.029 A 
ATOM      8  C   LIG    1       -4.334  -1.461  -2.103  0.00  0.00    +0.003 A 
ATOM      9  C   LIG    1       -3.327  -0.946  -1.345  0.00  0.00    +0.010 A 
ATOM     10  C   LIG    1       -1.998  -1.067  -1.779  0.00  0.00    +0.005 A 
ENDROOT
BRANCH   1  12
ATOM     11  C   LIG    1       -1.407   1.552   0.206  0.00  0.00    +0.129 C 
ATOM     12  N   LIG    1       -1.175   0.106   0.187  0.00  0.00    -0.336 N 
ATOM     13  C   LIG    1       -1.203  -0.657   1.438  0.00  0.00    +0.129 C 
ENDBRANCH   1  12
BRANCH   6  14
ATOM     14  S   LIG    1       -2.473  -3.056  -5.292  0.00  0.00    +0.086 S 
ATOM     15  O   LIG    1       -1.630  -2.198  -6.048  0.00  0.00    -0.151 OA
ATOM     16  O   LIG    1       -3.730  -3.509  -5.777  0.00  0.00    -0.151 OA
BRANCH  14  17
ATOM     17  N   LIG    1       -1.584  -4.409  -4.944  0.00  0.00    -0.050 NA
ATOM     18  H   LIG    1       -0.710  -4.532  -5.348  0.00  0.00    +0.191 HD
BRANCH  17  19
ATOM     19  N   LIG    1       -2.094  -5.376  -4.068  0.00  0.00    -0.182 N 
ATOM     20  H   LIG    1       -2.373  -5.122  -3.175  0.00  0.00    +0.285 HD
BRANCH  19  21
ATOM     21  C   LIG    1       -2.197  -6.686  -4.475  0.00  0.00    +0.394 C 
ATOM     22  N   LIG    1       -1.822  -7.027  -5.676  0.00  0.00    -0.128 NA
ATOM     23  H   LIG    1       -1.895  -7.950  -5.963  0.00  0.00    +0.306 HD
BRANCH  21  24
ATOM     24  N   LIG    1       -2.697  -7.635  -3.615  0.00  0.00    -0.288 N 
ATOM     25  H   LIG    1       -2.771  -8.559  -3.902  0.00  0.00    +0.255 HD
ATOM     26  H   LIG    1       -2.977  -7.381  -2.722  0.00  0.00    +0.255 HD
ENDBRANCH  21  24
ENDBRANCH  19  21
ENDBRANCH  17  19
ENDBRANCH  14  17
ENDBRANCH   6  14
TORSDOF 6
