REMARK  Name = ZINC13858911
REMARK                            x       y       z     vdW  Elec       q    Type
REMARK                         _______ _______ _______ _____ _____    ______ ____
ROOT
ATOM      1  C   LIG    1       -0.102   1.419  -0.253  0.00  0.00    +0.066 A 
ATOM      2  C   LIG    1        1.109   2.086  -0.062  0.00  0.00    +0.145 A 
ATOM      3  C   LIG    1        2.288   1.353   0.083  0.00  0.00    +0.066 A 
ATOM      4  C   LIG    1        2.249  -0.027   0.037  0.00  0.00    +0.046 A 
ATOM      5 CL   LIG    1        3.714  -0.941   0.217  0.00  0.00    -0.083 Cl
ATOM      6  C   LIG    1        1.045  -0.682  -0.153  0.00  0.00    +0.040 A 
ATOM      7  C   LIG    1       -0.128   0.040  -0.297  0.00  0.00    +0.046 A 
ATOM      8 CL   LIG    1       -1.633  -0.792  -0.533  0.00  0.00    -0.083 Cl
ENDROOT
BRANCH   2   9
ATOM      9  N   LIG    1        1.141   3.455  -0.018  0.00  0.00    -0.073 NA
ATOM     10  C   LIG    1        0.370   4.103   0.824  0.00  0.00    +0.382 C 
BRANCH  10  11
ATOM     11  N   LIG    1        0.315   5.474   0.789  0.00  0.00    -0.289 N 
ATOM     12  H   LIG    1       -0.255   5.952   1.411  0.00  0.00    +0.255 HD
ATOM     13  H   LIG    1        0.846   5.964   0.141  0.00  0.00    +0.255 HD
ENDBRANCH  10  11
BRANCH  10  14
ATOM     14  N   LIG    1       -0.381   3.410   1.739  0.00  0.00    -0.289 N 
ATOM     15  H   LIG    1       -1.026   3.878   2.292  0.00  0.00    +0.255 HD
ATOM     16  H   LIG    1       -0.266   2.451   1.835  0.00  0.00    +0.255 HD
ENDBRANCH  10  14
ENDBRANCH   2   9
TORSDOF 3
