REMARK  Name = ZINC53178300
REMARK                            x       y       z     vdW  Elec       q    Type
REMARK                         _______ _______ _______ _____ _____    ______ ____
ROOT
ATOM      1  C   LIG    1        0.739   0.889   3.354  0.00  0.00    +0.001 A 
ATOM      2  C   LIG    1        2.024   1.191   3.800  0.00  0.00    +0.002 A 
ATOM      3  C   LIG    1        3.115   0.576   3.267  0.00  0.00    +0.028 A 
ATOM      4  C   LIG    1        2.949  -0.381   2.249  0.00  0.00    +0.072 A 
ATOM      5  C   LIG    1        1.640  -0.686   1.797  0.00  0.00    +0.000 A 
ATOM      6  C   LIG    1        1.470  -1.645   0.777  0.00  0.00    +0.012 A 
ATOM      7  C   LIG    1        2.579  -2.244   0.262  0.00  0.00    +0.028 A 
ATOM      8  C   LIG    1        3.853  -1.899   0.752  0.00  0.00    +0.065 A 
ATOM      9  N   LIG    1        4.002  -0.999   1.710  0.00  0.00    -0.247 NA
ATOM     10  C   LIG    1        0.539  -0.031   2.370  0.00  0.00    +0.010 A 
ENDROOT
BRANCH   8  11
ATOM     11  C   LIG    1        5.043  -2.554   0.188  0.00  0.00    +0.028 C 
ATOM     12  C   LIG    1        6.111  -1.818  -0.167  0.00  0.00    +0.013 C 
BRANCH  12  13
ATOM     13  C   LIG    1        6.027  -0.349  -0.159  0.00  0.00    +0.016 A 
ATOM     14  C   LIG    1        4.850   0.291  -0.558  0.00  0.00    +0.011 A 
ATOM     15  C   LIG    1        4.779   1.667  -0.547  0.00  0.00    +0.001 A 
ATOM     16  C   LIG    1        5.869   2.420  -0.143  0.00  0.00    +0.004 A 
ATOM     17  C   LIG    1        7.038   1.801   0.253  0.00  0.00    +0.046 A 
ATOM     18  C   LIG    1        7.127   0.418   0.255  0.00  0.00    +0.124 A 
BRANCH  18  19
ATOM     19  O   LIG    1        8.274  -0.192   0.649  0.00  0.00    -0.506 OA
ATOM     20  H   LIG    1        8.904  -0.346  -0.068  0.00  0.00    +0.292 HD
ENDBRANCH  18  19
ENDBRANCH  12  13
ENDBRANCH   8  11
TORSDOF 3
