REMARK  Name = ZINC26972070
REMARK                            x       y       z     vdW  Elec       q    Type
REMARK                         _______ _______ _______ _____ _____    ______ ____
ROOT
ATOM      1  C   LIG    1        1.081   2.474   4.389  0.00  0.00    +0.302 A 
ATOM      2  N   LIG    1        1.378   3.658   4.856  0.00  0.00    -0.176 NA
ATOM      3  C   LIG    1        1.037   4.785   4.211  0.00  0.00    +0.172 A 
ATOM      4  C   LIG    1        0.342   4.706   2.999  0.00  0.00    +0.081 A 
ATOM      5  C   LIG    1        0.005   3.372   2.468  0.00  0.00    +0.145 A 
ATOM      6  N   LIG    1       -0.628   3.039   1.376  0.00  0.00    -0.261 NA
ATOM      7  C   LIG    1       -0.729   1.579   1.267  0.00  0.00    +0.132 C 
ATOM      8  C   LIG    1       -0.019   1.058   2.530  0.00  0.00    +0.155 C 
ATOM      9  C   LIG    1        0.120   6.020   2.553  0.00  0.00    +0.148 A 
ATOM     10  N   LIG    1        0.638   6.843   3.424  0.00  0.00    -0.172 NA
ATOM     11  N   LIG    1        1.218   6.112   4.469  0.00  0.00    -0.214 N 
ATOM     12  N   LIG    1        0.406   2.287   3.219  0.00  0.00    -0.278 N 
ENDROOT
BRANCH  11  13
ATOM     13  C   LIG    1        1.869   6.650   5.586  0.00  0.00    +0.068 A 
ATOM     14  C   LIG    1        1.760   6.027   6.823  0.00  0.00    +0.028 A 
ATOM     15  C   LIG    1        2.408   6.557   7.921  0.00  0.00    +0.002 A 
ATOM     16  C   LIG    1        3.155   7.713   7.793  0.00  0.00    +0.000 A 
ATOM     17  C   LIG    1        3.260   8.340   6.565  0.00  0.00    +0.002 A 
ATOM     18  C   LIG    1        2.619   7.811   5.462  0.00  0.00    +0.028 A 
ENDBRANCH  11  13
BRANCH   1  19
ATOM     19  O   LIG    1        1.459   1.388   5.097  0.00  0.00    -0.464 OA
BRANCH  19  20
ATOM     20  C   LIG    1        2.163   1.622   6.318  0.00  0.00    +0.232 C 
BRANCH  20  22
ATOM     21  C   LIG    1        3.259   0.534   8.282  0.00  0.00    +0.007 C 
ATOM     22  C   LIG    1        2.505   0.283   6.974  0.00  0.00    +0.038 C 
ENDBRANCH  20  22
ENDBRANCH  19  20
ENDBRANCH   1  19
BRANCH   7  23
ATOM     23  C   LIG    1       -0.013   1.086   0.008  0.00  0.00    +0.063 C 
BRANCH  23  24
ATOM     24  C   LIG    1       -0.742   1.585  -1.213  0.00  0.00    -0.045 A 
ATOM     25  C   LIG    1       -1.750   0.825  -1.775  0.00  0.00    +0.004 A 
ATOM     26  C   LIG    1       -2.422   1.285  -2.892  0.00  0.00    +0.000 A 
ATOM     27  C   LIG    1       -2.079   2.501  -3.453  0.00  0.00    +0.000 A 
ATOM     28  C   LIG    1       -1.066   3.259  -2.894  0.00  0.00    +0.000 A 
ATOM     29  C   LIG    1       -0.398   2.801  -1.774  0.00  0.00    +0.004 A 
ENDBRANCH  23  24
ENDBRANCH   7  23
TORSDOF 6
