REMARK  Name = ZINC16051229
REMARK                            x       y       z     vdW  Elec       q    Type
REMARK                         _______ _______ _______ _____ _____    ______ ____
ROOT
ATOM      1  C   LIG    1       -0.017   1.383   0.010  0.00  0.00    +0.035 A 
ATOM      2  C   LIG    1        1.142   2.115   0.003  0.00  0.00    +0.031 A 
ATOM      3  C   LIG    1        2.402   1.473  -0.013  0.00  0.00    +0.080 A 
ATOM      4  C   LIG    1        2.382   0.060  -0.020  0.00  0.00    +0.043 A 
ATOM      5  S   LIG    1        4.113  -0.343  -0.038  0.00  0.00    -0.053 S 
ATOM      6  C   LIG    1        4.734   1.333  -0.035  0.00  0.00    +0.157 A 
ATOM      7  C   LIG    1        1.217  -0.665  -0.013  0.00  0.00    +0.049 A 
ATOM      8  N   LIG    1        3.628   2.042  -0.021  0.00  0.00    -0.225 NA
ATOM      9  C   LIG    1        0.002  -0.004   0.002  0.00  0.00    +0.123 A 
ENDROOT
BRANCH   6  10
ATOM     10  N   LIG    1        6.042   1.771  -0.045  0.00  0.00    -0.337 N 
ATOM     11  H   LIG    1        6.235   2.722  -0.042  0.00  0.00    +0.144 HD
ATOM     12  H   LIG    1        6.769   1.129  -0.056  0.00  0.00    +0.144 HD
ENDBRANCH   6  10
BRANCH   9  13
ATOM     13  N   LIG    1       -1.265  -0.769   0.011  0.00  0.00    +0.006 N 
ATOM     14  O   LIG    1       -2.324  -0.185   0.025  0.00  0.00    -0.130 OA
BRANCH  13  15
ATOM     15  O   LIG    1       -1.241  -1.978   0.004  0.00  0.00    -0.396 OA
ATOM     16  H   LIG    1       -0.421  -2.430  -0.007  0.00  0.00    +0.329 HD
ENDBRANCH  13  15
ENDBRANCH   9  13
TORSDOF 3
