REMARK  Name = ZINC29547570
REMARK                            x       y       z     vdW  Elec       q    Type
REMARK                         _______ _______ _______ _____ _____    ______ ____
ROOT
ATOM      1  C   LIG    1        2.421   3.935   0.000  0.00  0.00    +0.139 A 
ATOM      2  C   LIG    1        2.369   5.295   0.007  0.00  0.00    +0.098 A 
ATOM      3  C   LIG    1        3.572   6.038   0.000  0.00  0.00    +0.193 A 
ATOM      4  C   LIG    1        4.838   5.279  -0.015  0.00  0.00    +0.065 A 
ATOM      5  C   LIG    1        6.072   5.928  -0.022  0.00  0.00    +0.030 A 
ATOM      6  C   LIG    1        7.232   5.183  -0.036  0.00  0.00    +0.019 A 
ATOM      7 BR   LIG    1        8.911   6.054  -0.046  0.00  0.00    -0.050 Br
ATOM      8  C   LIG    1        7.173   3.796  -0.043  0.00  0.00    +0.019 A 
ATOM      9  C   LIG    1        5.958   3.144  -0.036  0.00  0.00    +0.048 A 
ATOM     10  C   LIG    1        4.778   3.877  -0.021  0.00  0.00    +0.139 A 
ATOM     11  O   LIG    1        3.564   7.258   0.007  0.00  0.00    -0.287 OA
ATOM     12  O   LIG    1        3.579   3.258  -0.008  0.00  0.00    -0.455 OA
ENDROOT
BRANCH   1  15
ATOM     13  C   LIG    1       -0.013   1.076   0.008  0.00  0.00    +0.003 A 
ATOM     14  C   LIG    1        1.174   1.780   0.000  0.00  0.00    +0.012 A 
ATOM     15  C   LIG    1        1.155   3.176   0.008  0.00  0.00    +0.020 A 
ATOM     16  C   LIG    1       -0.068   3.852   0.022  0.00  0.00    +0.050 A 
ATOM     17  C   LIG    1       -1.249   3.135   0.030  0.00  0.00    +0.124 A 
ATOM     18  F   LIG    1       -2.433   3.786   0.044  0.00  0.00    -0.205 F 
ATOM     19  C   LIG    1       -1.221   1.749   0.017  0.00  0.00    +0.038 A 
ENDBRANCH   1  15
TORSDOF 1
