REMARK  Name = ZINC42887577
REMARK                            x       y       z     vdW  Elec       q    Type
REMARK                         _______ _______ _______ _____ _____    ______ ____
ROOT
ATOM      1  C   LIG    1       -0.052   1.502  -0.115  0.00  0.00    +0.001 C 
ATOM      2  C   LIG    1        1.390   2.001  -0.188  0.00  0.00    +0.004 C 
ATOM      3  C   LIG    1        2.179   1.532   1.016  0.00  0.00    +0.045 C 
ATOM      4  C   LIG    1        2.019   0.094   1.379  0.00  0.00    +0.181 C 
ATOM      5  C   LIG    1        0.635  -0.529   1.165  0.00  0.00    +0.065 C 
ATOM      6  C   LIG    1        1.017  -1.980   0.976  0.00  0.00    +0.022 C 
ATOM      7  C   LIG    1        2.333  -2.022   0.674  0.00  0.00    +0.104 C 
ATOM      8  C   LIG    1        3.023  -3.335   0.376  0.00  0.00    +0.079 C 
ATOM      9  C   LIG    1        2.385  -4.457   1.191  0.00  0.00    +0.048 C 
ATOM     10  C   LIG    1        0.886  -4.417   1.138  0.00  0.00    +0.019 A 
ATOM     11  C   LIG    1        0.133  -5.584   1.166  0.00  0.00    +0.130 A 
ATOM     12  N   LIG    1       -1.196  -5.494   1.139  0.00  0.00    -0.199 NA
ATOM     13  C   LIG    1       -1.804  -4.318   1.092  0.00  0.00    +0.215 A 
ATOM     14  N   LIG    1       -1.124  -3.180   1.057  0.00  0.00    -0.214 NA
ATOM     15  C   LIG    1        0.205  -3.195   1.060  0.00  0.00    +0.081 A 
ATOM     16  O   LIG    1        2.868  -0.793   0.636  0.00  0.00    -0.492 OA
ATOM     17  C   LIG    1       -0.034  -0.026  -0.096  0.00  0.00    +0.012 C 
ENDROOT
BRANCH  11  18
ATOM     18  N   LIG    1        0.754  -6.822   1.221  0.00  0.00    -0.318 N 
ATOM     19  C   LIG    1        1.116  -7.430   2.511  0.00  0.00    +0.087 C 
ATOM     20  C   LIG    1        0.581  -8.865   2.540  0.00  0.00    -0.063 C 
ATOM     21  N   LIG    1        1.077  -9.595   1.366  0.00  0.00    +0.381 N 
ATOM     22  H   LIG    1        0.787 -10.559   1.424  0.00  0.00    -0.086 HD
ATOM     23  H   LIG    1        2.085  -9.550   1.345  0.00  0.00    -0.086 HD
ATOM     24  C   LIG    1        0.536  -8.995   0.139  0.00  0.00    -0.063 C 
ATOM     25  C   LIG    1        1.064  -7.569  -0.008  0.00  0.00    +0.087 C 
ENDBRANCH  11  18
BRANCH  13  26
ATOM     26  N   LIG    1       -3.188  -4.275   1.079  0.00  0.00    -0.327 N 
ATOM     27  H   LIG    1       -3.699  -5.099   1.104  0.00  0.00    +0.145 HD
ATOM     28  H   LIG    1       -3.647  -3.421   1.046  0.00  0.00    +0.145 HD
ENDBRANCH  13  26
TORSDOF 2
