REMARK  Name = ZINC40914200
REMARK                            x       y       z     vdW  Elec       q    Type
REMARK                         _______ _______ _______ _____ _____    ______ ____
ROOT
ATOM      1  C   LIG    1        2.585  -2.553   4.311  0.00  0.00    +0.101 C 
ATOM      2  C   LIG    1        1.598  -3.427   5.031  0.00  0.00    +0.098 C 
ATOM      3  C   LIG    1        1.598  -4.769   4.837  0.00  0.00    +0.198 C 
ATOM      4  O   LIG    1        2.474  -5.348   3.999  0.00  0.00    -0.445 OA
ATOM      5  C   LIG    1        3.616  -4.716   3.666  0.00  0.00    +0.115 C 
ATOM      6  C   LIG    1        4.768  -5.549   3.156  0.00  0.00    +0.083 C 
ATOM      7  C   LIG    1        5.590  -4.739   2.164  0.00  0.00    +0.034 C 
ATOM      8  C   LIG    1        6.097  -3.480   2.875  0.00  0.00    +0.088 C 
ATOM      9  C   LIG    1        4.919  -2.722   3.424  0.00  0.00    +0.164 C 
ATOM     10  O   LIG    1        4.995  -1.517   3.557  0.00  0.00    -0.292 OA
ATOM     11  C   LIG    1        3.730  -3.384   3.785  0.00  0.00    +0.046 C 
ENDROOT
BRANCH   7  12
ATOM     12  C   LIG    1        6.761  -5.557   1.684  0.00  0.00    -0.036 A 
ATOM     13  C   LIG    1        7.730  -5.943   2.559  0.00  0.00    +0.004 A 
ATOM     14  C   LIG    1        8.820  -6.699   2.133  0.00  0.00    +0.001 A 
ATOM     15  C   LIG    1        8.948  -7.073   0.830  0.00  0.00    +0.008 A 
ATOM     16  C   LIG    1        7.968  -6.693  -0.101  0.00  0.00    -0.018 A 
ATOM     17  C   LIG    1        8.066  -7.060  -1.455  0.00  0.00    +0.008 A 
ATOM     18  C   LIG    1        7.087  -6.689  -2.325  0.00  0.00    +0.001 A 
ATOM     19  C   LIG    1        5.997  -5.933  -1.900  0.00  0.00    +0.001 A 
ATOM     20  C   LIG    1        5.872  -5.554  -0.599  0.00  0.00    +0.009 A 
ATOM     21  C   LIG    1        6.855  -5.929   0.333  0.00  0.00    -0.014 A 
ENDBRANCH   7  12
BRANCH   1  25
ATOM     22  C   LIG    1        0.633  -0.610   1.043  0.00  0.00    +0.120 A 
ATOM     23  C   LIG    1        1.208   0.144   2.056  0.00  0.00    +0.046 A 
ATOM     24  C   LIG    1        1.838  -0.487   3.112  0.00  0.00    +0.008 A 
ATOM     25  C   LIG    1        1.896  -1.867   3.159  0.00  0.00    -0.034 A 
ATOM     26  C   LIG    1        1.324  -2.620   2.150  0.00  0.00    +0.008 A 
ATOM     27  C   LIG    1        0.687  -1.995   1.096  0.00  0.00    +0.046 A 
BRANCH  22  29
ATOM     28  C   LIG    1       -0.006   1.437   0.016  0.00  0.00    +0.277 C 
ATOM     29  O   LIG    1        0.012   0.008   0.004  0.00  0.00    -0.495 OA
ENDBRANCH  22  29
ENDBRANCH   1  25
BRANCH   3  30
ATOM     30  N   LIG    1        0.688  -5.548   5.507  0.00  0.00    -0.328 N 
ATOM     31  H   LIG    1        0.681  -6.509   5.374  0.00  0.00    +0.145 HD
ATOM     32  H   LIG    1        0.052  -5.138   6.114  0.00  0.00    +0.145 HD
ENDBRANCH   3  30
BRANCH   2  33
ATOM     33  C   LIG    1        0.651  -2.839   5.930  0.00  0.00    +0.101 C 
ATOM     34  N   LIG    1       -0.101  -2.373   6.643  0.00  0.00    -0.191 NA
ENDBRANCH   2  33
TORSDOF 5
