REMARK  Name = ZINC36941786
REMARK                            x       y       z     vdW  Elec       q    Type
REMARK                         _______ _______ _______ _____ _____    ______ ____
ROOT
ATOM      1  C   LIG    1        0.880  -0.374  -1.483  0.00  0.00    +0.088 A 
ATOM      2  C   LIG    1        0.253  -0.198  -2.704  0.00  0.00    +0.027 A 
ATOM      3  C   LIG    1        0.896  -0.556  -3.871  0.00  0.00    +0.013 A 
ATOM      4  C   LIG    1        2.183  -1.097  -3.817  0.00  0.00    +0.022 A 
ATOM      5  C   LIG    1        2.810  -1.271  -2.581  0.00  0.00    +0.013 A 
ATOM      6  C   LIG    1        2.157  -0.904  -1.423  0.00  0.00    +0.027 A 
ENDROOT
BRANCH   1   8
ATOM      7  C   LIG    1        0.507   1.821   0.273  0.00  0.00    +0.200 C 
ATOM      8  S   LIG    1        0.051   0.086   0.002  0.00  0.00    -0.006 S 
ATOM      9  O   LIG    1       -1.332  -0.014  -0.309  0.00  0.00    -0.170 OA
ATOM     10  O   LIG    1        0.628  -0.735   1.009  0.00  0.00    -0.170 OA
ENDBRANCH   1   8
BRANCH   4  11
ATOM     11  C   LIG    1        2.878  -1.483  -5.063  0.00  0.00    +0.193 C 
ATOM     12  O   LIG    1        3.937  -2.078  -5.008  0.00  0.00    -0.287 OA
BRANCH  11  13
ATOM     13  C   LIG    1        2.286  -1.147  -6.373  0.00  0.00    +0.022 A 
ATOM     14  C   LIG    1        1.562   0.037  -6.533  0.00  0.00    +0.013 A 
ATOM     15  C   LIG    1        1.012   0.345  -7.760  0.00  0.00    +0.016 A 
ATOM     16  C   LIG    1        1.176  -0.516  -8.831  0.00  0.00    +0.018 A 
ATOM     17 BR   LIG    1        0.418  -0.086 -10.509  0.00  0.00    -0.050 Br
ATOM     18  C   LIG    1        1.892  -1.692  -8.679  0.00  0.00    +0.016 A 
ATOM     19  C   LIG    1        2.452  -2.009  -7.460  0.00  0.00    +0.013 A 
ENDBRANCH  11  13
ENDBRANCH   4  11
TORSDOF 3
