REMARK  Name = ZINC58649939
REMARK                            x       y       z     vdW  Elec       q    Type
REMARK                         _______ _______ _______ _____ _____    ______ ____
ROOT
ATOM      1  C   LIG    1        0.224  -4.643  -0.041  0.00  0.00    +0.127 A 
ATOM      2  C   LIG    1        0.064  -5.399   1.106  0.00  0.00    +0.032 A 
ATOM      3  C   LIG    1        0.394  -6.740   1.103  0.00  0.00    +0.025 A 
ATOM      4  C   LIG    1        0.887  -7.330  -0.054  0.00  0.00    +0.035 A 
ATOM      5  C   LIG    1        1.047  -6.569  -1.205  0.00  0.00    +0.045 A 
ATOM      6  C   LIG    1        0.709  -5.229  -1.197  0.00  0.00    +0.069 A 
ATOM      7 CL   LIG    1        0.902  -4.277  -2.636  0.00  0.00    -0.081 Cl
ENDROOT
BRANCH   4   8
ATOM      8  N   LIG    1        1.223  -8.688  -0.060  0.00  0.00    -0.280 N 
ATOM      9  H   LIG    1        0.719  -9.314   0.482  0.00  0.00    +0.155 HD
ATOM     10  C   LIG    1        2.247  -9.125  -0.819  0.00  0.00    +0.267 C 
ATOM     11  O   LIG    1        2.939  -8.329  -1.423  0.00  0.00    -0.268 OA
BRANCH  10  12
ATOM     12  C   LIG    1        2.530 -10.576  -0.917  0.00  0.00    +0.126 A 
ATOM     13  C   LIG    1        3.593 -11.022  -1.698  0.00  0.00    +0.033 A 
ATOM     14  C   LIG    1        3.845 -12.382  -1.780  0.00  0.00    +0.004 A 
ATOM     15  C   LIG    1        3.024 -13.250  -1.077  0.00  0.00    +0.020 A 
ATOM     16  C   LIG    1        1.984 -12.736  -0.319  0.00  0.00    +0.111 A 
ATOM     17  N   LIG    1        1.770 -11.440  -0.255  0.00  0.00    -0.250 NA
ENDBRANCH  10  12
ENDBRANCH   4   8
BRANCH   1  18
ATOM     18  S   LIG    1       -0.199  -2.933  -0.032  0.00  0.00    +0.074 S 
ATOM     19  O   LIG    1       -1.014  -2.710  -1.174  0.00  0.00    -0.150 OA
ATOM     20  O   LIG    1       -0.634  -2.628   1.286  0.00  0.00    -0.150 OA
BRANCH  18  21
ATOM     21  N   LIG    1        1.201  -2.081  -0.276  0.00  0.00    -0.215 N 
ATOM     22  H   LIG    1        2.054  -2.559  -0.392  0.00  0.00    +0.174 HD
BRANCH  21  28
ATOM     23  C   LIG    1       -0.057   1.371  -0.197  0.00  0.00    +0.002 A 
ATOM     24  C   LIG    1        1.112   2.081  -0.401  0.00  0.00    +0.002 A 
ATOM     25  C   LIG    1        2.311   1.412  -0.563  0.00  0.00    +0.022 A 
ATOM     26  C   LIG    1        2.345   0.031  -0.522  0.00  0.00    +0.063 A 
ATOM     27 CL   LIG    1        3.850  -0.808  -0.727  0.00  0.00    -0.082 Cl
ATOM     28  C   LIG    1        1.171  -0.685  -0.317  0.00  0.00    +0.066 A 
ATOM     29  C   LIG    1       -0.031  -0.009  -0.155  0.00  0.00    +0.026 A 
ENDBRANCH  21  28
ENDBRANCH  18  21
ENDBRANCH   1  18
TORSDOF 5
