REMARK  Name = ZINC29241832
REMARK                            x       y       z     vdW  Elec       q    Type
REMARK                         _______ _______ _______ _____ _____    ______ ____
ROOT
ATOM      1  C   LIG    1       -3.667   1.844   2.193  0.00  0.00    +0.048 A 
ATOM      2  C   LIG    1       -4.944   1.655   2.643  0.00  0.00    +0.115 A 
ATOM      3  N   LIG    1       -5.321   0.511   3.192  0.00  0.00    -0.238 NA
ATOM      4  C   LIG    1       -4.492  -0.510   3.337  0.00  0.00    +0.144 A 
ATOM      5  C   LIG    1       -3.163  -0.400   2.902  0.00  0.00    +0.128 A 
ATOM      6  N   LIG    1       -2.091  -1.230   2.902  0.00  0.00    -0.232 NA
ATOM      7  C   LIG    1       -1.072  -0.627   2.363  0.00  0.00    +0.201 A 
ATOM      8  N   LIG    1       -1.421   0.636   1.990  0.00  0.00    -0.320 N 
ATOM      9  C   LIG    1       -2.745   0.808   2.317  0.00  0.00    +0.074 A 
ENDROOT
BRANCH   8  10
ATOM     10  C   LIG    1       -0.549   1.626   1.354  0.00  0.00    +0.143 C 
ATOM     11  C   LIG    1        0.686   1.857   2.194  0.00  0.00    +0.004 C 
ATOM     12  C   LIG    1        1.761   1.876   1.454  0.00  0.00    -0.016 C 
ATOM     13  C   LIG    1        1.423   1.661  -0.003  0.00  0.00    +0.173 C 
ATOM     14  C   LIG    1       -0.013   1.086   0.008  0.00  0.00    +0.174 C 
BRANCH  13  15
ATOM     15  O   LIG    1        1.457   2.901  -0.710  0.00  0.00    -0.385 OA
ATOM     16  H   LIG    1        1.234   2.927  -1.787  0.00  0.00    +0.210 HD
ENDBRANCH  13  15
BRANCH  14  17
ATOM     17  O   LIG    1       -0.776   1.592  -1.089  0.00  0.00    -0.387 OA
ATOM     18  H   LIG    1       -0.520   1.300  -2.118  0.00  0.00    +0.210 HD
ENDBRANCH  14  17
BRANCH  12  19
ATOM     19  C   LIG    1        3.157   2.084   1.984  0.00  0.00    +0.189 C 
BRANCH  19  20
ATOM     20  O   LIG    1        3.108   2.255   3.401  0.00  0.00    -0.391 OA
ATOM     21  H   LIG    1        4.036   2.421   3.968  0.00  0.00    +0.210 HD
ENDBRANCH  19  20
ENDBRANCH  12  19
ENDBRANCH   8  10
BRANCH   4  22
ATOM     22  N   LIG    1       -4.938  -1.689   3.920  0.00  0.00    -0.341 N 
ATOM     23  H   LIG    1       -5.980  -1.774   4.261  0.00  0.00    +0.144 HD
ATOM     24  H   LIG    1       -4.248  -2.537   4.040  0.00  0.00    +0.144 HD
ENDBRANCH   4  22
TORSDOF 6
