REMARK  Name = ZINC13864705
REMARK                            x       y       z     vdW  Elec       q    Type
REMARK                         _______ _______ _______ _____ _____    ______ ____
ROOT
ATOM      1  C   LIG    1       -0.017   1.383   0.010  0.00  0.00    +0.004 A 
ATOM      2  C   LIG    1        1.161   2.099   0.002  0.00  0.00    +0.015 A 
ATOM      3  C   LIG    1        2.378   1.422  -0.013  0.00  0.00    +0.068 A 
ATOM      4  C   LIG    1        2.401   0.017  -0.021  0.00  0.00    +0.095 A 
ATOM      5  N   LIG    1        3.627  -0.624  -0.036  0.00  0.00    -0.336 N 
ATOM      6  H   LIG    1        3.665  -1.593  -0.042  0.00  0.00    +0.167 HD
ATOM      7  C   LIG    1        4.779   0.100  -0.044  0.00  0.00    +0.143 A 
ATOM      8  N   LIG    1        4.798   1.416  -0.037  0.00  0.00    -0.191 NA
ATOM      9  C   LIG    1        1.202  -0.692  -0.013  0.00  0.00    +0.141 A 
ATOM     10  C   LIG    1        3.668   2.138  -0.022  0.00  0.00    +0.281 A 
ATOM     11  O   LIG    1        3.705   3.357  -0.015  0.00  0.00    -0.265 OA
ATOM     12  C   LIG    1        0.002  -0.004   0.002  0.00  0.00    +0.047 A 
ENDROOT
BRANCH   7  13
ATOM     13  C   LIG    1        6.064  -0.623  -0.060  0.00  0.00    +0.017 A 
ATOM     14  C   LIG    1        6.082  -2.021  -0.073  0.00  0.00    +0.013 A 
ATOM     15  C   LIG    1        7.283  -2.693  -0.088  0.00  0.00    +0.023 A 
ATOM     16  C   LIG    1        8.480  -1.981  -0.090  0.00  0.00    +0.025 A 
ATOM     17  C   LIG    1        8.466  -0.589  -0.077  0.00  0.00    +0.023 A 
ATOM     18  C   LIG    1        7.268   0.088  -0.068  0.00  0.00    +0.013 A 
BRANCH  16  19
ATOM     19  N   LIG    1        9.692  -2.663  -0.105  0.00  0.00    -0.358 N 
ATOM     20  H   LIG    1       10.526  -2.169  -0.106  0.00  0.00    +0.142 HD
ATOM     21  H   LIG    1        9.703  -3.633  -0.114  0.00  0.00    +0.142 HD
ENDBRANCH  16  19
ENDBRANCH   7  13
BRANCH   9  22
ATOM     22  O   LIG    1        1.212  -2.052  -0.021  0.00  0.00    -0.505 OA
ATOM     23  H   LIG    1        2.026  -2.515  -0.031  0.00  0.00    +0.292 HD
ENDBRANCH   9  22
TORSDOF 3
