REMARK  Name = ZINC00021732
REMARK                            x       y       z     vdW  Elec       q    Type
REMARK                         _______ _______ _______ _____ _____    ______ ____
ROOT
ATOM      1  S   LIG    1       -5.213  -2.745   0.036  0.00  0.00    +0.075 S 
ATOM      2  O   LIG    1       -6.146  -1.831   0.595  0.00  0.00    -0.150 OA
ATOM      3  O   LIG    1       -4.991  -4.037   0.584  0.00  0.00    -0.150 OA
ENDROOT
BRANCH   1   4
ATOM      4  N   LIG    1       -5.658  -2.970  -1.542  0.00  0.00    -0.202 N 
ATOM      5  C   LIG    1       -6.436  -2.018  -2.340  0.00  0.00    +0.136 C 
ATOM      6  C   LIG    1       -6.586  -2.677  -3.721  0.00  0.00    +0.058 C 
ATOM      7  C   LIG    1       -5.857  -3.995  -3.594  0.00  0.00    -0.023 A 
ATOM      8  C   LIG    1       -5.655  -5.011  -4.508  0.00  0.00    +0.005 A 
ATOM      9  C   LIG    1       -4.928  -6.132  -4.152  0.00  0.00    +0.000 A 
ATOM     10  C   LIG    1       -4.414  -6.240  -2.873  0.00  0.00    +0.002 A 
ATOM     11  C   LIG    1       -4.617  -5.232  -1.955  0.00  0.00    +0.025 A 
ATOM     12  C   LIG    1       -5.342  -4.093  -2.310  0.00  0.00    +0.054 A 
ENDBRANCH   1   4
BRANCH   1  16
ATOM     13  C   LIG    1       -1.201  -0.638   0.010  0.00  0.00    +0.162 A 
ATOM     14  C   LIG    1       -2.374   0.099   0.019  0.00  0.00    +0.051 A 
ATOM     15  C   LIG    1       -3.596  -0.546   0.027  0.00  0.00    +0.032 A 
ATOM     16  C   LIG    1       -3.652  -1.928   0.026  0.00  0.00    +0.112 A 
ATOM     17  C   LIG    1       -2.485  -2.669   0.017  0.00  0.00    +0.078 A 
ATOM     18  C   LIG    1       -1.257  -2.028   0.003  0.00  0.00    +0.163 A 
BRANCH  13  20
ATOM     19  C   LIG    1       -0.017   1.425   0.010  0.00  0.00    +0.277 C 
ATOM     20  O   LIG    1        0.002  -0.004   0.002  0.00  0.00    -0.491 OA
ENDBRANCH  13  20
BRANCH  18  21
ATOM     21  O   LIG    1       -0.108  -2.756  -0.012  0.00  0.00    -0.491 OA
ATOM     22  C   LIG    1       -0.242  -4.179  -0.018  0.00  0.00    +0.277 C 
ENDBRANCH  18  21
ENDBRANCH   1  16
TORSDOF 4
