REMARK  Name = ZINC40893422
REMARK                            x       y       z     vdW  Elec       q    Type
REMARK                         _______ _______ _______ _____ _____    ______ ____
ROOT
ATOM      1  C   LIG    1        8.350  -2.342   0.893  0.00  0.00    -0.039 C 
ATOM      2  C   LIG    1        8.782  -2.720  -0.297  0.00  0.00    -0.022 C 
ATOM      3  C   LIG    1       10.277  -2.940  -0.281  0.00  0.00    +0.033 C 
ATOM      4  C   LIG    1       10.643  -3.059   1.214  0.00  0.00    +0.019 C 
ATOM      5  C   LIG    1       11.919  -2.254   1.496  0.00  0.00    +0.112 C 
ATOM      6  N   LIG    1       11.492  -0.888   1.914  0.00  0.00    -0.300 N 
ATOM      7  C   LIG    1       12.325   0.109   2.271  0.00  0.00    +0.219 C 
ATOM      8  O   LIG    1       13.525  -0.070   2.261  0.00  0.00    -0.275 OA
ATOM      9  C   LIG    1       10.029  -0.800   1.883  0.00  0.00    +0.116 C 
ATOM     10  C   LIG    1        9.493  -2.245   1.878  0.00  0.00    +0.041 C 
ENDROOT
BRANCH   1  14
ATOM     11  C   LIG    1        4.294  -1.495   1.825  0.00  0.00    -0.049 A 
ATOM     12  C   LIG    1        4.666  -2.781   1.476  0.00  0.00    +0.004 A 
ATOM     13  C   LIG    1        5.982  -3.063   1.173  0.00  0.00    +0.008 A 
ATOM     14  C   LIG    1        6.938  -2.047   1.217  0.00  0.00    -0.022 A 
ATOM     15  C   LIG    1        6.556  -0.752   1.569  0.00  0.00    +0.008 A 
ATOM     16  C   LIG    1        5.236  -0.483   1.866  0.00  0.00    +0.004 A 
BRANCH  11  17
ATOM     17  C   LIG    1        2.854  -1.195   2.156  0.00  0.00    +0.016 C 
BRANCH  17  18
ATOM     18  C   LIG    1        2.110  -0.798   0.879  0.00  0.00    -0.074 C 
BRANCH  18  24
ATOM     19  C   LIG    1       -0.019   1.526   0.010  0.00  0.00    -0.013 C 
ATOM     20  C   LIG    1        0.002  -0.004   0.002  0.00  0.00    -0.072 C 
ATOM     21  C   LIG    1       -1.437  -0.549   0.058  0.00  0.00    -0.017 C 
ATOM     22  C   LIG    1       -1.494  -1.408   1.342  0.00  0.00    -0.020 C 
ATOM     23  C   LIG    1       -0.004  -1.751   1.595  0.00  0.00    -0.078 C 
ATOM     24  N   LIG    1        0.707  -0.505   1.202  0.00  0.00    +0.382 N 
ATOM     25  H   LIG    1        0.654   0.175   1.946  0.00  0.00    -0.081 HD
ENDBRANCH  18  24
ENDBRANCH  17  18
ENDBRANCH  11  17
ENDBRANCH   1  14
BRANCH   7  26
ATOM     26  C   LIG    1       11.767   1.447   2.682  0.00  0.00    +0.079 C 
ATOM     27  C   LIG    1       10.964   2.045   1.523  0.00  0.00    +0.041 C 
ATOM     28  C   LIG    1       10.466   3.437   1.921  0.00  0.00    +0.160 C 
ATOM     29  O   LIG    1       11.583   4.259   2.268  0.00  0.00    -0.380 OA
ATOM     30  C   LIG    1       12.344   3.774   3.376  0.00  0.00    +0.160 C 
ATOM     31  C   LIG    1       12.916   2.396   3.036  0.00  0.00    +0.041 C 
ENDBRANCH   7  26
TORSDOF 5
