REMARK  Name = ZINC00007747
REMARK                            x       y       z     vdW  Elec       q    Type
REMARK                         _______ _______ _______ _____ _____    ______ ____
ROOT
ATOM      1  C   LIG    1       -3.568   4.236   6.817  0.00  0.00    +0.034 A 
ATOM      2  C   LIG    1       -3.495   2.855   6.693  0.00  0.00    +0.027 A 
ATOM      3  C   LIG    1       -2.968   2.292   5.547  0.00  0.00    +0.048 A 
ATOM      4  C   LIG    1       -2.511   3.107   4.521  0.00  0.00    +0.129 A 
ATOM      5  C   LIG    1       -2.578   4.487   4.647  0.00  0.00    +0.048 A 
ATOM      6  C   LIG    1       -3.110   5.051   5.790  0.00  0.00    +0.027 A 
ENDROOT
BRANCH   1   8
ATOM      7  C   LIG    1       -3.902   4.219   9.174  0.00  0.00    +0.217 C 
ATOM      8  N   LIG    1       -4.103   4.808   7.979  0.00  0.00    -0.285 N 
ATOM      9  H   LIG    1       -4.618   5.628   7.923  0.00  0.00    +0.155 HD
ATOM     10  O   LIG    1       -3.329   3.151   9.235  0.00  0.00    -0.275 OA
BRANCH   7  11
ATOM     11  C   LIG    1       -4.390   4.885  10.434  0.00  0.00    +0.096 C 
BRANCH  11  13
ATOM     12  C   LIG    1       -4.533   4.691  12.921  0.00  0.00    +0.004 C 
ATOM     13  C   LIG    1       -4.038   4.014  11.642  0.00  0.00    +0.006 C 
ENDBRANCH  11  13
ENDBRANCH   7  11
ENDBRANCH   1   8
BRANCH   4  14
ATOM     14  O   LIG    1       -1.991   2.552   3.394  0.00  0.00    -0.452 OA
BRANCH  14  15
ATOM     15  C   LIG    1       -1.458   3.384   2.460  0.00  0.00    +0.170 A 
ATOM     16  C   LIG    1       -2.194   3.733   1.339  0.00  0.00    +0.050 A 
ATOM     17  C   LIG    1       -1.649   4.575   0.388  0.00  0.00    +0.004 A 
ATOM     18  C   LIG    1       -0.370   5.074   0.554  0.00  0.00    +0.004 A 
ATOM     19  C   LIG    1        0.368   4.734   1.672  0.00  0.00    +0.049 A 
ATOM     20  C   LIG    1       -0.173   3.891   2.630  0.00  0.00    +0.162 A 
BRANCH  20  21
ATOM     21  O   LIG    1        0.552   3.555   3.730  0.00  0.00    -0.491 OA
ATOM     22  C   LIG    1        1.866   4.108   3.835  0.00  0.00    +0.277 C 
ENDBRANCH  20  21
ENDBRANCH  14  15
ENDBRANCH   4  14
TORSDOF 6
