REMARK  Name = ZINC45254824
REMARK                            x       y       z     vdW  Elec       q    Type
REMARK                         _______ _______ _______ _____ _____    ______ ____
ROOT
ATOM      1  N   LIG    1       -0.207   0.955   2.349  0.00  0.00    -0.311 N 
ATOM      2  C   LIG    1        0.172   2.085   1.489  0.00  0.00    +0.125 C 
ATOM      3  C   LIG    1        1.205   2.941   2.232  0.00  0.00    +0.128 C 
ATOM      4  N   LIG    1        0.701   3.218   3.584  0.00  0.00    -0.280 N 
ATOM      5  C   LIG    1        0.588   4.485   4.028  0.00  0.00    +0.307 C 
ATOM      6  N   LIG    1        0.818   5.516   3.190  0.00  0.00    -0.269 N 
ATOM      7  H   LIG    1        0.962   5.350   2.245  0.00  0.00    +0.156 HD
ATOM      8  O   LIG    1        0.280   4.699   5.185  0.00  0.00    -0.252 OA
ATOM      9  C   LIG    1        0.322   2.087   4.444  0.00  0.00    +0.092 C 
ATOM     10  C   LIG    1       -0.284   2.614   5.747  0.00  0.00    +0.030 C 
ATOM     11  C   LIG    1       -0.717   1.232   3.699  0.00  0.00    +0.128 C 
ENDROOT
BRANCH   1  20
ATOM     12  C   LIG    1       -3.052   0.851   0.843  0.00  0.00    +0.046 C 
ATOM     13  C   LIG    1       -2.417  -0.500   0.635  0.00  0.00    -0.021 A 
ATOM     14  C   LIG    1       -2.936  -1.532  -0.049  0.00  0.00    +0.088 A 
ATOM     15  N   LIG    1       -2.068  -2.593  -0.020  0.00  0.00    -0.345 N 
ATOM     16  C   LIG    1       -0.949  -2.263   0.696  0.00  0.00    +0.143 A 
ATOM     17  N   LIG    1        0.170  -2.907   1.022  0.00  0.00    -0.218 NA
ATOM     18  C   LIG    1        1.105  -2.312   1.730  0.00  0.00    +0.225 A 
ATOM     19  N   LIG    1        0.991  -1.069   2.163  0.00  0.00    -0.220 NA
ATOM     20  C   LIG    1       -0.092  -0.346   1.893  0.00  0.00    +0.134 A 
ATOM     21  H   LIG    1       -2.223  -3.451  -0.444  0.00  0.00    +0.167 HD
ATOM     22  C   LIG    1       -1.113  -0.935   1.133  0.00  0.00    +0.061 A 
ENDBRANCH   1  20
BRANCH   6  23
ATOM     23  C   LIG    1        0.848   6.825   3.683  0.00  0.00    +0.038 A 
ATOM     24  C   LIG    1        1.329   7.076   4.962  0.00  0.00    +0.023 A 
ATOM     25  C   LIG    1        1.359   8.368   5.449  0.00  0.00    +0.005 A 
ATOM     26  C   LIG    1        0.909   9.415   4.666  0.00  0.00    +0.046 A 
ATOM     27  C   LIG    1        0.428   9.170   3.388  0.00  0.00    +0.135 A 
ATOM     28  C   LIG    1        0.402   7.875   2.893  0.00  0.00    +0.069 A 
BRANCH  27  29
ATOM     29  O   LIG    1       -0.014  10.200   2.619  0.00  0.00    -0.411 OA
BRANCH  29  30
ATOM     30  C   LIG    1        0.905  11.001   2.046  0.00  0.00    +0.408 C 
ATOM     31  N   LIG    1        0.513  12.094   1.361  0.00  0.00    -0.273 N 
ATOM     32  C   LIG    1       -0.912  12.410   1.239  0.00  0.00    +0.135 C 
ATOM     33  C   LIG    1        1.512  12.965   0.738  0.00  0.00    +0.135 C 
ATOM     34  O   LIG    1        2.087  10.739   2.147  0.00  0.00    -0.226 OA
ENDBRANCH  29  30
ENDBRANCH  27  29
ENDBRANCH   6  23
TORSDOF 4
