REMARK  Name = ZINC18154065
REMARK                            x       y       z     vdW  Elec       q    Type
REMARK                         _______ _______ _______ _____ _____    ______ ____
ROOT
ATOM      1  C   LIG    1        0.150  -1.977   3.532  0.00  0.00    +0.350 C 
ATOM      2  N   LIG    1        0.432  -2.613   4.634  0.00  0.00    -0.278 N 
ATOM      3  H   LIG    1        0.445  -3.582   4.645  0.00  0.00    +0.258 HD
ENDROOT
BRANCH   1   4
ATOM      4  N   LIG    1        0.132  -0.602   3.517  0.00  0.00    -0.291 N 
ATOM      5  H   LIG    1        0.275  -0.106   4.338  0.00  0.00    +0.255 HD
ATOM      6  H   LIG    1       -0.025  -0.129   2.685  0.00  0.00    +0.255 HD
ENDBRANCH   1   4
BRANCH   1   7
ATOM      7  N   LIG    1       -0.130  -2.683   2.382  0.00  0.00    -0.214 N 
ATOM      8  H   LIG    1       -0.017  -3.646   2.364  0.00  0.00    +0.268 HD
BRANCH   7  15
ATOM      9  C   LIG    1       -1.571   1.419   0.360  0.00  0.00    +0.066 C 
ATOM     10  C   LIG    1       -1.267  -0.054   0.264  0.00  0.00    +0.045 A 
ATOM     11  C   LIG    1       -1.427  -0.727  -0.937  0.00  0.00    +0.046 A 
ATOM     12  C   LIG    1       -1.135  -2.082  -0.981  0.00  0.00    +0.045 A 
ATOM     13  C   LIG    1       -1.296  -2.854  -2.265  0.00  0.00    +0.066 C 
ATOM     14  N   LIG    1       -0.715  -2.687   0.117  0.00  0.00    -0.203 NA
ATOM     15  C   LIG    1       -0.573  -2.015   1.249  0.00  0.00    +0.292 A 
ATOM     16  N   LIG    1       -0.838  -0.720   1.324  0.00  0.00    -0.203 NA
ENDBRANCH   7  15
ENDBRANCH   1   7
BRANCH   2  17
ATOM     17  C   LIG    1        0.730  -1.863   5.857  0.00  0.00    +0.200 C 
BRANCH  17  18
ATOM     18  C   LIG    1        1.025  -2.840   6.996  0.00  0.00    +0.072 C 
BRANCH  18  19
ATOM     19  C   LIG    1        1.331  -2.069   8.254  0.00  0.00    -0.044 A 
ATOM     20  C   LIG    1        2.633  -1.698   8.536  0.00  0.00    +0.007 A 
ATOM     21  C   LIG    1        2.916  -0.991   9.689  0.00  0.00    +0.046 A 
ATOM     22  C   LIG    1        1.893  -0.653  10.563  0.00  0.00    +0.120 A 
ATOM     23  C   LIG    1        0.588  -1.026  10.277  0.00  0.00    +0.046 A 
ATOM     24  C   LIG    1        0.309  -1.728   9.120  0.00  0.00    +0.007 A 
BRANCH  22  25
ATOM     25  O   LIG    1        2.169   0.042  11.697  0.00  0.00    -0.495 OA
ATOM     26  C   LIG    1        1.066   0.356  12.551  0.00  0.00    +0.277 C 
ENDBRANCH  22  25
ENDBRANCH  18  19
ENDBRANCH  17  18
ENDBRANCH   2  17
TORSDOF 7
