REMARK  Name = ZINC25448987
REMARK                            x       y       z     vdW  Elec       q    Type
REMARK                         _______ _______ _______ _____ _____    ______ ____
ROOT
ATOM      1  N   LIG    1       -0.704   1.975   1.216  0.00  0.00    -0.303 N 
ATOM      2  H   LIG    1       -1.775   2.223   1.178  0.00  0.00    +0.150 HD
ATOM      3  C   LIG    1       -0.022   2.107   2.371  0.00  0.00    +0.231 C 
ATOM      4  O   LIG    1        1.159   1.834   2.413  0.00  0.00    -0.274 OA
ENDROOT
BRANCH   1   5
ATOM      5  C   LIG    1       -0.018   1.503   0.010  0.00  0.00    +0.134 C 
BRANCH   5   9
ATOM      6  C   LIG    1       -2.085   2.918  -3.452  0.00  0.00    +0.120 A 
ATOM      7  C   LIG    1       -0.698   2.902  -3.429  0.00  0.00    +0.046 A 
ATOM      8  C   LIG    1       -0.032   2.444  -2.308  0.00  0.00    +0.009 A 
ATOM      9  C   LIG    1       -0.747   2.002  -1.211  0.00  0.00    -0.023 A 
ATOM     10  C   LIG    1       -2.130   2.012  -1.233  0.00  0.00    +0.009 A 
ATOM     11  C   LIG    1       -2.800   2.474  -2.349  0.00  0.00    +0.046 A 
BRANCH   6  13
ATOM     12  C   LIG    1       -4.171   3.356  -4.506  0.00  0.00    +0.277 C 
ATOM     13  O   LIG    1       -2.743   3.367  -4.553  0.00  0.00    -0.495 OA
ENDBRANCH   6  13
ENDBRANCH   5   9
BRANCH   5  14
ATOM     14  C   LIG    1        0.002  -0.004   0.002  0.00  0.00    -0.023 A 
ATOM     15  C   LIG    1       -1.107  -0.713   0.424  0.00  0.00    +0.006 A 
ATOM     16  C   LIG    1       -1.090  -2.095   0.412  0.00  0.00    +0.000 A 
ATOM     17  C   LIG    1        0.040  -2.768  -0.012  0.00  0.00    +0.000 A 
ATOM     18  C   LIG    1        1.151  -2.060  -0.429  0.00  0.00    +0.000 A 
ATOM     19  C   LIG    1        1.132  -0.678  -0.422  0.00  0.00    +0.006 A 
ENDBRANCH   5  14
ENDBRANCH   1   5
BRANCH   3  20
ATOM     20  C   LIG    1       -0.728   2.593   3.611  0.00  0.00    +0.200 C 
BRANCH  20  21
ATOM     21  N   LIG    1        0.223   2.649   4.723  0.00  0.00    -0.303 N 
ATOM     22  H   LIG    1        1.272   2.357   4.566  0.00  0.00    +0.150 HD
ATOM     23  C   LIG    1       -0.186   3.058   5.940  0.00  0.00    +0.244 C 
ATOM     24  O   LIG    1       -1.345   3.381   6.115  0.00  0.00    -0.270 OA
BRANCH  23  25
ATOM     25  C   LIG    1        0.773   3.115   7.062  0.00  0.00    +0.037 A 
ATOM     26  C   LIG    1        2.103   2.739   6.866  0.00  0.00    +0.016 A 
ATOM     27  C   LIG    1        2.996   2.800   7.915  0.00  0.00    +0.039 A 
ATOM     28  C   LIG    1        2.571   3.221   9.166  0.00  0.00    +0.123 A 
ATOM     29  F   LIG    1        3.449   3.272  10.192  0.00  0.00    -0.205 F 
ATOM     30  C   LIG    1        1.250   3.589   9.368  0.00  0.00    +0.039 A 
ATOM     31  C   LIG    1        0.351   3.538   8.325  0.00  0.00    +0.016 A 
ENDBRANCH  23  25
ENDBRANCH  20  21
ENDBRANCH   3  20
TORSDOF 7
