REMARK  Name = ZINC42878005
REMARK                            x       y       z     vdW  Elec       q    Type
REMARK                         _______ _______ _______ _____ _____    ______ ____
ROOT
ATOM      1  C   LIG    1       -1.267  -0.758  -0.079  0.00  0.00    +0.136 A 
ATOM      2  C   LIG    1       -1.377  -2.118  -0.024  0.00  0.00    +0.050 A 
ATOM      3  C   LIG    1       -2.741  -2.419   0.027  0.00  0.00    +0.055 A 
ATOM      4  C   LIG    1       -3.415  -1.217   0.001  0.00  0.00    +0.190 A 
ATOM      5  O   LIG    1       -2.500  -0.226  -0.057  0.00  0.00    -0.450 OA
ENDROOT
BRANCH   4   6
ATOM      6  C   LIG    1       -4.869  -1.045   0.036  0.00  0.00    +0.282 C 
ATOM      7  N   LIG    1       -5.399   0.189   0.143  0.00  0.00    -0.293 N 
ATOM      8  C   LIG    1       -4.540   1.383   0.135  0.00  0.00    +0.123 C 
ATOM      9  C   LIG    1       -4.900   2.250   1.347  0.00  0.00    +0.100 C 
ATOM     10  N   LIG    1       -6.343   2.523   1.338  0.00  0.00    -0.313 NA
ATOM     11  H   LIG    1       -6.589   3.187   2.057  0.00  0.00    +0.122 HD
ATOM     12  C   LIG    1       -7.121   1.284   1.478  0.00  0.00    +0.100 C 
ATOM     13  C   LIG    1       -6.853   0.379   0.265  0.00  0.00    +0.123 C 
ATOM     14  O   LIG    1       -5.599  -2.017  -0.032  0.00  0.00    -0.267 OA
ENDBRANCH   4   6
BRANCH   1  21
ATOM     15  C   LIG    1       -0.025   1.397  -0.190  0.00  0.00    +0.013 A 
ATOM     16  C   LIG    1        1.160   2.101  -0.251  0.00  0.00    +0.021 A 
ATOM     17  C   LIG    1        2.369   1.427  -0.266  0.00  0.00    +0.041 A 
ATOM     18 CL   LIG    1        3.856   2.320  -0.342  0.00  0.00    -0.084 Cl
ATOM     19  C   LIG    1        2.398   0.043  -0.221  0.00  0.00    +0.021 A 
ATOM     20  C   LIG    1        1.221  -0.672  -0.160  0.00  0.00    +0.013 A 
ATOM     21  C   LIG    1       -0.002   0.002  -0.144  0.00  0.00    +0.017 A 
ENDBRANCH   1  21
TORSDOF 2
