REMARK  Name = ZINC28104761
REMARK                            x       y       z     vdW  Elec       q    Type
REMARK                         _______ _______ _______ _____ _____    ______ ____
ROOT
ATOM      1  C   LIG    1        1.185   3.247  -0.454  0.00  0.00    -0.095 C 
ATOM      2  N   LIG    1        1.086   2.097   0.455  0.00  0.00    +0.382 N 
ATOM      3  H   LIG    1        2.078   1.622   0.476  0.00  0.00    -0.081 HD
ATOM      4  C   LIG    1        0.708   2.530   1.817  0.00  0.00    -0.078 C 
ATOM      5  C   LIG    1       -0.163   1.375   2.371  0.00  0.00    -0.020 C 
ATOM      6  C   LIG    1       -0.948   0.939   1.106  0.00  0.00    -0.013 C 
ATOM      7  C   LIG    1        0.084   1.129  -0.026  0.00  0.00    -0.038 C 
ENDROOT
BRANCH   7   8
ATOM      8  C   LIG    1       -0.597   1.664  -1.259  0.00  0.00    -0.061 A 
ATOM      9  C   LIG    1       -1.408   2.780  -1.171  0.00  0.00    +0.005 A 
ATOM     10  C   LIG    1       -2.029   3.274  -2.303  0.00  0.00    +0.038 A 
ATOM     11  C   LIG    1       -1.845   2.646  -3.523  0.00  0.00    +0.123 A 
ATOM     12  F   LIG    1       -2.455   3.126  -4.629  0.00  0.00    -0.205 F 
ATOM     13  C   LIG    1       -1.036   1.526  -3.609  0.00  0.00    +0.038 A 
ATOM     14  C   LIG    1       -0.413   1.036  -2.477  0.00  0.00    +0.005 A 
ENDBRANCH   7   8
TORSDOF 1
