REMARK  Name = ZINC66345965
REMARK                            x       y       z     vdW  Elec       q    Type
REMARK                         _______ _______ _______ _____ _____    ______ ____
ROOT
ATOM      1  C   LIG    1       -0.285   1.272  -0.191  0.00  0.00    +0.057 C 
ATOM      2  C   LIG    1       -0.034  -0.230  -0.045  0.00  0.00    +0.204 C 
ENDROOT
BRANCH   2   3
ATOM      3  C   LIG    1        0.764  -0.723  -1.224  0.00  0.00    +0.032 A 
ATOM      4  C   LIG    1        2.118  -0.448  -1.306  0.00  0.00    +0.049 A 
ATOM      5 CL   LIG    1        2.896   0.466  -0.051  0.00  0.00    -0.083 Cl
ATOM      6  C   LIG    1        2.852  -0.900  -2.389  0.00  0.00    +0.023 A 
ATOM      7  C   LIG    1        2.234  -1.627  -3.389  0.00  0.00    +0.041 A 
ATOM      8  C   LIG    1        0.880  -1.903  -3.308  0.00  0.00    +0.142 A 
ATOM      9  F   LIG    1        0.276  -2.614  -4.285  0.00  0.00    -0.204 F 
ATOM     10  C   LIG    1        0.146  -1.455  -2.221  0.00  0.00    +0.084 A 
ATOM     11 CL   LIG    1       -1.551  -1.806  -2.115  0.00  0.00    -0.080 Cl
ENDBRANCH   2   3
BRANCH   2  12
ATOM     12  O   LIG    1        0.693  -0.477   1.160  0.00  0.00    -0.481 OA
BRANCH  12  13
ATOM     13  C   LIG    1       -0.031  -0.600   2.304  0.00  0.00    +0.162 A 
ATOM     14  C   LIG    1       -1.399  -0.373   2.299  0.00  0.00    +0.066 A 
ATOM     15  C   LIG    1       -2.098  -0.510   3.492  0.00  0.00    +0.040 A 
ATOM     16 BR   LIG    1       -3.965  -0.213   3.545  0.00  0.00    -0.049 Br
ATOM     17  C   LIG    1       -1.415  -0.866   4.639  0.00  0.00    +0.128 A 
ATOM     18  N   LIG    1       -0.112  -1.076   4.615  0.00  0.00    -0.236 NA
ATOM     19  C   LIG    1        0.590  -0.961   3.500  0.00  0.00    +0.158 A 
BRANCH  19  20
ATOM     20  N   LIG    1        1.963  -1.197   3.522  0.00  0.00    -0.340 N 
ATOM     21  H   LIG    1        2.399  -1.449   4.351  0.00  0.00    +0.144 HD
ATOM     22  H   LIG    1        2.482  -1.111   2.707  0.00  0.00    +0.144 HD
ENDBRANCH  19  20
ENDBRANCH  12  13
ENDBRANCH   2  12
TORSDOF 4
