REMARK  Name = ZINC16695657
REMARK                            x       y       z     vdW  Elec       q    Type
REMARK                         _______ _______ _______ _____ _____    ______ ____
ROOT
ATOM      1  C   LIG    1       -2.263   1.297   0.232  0.00  0.00    +0.031 C 
ENDROOT
BRANCH   1   2
ATOM      2  C   LIG    1       -3.774   1.418   0.028  0.00  0.00    +0.050 C 
BRANCH   2   6
ATOM      3  C   LIG    1       -4.556   3.452  -3.647  0.00  0.00    +0.000 A 
ATOM      4  C   LIG    1       -3.713   2.356  -3.629  0.00  0.00    +0.000 A 
ATOM      5  C   LIG    1       -3.460   1.698  -2.440  0.00  0.00    +0.004 A 
ATOM      6  C   LIG    1       -4.050   2.135  -1.269  0.00  0.00    -0.040 A 
ATOM      7  C   LIG    1       -4.897   3.228  -1.288  0.00  0.00    +0.004 A 
ATOM      8  C   LIG    1       -5.146   3.889  -2.476  0.00  0.00    +0.000 A 
ENDBRANCH   2   6
BRANCH   2   9
ATOM      9  C   LIG    1       -4.386   0.042  -0.020  0.00  0.00    -0.040 A 
ATOM     10  C   LIG    1       -3.879  -0.911  -0.883  0.00  0.00    +0.004 A 
ATOM     11  C   LIG    1       -4.438  -2.175  -0.923  0.00  0.00    +0.000 A 
ATOM     12  C   LIG    1       -5.510  -2.483  -0.107  0.00  0.00    +0.000 A 
ATOM     13  C   LIG    1       -6.021  -1.528   0.752  0.00  0.00    +0.000 A 
ATOM     14  C   LIG    1       -5.459  -0.266   0.796  0.00  0.00    +0.004 A 
ENDBRANCH   2   9
ENDBRANCH   1   2
BRANCH   1  15
ATOM     15  C   LIG    1       -1.658   2.692   0.405  0.00  0.00    +0.105 C 
BRANCH  15  16
ATOM     16  N   LIG    1       -0.211   2.576   0.601  0.00  0.00    -0.311 N 
ATOM     17  H   LIG    1        0.265   1.584   0.610  0.00  0.00    +0.149 HD
ATOM     18  C   LIG    1        0.537   3.684   0.770  0.00  0.00    +0.245 C 
ATOM     19  O   LIG    1        0.010   4.780   0.765  0.00  0.00    -0.270 OA
BRANCH  18  20
ATOM     20  C   LIG    1        1.995   3.567   0.961  0.00  0.00    +0.053 A 
ATOM     21  C   LIG    1        2.614   2.294   0.968  0.00  0.00    +0.020 A 
ATOM     22  C   LIG    1        3.960   2.216   1.146  0.00  0.00    +0.071 A 
ATOM     23  C   LIG    1        4.705   3.398   1.319  0.00  0.00    +0.249 A 
ATOM     24  N   LIG    1        4.096   4.597   1.310  0.00  0.00    -0.328 N 
ATOM     25  H   LIG    1        4.686   5.515   1.451  0.00  0.00    +0.168 HD
ATOM     26  O   LIG    1        5.913   3.333   1.479  0.00  0.00    -0.268 OA
ATOM     27  C   LIG    1        2.766   4.699   1.129  0.00  0.00    +0.099 A 
ENDBRANCH  18  20
ENDBRANCH  15  16
ENDBRANCH   1  15
TORSDOF 6
