REMARK  Name = ZINC28220268
REMARK                            x       y       z     vdW  Elec       q    Type
REMARK                         _______ _______ _______ _____ _____    ______ ____
ROOT
ATOM      1  N   LIG    1       -2.579   4.764  -0.197  0.00  0.00    -0.324 N 
ATOM      2  C   LIG    1       -1.230   4.635  -0.054  0.00  0.00    +0.200 A 
ATOM      3  N   LIG    1       -0.886   3.387  -0.185  0.00  0.00    -0.232 NA
ATOM      4  C   LIG    1       -1.989   2.633  -0.415  0.00  0.00    +0.128 A 
ATOM      5  C   LIG    1       -2.218   1.267  -0.638  0.00  0.00    +0.144 A 
ATOM      6  N   LIG    1       -3.448   0.829  -0.845  0.00  0.00    -0.238 NA
ATOM      7  C   LIG    1       -4.494   1.639  -0.858  0.00  0.00    +0.115 A 
ATOM      8  C   LIG    1       -4.358   2.984  -0.656  0.00  0.00    +0.048 A 
ATOM      9  C   LIG    1       -3.088   3.510  -0.431  0.00  0.00    +0.074 A 
ENDROOT
BRANCH   5  10
ATOM     10  N   LIG    1       -1.154   0.375  -0.635  0.00  0.00    -0.341 N 
ATOM     11  H   LIG    1       -0.131   0.739  -0.458  0.00  0.00    +0.144 HD
ATOM     12  H   LIG    1       -1.334  -0.697  -0.809  0.00  0.00    +0.144 HD
ENDBRANCH   5  10
BRANCH   1  13
ATOM     13  C   LIG    1       -3.345   6.011  -0.117  0.00  0.00    +0.117 C 
BRANCH  13  14
ATOM     14  C   LIG    1       -2.855   6.981  -1.194  0.00  0.00    +0.134 C 
ATOM     15  C   LIG    1       -3.721   8.242  -1.176  0.00  0.00    +0.040 C 
BRANCH  14  16
ATOM     16  O   LIG    1       -2.950   6.356  -2.476  0.00  0.00    -0.390 OA
ATOM     17  H   LIG    1       -2.641   6.903  -3.378  0.00  0.00    +0.210 HD
ENDBRANCH  14  16
ENDBRANCH  13  14
BRANCH  13  18
ATOM     18  C   LIG    1       -3.150   6.641   1.264  0.00  0.00    +0.028 C 
BRANCH  18  19
ATOM     19  C   LIG    1       -3.743   5.722   2.333  0.00  0.00    +0.002 C 
BRANCH  19  20
ATOM     20  C   LIG    1       -3.651   6.403   3.700  0.00  0.00    +0.000 C 
BRANCH  20  21
ATOM     21  C   LIG    1       -4.245   5.484   4.769  0.00  0.00    -0.000 C 
BRANCH  21  23
ATOM     22  C   LIG    1       -4.747   5.246   7.205  0.00  0.00    +0.004 C 
ATOM     23  C   LIG    1       -4.153   6.165   6.136  0.00  0.00    -0.003 C 
ENDBRANCH  21  23
ENDBRANCH  20  21
ENDBRANCH  19  20
ENDBRANCH  18  19
ENDBRANCH  13  18
ENDBRANCH   1  13
TORSDOF 9
