REMARK  Name = ZINC13985650
REMARK                            x       y       z     vdW  Elec       q    Type
REMARK                         _______ _______ _______ _____ _____    ______ ____
ROOT
ATOM      1  C   LIG    1       -0.914  -0.911  -1.026  0.00  0.00    +0.239 C 
ENDROOT
BRANCH   1   3
ATOM      2  C   LIG    1       -2.717   0.544  -0.090  0.00  0.00    +0.016 C 
ATOM      3  C   LIG    1       -2.213  -0.895  -0.218  0.00  0.00    +0.013 C 
ATOM      4  C   LIG    1       -3.268  -1.744  -0.931  0.00  0.00    +0.016 C 
ATOM      5  C   LIG    1       -1.954  -1.470   1.176  0.00  0.00    +0.016 C 
ENDBRANCH   1   3
BRANCH   1   6
ATOM      6  N   LIG    1        0.096  -0.099  -0.343  0.00  0.00    -0.283 N 
ATOM      7  H   LIG    1        0.221  -0.185   0.615  0.00  0.00    +0.152 HD
ATOM      8  C   LIG    1        0.850   0.770  -1.046  0.00  0.00    +0.220 C 
ATOM      9  O   LIG    1        0.693   0.878  -2.243  0.00  0.00    -0.275 OA
BRANCH   8  10
ATOM     10  C   LIG    1        1.889   1.605  -0.343  0.00  0.00    +0.131 C 
BRANCH  10  11
ATOM     11  C   LIG    1        2.588   2.486  -1.347  0.00  0.00    -0.035 A 
ATOM     12  C   LIG    1        3.720   2.028  -1.995  0.00  0.00    +0.008 A 
ATOM     13  C   LIG    1        4.365   2.832  -2.916  0.00  0.00    +0.049 A 
ATOM     14  C   LIG    1        3.877   4.099  -3.192  0.00  0.00    +0.161 A 
ATOM     15  C   LIG    1        2.737   4.559  -2.540  0.00  0.00    +0.162 A 
ATOM     16  C   LIG    1        2.092   3.747  -1.621  0.00  0.00    +0.053 A 
BRANCH  14  17
ATOM     17  O   LIG    1        4.510   4.891  -4.098  0.00  0.00    -0.491 OA
ATOM     18  C   LIG    1        5.674   4.354  -4.728  0.00  0.00    +0.277 C 
ENDBRANCH  14  17
BRANCH  15  19
ATOM     19  O   LIG    1        2.254   5.802  -2.807  0.00  0.00    -0.491 OA
ATOM     20  C   LIG    1        1.080   6.208  -2.100  0.00  0.00    +0.277 C 
ENDBRANCH  15  19
ENDBRANCH  10  11
ENDBRANCH   8  10
ENDBRANCH   1   6
BRANCH   1  21
ATOM     21  N   LIG    1       -0.432  -2.289  -1.148  0.00  0.00    -0.255 N 
ATOM     22  H   LIG    1       -0.425  -2.871  -0.372  0.00  0.00    +0.260 HD
BRANCH  21  23
ATOM     23  C   LIG    1        0.013  -2.758  -2.366  0.00  0.00    +0.404 C 
ATOM     24  N   LIG    1       -0.123  -2.007  -3.461  0.00  0.00    +0.011 NA
BRANCH  23  25
ATOM     25  N   LIG    1        0.578  -3.957  -2.450  0.00  0.00    -0.242 N 
ATOM     26  H   LIG    1        0.760  -4.348  -3.318  0.00  0.00    +0.265 HD
ATOM     27  C   LIG    1        0.897  -4.633  -1.325  0.00  0.00    +0.109 A 
ATOM     28  C   LIG    1        1.167  -3.952  -0.136  0.00  0.00    +0.043 A 
ATOM     29  C   LIG    1        1.493  -4.653   1.009  0.00  0.00    +0.005 A 
ATOM     30  C   LIG    1        1.562  -6.031   1.021  0.00  0.00    +0.026 A 
ATOM     31  C   LIG    1        1.305  -6.768  -0.128  0.00  0.00    +0.050 A 
ATOM     32  N   LIG    1        1.373  -8.138  -0.120  0.00  0.00    -0.361 N 
ATOM     33  H   LIG    1        1.619  -8.609   0.709  0.00  0.00    +0.165 HD
ATOM     34  C   LIG    1        1.107  -8.843  -1.231  0.00  0.00    +0.083 A 
ATOM     35  C   LIG    1        0.776  -8.224  -2.412  0.00  0.00    +0.018 A 
ATOM     36  C   LIG    1        0.698  -6.839  -2.479  0.00  0.00    +0.015 A 
ATOM     37  C   LIG    1        0.962  -6.095  -1.324  0.00  0.00    +0.037 A 
ENDBRANCH  23  25
BRANCH  24  38
ATOM     38  C   LIG    1        0.183  -2.520  -4.678  0.00  0.00    +0.295 C 
ATOM     39  N   LIG    1        0.440  -2.950  -5.697  0.00  0.00    -0.151 NA
ENDBRANCH  24  38
ENDBRANCH  21  23
ENDBRANCH   1  21
TORSDOF 10
