REMARK  Name = ZINC33966193
REMARK                            x       y       z     vdW  Elec       q    Type
REMARK                         _______ _______ _______ _____ _____    ______ ____
ROOT
ATOM      1  C   LIG    1        0.400   1.405   0.025  0.00  0.00    +0.011 C 
ATOM      2  C   LIG    1        0.469  -0.119   0.138  0.00  0.00    -0.034 C 
ATOM      3  C   LIG    1        1.380  -0.694  -0.948  0.00  0.00    +0.011 C 
ATOM      4  C   LIG    1       -0.949  -0.734   0.043  0.00  0.00    +0.007 C 
ATOM      5  C   LIG    1       -1.501  -0.544   1.478  0.00  0.00    +0.006 C 
ATOM      6  C   LIG    1       -0.284  -0.805   2.389  0.00  0.00    -0.034 C 
ATOM      7  C   LIG    1        0.969  -0.535   1.537  0.00  0.00    +0.012 C 
ENDROOT
BRANCH   6   8
ATOM      8  C   LIG    1       -0.289  -2.259   2.867  0.00  0.00    -0.079 C 
BRANCH   8   9
ATOM      9  N   LIG    1       -1.455  -2.486   3.731  0.00  0.00    +0.378 N 
ATOM     10  H   LIG    1       -1.492  -3.459   3.997  0.00  0.00    -0.090 HD
ATOM     11  H   LIG    1       -2.297  -2.241   3.231  0.00  0.00    -0.090 HD
ATOM     12  H   LIG    1       -1.377  -1.914   4.558  0.00  0.00    -0.090 HD
ENDBRANCH   8   9
ENDBRANCH   6   8
BRANCH   6  13
ATOM     13  C   LIG    1       -0.316   0.142   3.590  0.00  0.00    +0.125 C 
BRANCH  13  14
ATOM     14  C   LIG    1        0.936  -0.042   4.408  0.00  0.00    +0.305 C 
ATOM     15  O   LIG    1        1.805  -0.808   4.029  0.00  0.00    -0.251 OA
BRANCH  14  16
ATOM     16  O   LIG    1        1.080   0.576   5.449  0.00  0.00    -0.481 OA
ATOM     17  H   LIG    1        0.412   1.165   5.741  0.00  0.00    +0.295 HD
ENDBRANCH  14  16
ENDBRANCH  13  14
ENDBRANCH   6  13
TORSDOF 5
