REMARK  Name = ZINC19685795
REMARK                            x       y       z     vdW  Elec       q    Type
REMARK                         _______ _______ _______ _____ _____    ______ ____
ROOT
ATOM      1  C   LIG    1       -2.317  -0.435  -0.361  0.00  0.00    +0.338 C 
ATOM      2  O   LIG    1       -2.173   0.775  -0.346  0.00  0.00    -0.245 OA
ENDROOT
BRANCH   1   5
ATOM      3  C   LIG    1        0.251   0.733  -0.433  0.00  0.00    +0.066 C 
ATOM      4  C   LIG    1        0.073  -0.763  -0.451  0.00  0.00    +0.049 C 
ATOM      5  C   LIG    1       -1.192  -1.276  -0.415  0.00  0.00    +0.069 C 
ATOM      6  C   LIG    1       -1.339  -2.786  -0.436  0.00  0.00    +0.096 C 
ATOM      7  C   LIG    1       -0.043  -3.577  -0.494  0.00  0.00    +0.065 C 
ATOM      8  C   LIG    1        1.146  -2.846  -0.524  0.00  0.00    +0.049 C 
ATOM      9  C   LIG    1        2.459  -3.584  -0.582  0.00  0.00    +0.066 C 
ATOM     10  C   LIG    1       -0.042  -4.954  -0.518  0.00  0.00    +0.285 C 
ATOM     11  N   LIG    1        1.150  -1.533  -0.507  0.00  0.00    -0.256 NA
BRANCH   6  12
ATOM     12  C   LIG    1       -2.170  -3.162  -1.635  0.00  0.00    -0.033 A 
ATOM     13  C   LIG    1       -1.735  -2.838  -2.907  0.00  0.00    +0.005 A 
ATOM     14  C   LIG    1       -2.498  -3.183  -4.007  0.00  0.00    +0.003 A 
ATOM     15  C   LIG    1       -3.695  -3.853  -3.835  0.00  0.00    +0.032 A 
ATOM     16  C   LIG    1       -4.129  -4.178  -2.564  0.00  0.00    +0.122 A 
ATOM     17  C   LIG    1       -3.364  -3.837  -1.464  0.00  0.00    +0.037 A 
BRANCH  16  18
ATOM     18  N   LIG    1       -5.411  -4.895  -2.381  0.00  0.00    +0.006 N 
ATOM     19  O   LIG    1       -6.079  -5.196  -3.343  0.00  0.00    -0.130 OA
BRANCH  18  20
ATOM     20  O   LIG    1       -5.791  -5.179  -1.269  0.00  0.00    -0.396 OA
ATOM     21  H   LIG    1       -5.274  -4.946  -0.523  0.00  0.00    +0.329 HD
ENDBRANCH  18  20
ENDBRANCH  16  18
ENDBRANCH   6  12
BRANCH  10  22
ATOM     22  O   LIG    1       -1.196  -5.632  -0.359  0.00  0.00    -0.467 OA
ATOM     23  C   LIG    1       -1.121  -7.058  -0.395  0.00  0.00    +0.280 C 
ENDBRANCH  10  22
BRANCH  10  24
ATOM     24  O   LIG    1        1.113  -5.624  -0.700  0.00  0.00    -0.480 OA
ATOM     25  H   LIG    1        1.915  -5.153  -0.810  0.00  0.00    +0.295 HD
ENDBRANCH  10  24
ENDBRANCH   1   5
BRANCH   1  26
ATOM     26  O   LIG    1       -3.558  -0.968  -0.327  0.00  0.00    -0.460 OA
BRANCH  26  27
ATOM     27  C   LIG    1       -4.655  -0.054  -0.273  0.00  0.00    +0.248 C 
BRANCH  27  28
ATOM     28  C   LIG    1       -5.969  -0.837  -0.240  0.00  0.00    +0.125 C 
BRANCH  28  29
ATOM     29  N   LIG    1       -6.038  -1.626   0.997  0.00  0.00    -0.297 NA
ATOM     30  C   LIG    1       -7.022  -2.711   0.875  0.00  0.00    +0.100 C 
ATOM     31  C   LIG    1       -7.007  -3.556   2.152  0.00  0.00    +0.100 C 
ATOM     32  N   LIG    1       -7.311  -2.699   3.307  0.00  0.00    -0.289 NA
ATOM     33  C   LIG    1       -6.328  -1.615   3.428  0.00  0.00    +0.100 C 
ATOM     34  C   LIG    1       -6.343  -0.770   2.152  0.00  0.00    +0.100 C 
BRANCH  32  35
ATOM     35  C   LIG    1       -7.381  -3.489   4.544  0.00  0.00    +0.117 C 
BRANCH  35  36
ATOM     36  C   LIG    1       -8.462  -4.530   4.415  0.00  0.00    -0.026 A 
ATOM     37  C   LIG    1       -9.656  -4.214   3.793  0.00  0.00    +0.005 A 
ATOM     38  C   LIG    1      -10.648  -5.169   3.676  0.00  0.00    +0.000 A 
ATOM     39  C   LIG    1      -10.447  -6.440   4.180  0.00  0.00    +0.000 A 
ATOM     40  C   LIG    1       -9.253  -6.756   4.801  0.00  0.00    +0.000 A 
ATOM     41  C   LIG    1       -8.259  -5.803   4.915  0.00  0.00    +0.005 A 
ENDBRANCH  35  36
BRANCH  35  42
ATOM     42  C   LIG    1       -7.694  -2.579   5.703  0.00  0.00    -0.026 A 
ATOM     43  C   LIG    1       -8.616  -1.560   5.553  0.00  0.00    +0.005 A 
ATOM     44  C   LIG    1       -8.904  -0.725   6.616  0.00  0.00    +0.000 A 
ATOM     45  C   LIG    1       -8.270  -0.909   7.830  0.00  0.00    +0.000 A 
ATOM     46  C   LIG    1       -7.348  -1.929   7.981  0.00  0.00    +0.000 A 
ATOM     47  C   LIG    1       -7.064  -2.766   6.919  0.00  0.00    +0.005 A 
ENDBRANCH  35  42
ENDBRANCH  32  35
ENDBRANCH  28  29
ENDBRANCH  27  28
ENDBRANCH  26  27
ENDBRANCH   1  26
TORSDOF 13
