REMARK  Name = ZINC18098320
REMARK                            x       y       z     vdW  Elec       q    Type
REMARK                         _______ _______ _______ _____ _____    ______ ____
ROOT
ATOM      1  C   LIG    1       -4.246  -9.101  -0.931  0.00  0.00    +0.003 C 
ENDROOT
BRANCH   1   2
ATOM      2  C   LIG    1       -5.711  -9.530  -0.830  0.00  0.00    +0.003 C 
BRANCH   2   3
ATOM      3  C   LIG    1       -5.788 -10.964  -0.302  0.00  0.00    +0.037 C 
BRANCH   3   4
ATOM      4  C   LIG    1       -7.253 -11.392  -0.201  0.00  0.00    +0.195 C 
BRANCH   4   5
ATOM      5  N   LIG    1       -7.327 -12.765   0.305  0.00  0.00    -0.278 N 
ATOM      6  H   LIG    1       -6.513 -13.248   0.515  0.00  0.00    +0.258 HD
BRANCH   5   7
ATOM      7  C   LIG    1       -8.550 -13.368   0.480  0.00  0.00    +0.353 C 
ATOM      8  N   LIG    1       -9.635 -12.768   0.082  0.00  0.00    -0.291 N 
ATOM      9  H   LIG    1       -9.576 -11.931  -0.405  0.00  0.00    +0.255 HD
ATOM     10  H   LIG    1      -10.503 -13.158   0.273  0.00  0.00    +0.255 HD
BRANCH   7  11
ATOM     11  N   LIG    1       -8.628 -14.608   1.078  0.00  0.00    -0.188 N 
ATOM     12  H   LIG    1       -9.476 -15.078   1.113  0.00  0.00    +0.271 HD
BRANCH  11  13
ATOM     13  C   LIG    1       -7.499 -15.182   1.627  0.00  0.00    +0.392 C 
ATOM     14  N   LIG    1       -6.396 -14.495   1.713  0.00  0.00    -0.129 NA
ATOM     15  H   LIG    1       -5.624 -14.871   2.164  0.00  0.00    +0.306 HD
BRANCH  13  16
ATOM     16  N   LIG    1       -7.539 -16.479   2.083  0.00  0.00    -0.243 N 
ATOM     17  H   LIG    1       -6.771 -16.856   2.540  0.00  0.00    +0.265 HD
BRANCH  16  18
ATOM     18  C   LIG    1       -8.687 -17.255   1.888  0.00  0.00    +0.100 A 
ATOM     19  C   LIG    1       -9.360 -17.207   0.674  0.00  0.00    +0.043 A 
ATOM     20  C   LIG    1      -10.493 -17.974   0.484  0.00  0.00    +0.023 A 
ATOM     21  C   LIG    1      -10.958 -18.789   1.502  0.00  0.00    +0.041 A 
ATOM     22 CL   LIG    1      -12.382 -19.751   1.259  0.00  0.00    -0.084 Cl
ATOM     23  C   LIG    1      -10.289 -18.838   2.712  0.00  0.00    +0.023 A 
ATOM     24  C   LIG    1       -9.152 -18.077   2.906  0.00  0.00    +0.043 A 
ENDBRANCH  16  18
ENDBRANCH  13  16
ENDBRANCH  11  13
ENDBRANCH   7  11
ENDBRANCH   5   7
ENDBRANCH   4   5
ENDBRANCH   3   4
ENDBRANCH   2   3
ENDBRANCH   1   2
BRANCH   1  25
ATOM     25  C   LIG    1       -4.169  -7.668  -1.459  0.00  0.00    +0.037 C 
BRANCH  25  26
ATOM     26  C   LIG    1       -2.703  -7.239  -1.561  0.00  0.00    +0.195 C 
BRANCH  26  27
ATOM     27  N   LIG    1       -2.630  -5.866  -2.066  0.00  0.00    -0.278 N 
ATOM     28  H   LIG    1       -3.444  -5.383  -2.277  0.00  0.00    +0.258 HD
BRANCH  27  29
ATOM     29  C   LIG    1       -1.407  -5.263  -2.242  0.00  0.00    +0.353 C 
ATOM     30  N   LIG    1       -0.312  -5.951  -2.080  0.00  0.00    -0.291 N 
ATOM     31  H   LIG    1        0.550  -5.509  -2.130  0.00  0.00    +0.255 HD
ATOM     32  H   LIG    1       -0.359  -6.905  -1.911  0.00  0.00    +0.255 HD
BRANCH  29  33
ATOM     33  N   LIG    1       -1.339  -3.930  -2.588  0.00  0.00    -0.188 N 
ATOM     34  H   LIG    1       -0.577  -3.597  -3.088  0.00  0.00    +0.271 HD
BRANCH  33  35
ATOM     35  C   LIG    1       -2.354  -3.070  -2.224  0.00  0.00    +0.392 C 
ATOM     36  N   LIG    1       -2.352  -1.840  -2.654  0.00  0.00    -0.129 NA
ATOM     37  H   LIG    1       -1.677  -1.549  -3.288  0.00  0.00    +0.306 HD
BRANCH  35  38
ATOM     38  N   LIG    1       -3.369  -3.511  -1.407  0.00  0.00    -0.243 N 
ATOM     39  H   LIG    1       -3.353  -4.416  -1.058  0.00  0.00    +0.265 HD
BRANCH  38  46
ATOM     40  C   LIG    1       -4.851  -1.694  -1.988  0.00  0.00    +0.043 A 
ATOM     41  C   LIG    1       -5.894  -0.850  -1.661  0.00  0.00    +0.023 A 
ATOM     42  C   LIG    1       -6.515  -0.960  -0.429  0.00  0.00    +0.041 A 
ATOM     43 CL   LIG    1       -7.826   0.103  -0.022  0.00  0.00    -0.084 Cl
ATOM     44  C   LIG    1       -6.093  -1.915   0.478  0.00  0.00    +0.023 A 
ATOM     45  C   LIG    1       -5.051  -2.762   0.157  0.00  0.00    +0.043 A 
ATOM     46  C   LIG    1       -4.426  -2.654  -1.078  0.00  0.00    +0.100 A 
ENDBRANCH  38  46
ENDBRANCH  35  38
ENDBRANCH  33  35
ENDBRANCH  29  33
ENDBRANCH  27  29
ENDBRANCH  26  27
ENDBRANCH  25  26
ENDBRANCH   1  25
TORSDOF 17
