REMARK  Name = ZINC71294691
REMARK                            x       y       z     vdW  Elec       q    Type
REMARK                         _______ _______ _______ _____ _____    ______ ____
ROOT
ATOM      1  C   LIG    1        3.801   1.514   0.287  0.00  0.00    +0.247 C 
ATOM      2  N   LIG    1        4.309   0.853  -0.739  0.00  0.00    -0.292 N 
ATOM      3  H   LIG    1        5.219   1.028  -1.026  0.00  0.00    +0.301 HD
ATOM      4  H   LIG    1        3.772   0.193  -1.205  0.00  0.00    +0.301 HD
ENDROOT
BRANCH   1   7
ATOM      5  C   LIG    1       -0.019   1.537   0.011  0.00  0.00    +0.012 C 
ATOM      6  C   LIG    1        1.374   2.165   0.001  0.00  0.00    +0.027 C 
ATOM      7  C   LIG    1        2.387   1.241   0.733  0.00  0.00    +0.157 C 
ATOM      8  S   LIG    1        1.795  -0.402   0.132  0.00  0.00    -0.145 S 
ATOM      9  C   LIG    1        0.002  -0.004   0.002  0.00  0.00    +0.070 C 
ENDBRANCH   1   7
BRANCH   1  10
ATOM     10  N   LIG    1        4.532   2.413   0.922  0.00  0.00    -0.253 N 
ATOM     11  H   LIG    1        5.442   2.588   0.635  0.00  0.00    +0.288 HD
ATOM     12  H   LIG    1        4.159   2.898   1.674  0.00  0.00    +0.288 HD
ENDBRANCH   1  10
TORSDOF 2
