REMARK  Name = ZINC15804848
REMARK                            x       y       z     vdW  Elec       q    Type
REMARK                         _______ _______ _______ _____ _____    ______ ____
ROOT
ATOM      1  N   LIG    1        1.708  -3.088  -2.786  0.00  0.00    -0.276 N 
ATOM      2  C   LIG    1        0.880  -3.152  -3.895  0.00  0.00    +0.168 A 
ATOM      3  C   LIG    1        1.422  -3.533  -5.116  0.00  0.00    +0.149 A 
ATOM      4  N   LIG    1        0.383  -3.508  -6.024  0.00  0.00    -0.336 N 
ATOM      5  C   LIG    1       -0.720  -3.126  -5.351  0.00  0.00    +0.114 A 
ATOM      6  H   LIG    1        0.436  -3.726  -6.968  0.00  0.00    +0.167 HD
ATOM      7  C   LIG    1        2.797  -3.844  -5.191  0.00  0.00    +0.283 A 
ATOM      8  N   LIG    1        3.552  -3.763  -4.076  0.00  0.00    -0.255 N 
ATOM      9  O   LIG    1        3.295  -4.181  -6.250  0.00  0.00    -0.265 OA
ATOM     10  N   LIG    1       -0.420  -2.917  -4.095  0.00  0.00    -0.214 NA
ATOM     11  C   LIG    1        3.015  -3.387  -2.902  0.00  0.00    +0.334 A 
ATOM     12  O   LIG    1        3.728  -3.320  -1.919  0.00  0.00    -0.246 OA
ENDROOT
BRANCH   1  13
ATOM     13  C   LIG    1        1.161  -2.688  -1.487  0.00  0.00    +0.128 C 
BRANCH  13  14
ATOM     14  C   LIG    1        1.260  -1.169  -1.337  0.00  0.00    +0.021 C 
BRANCH  14  16
ATOM     15  C   LIG    1        0.788   0.768   0.169  0.00  0.00    +0.004 C 
ATOM     16  C   LIG    1        0.690  -0.751   0.019  0.00  0.00    -0.002 C 
ENDBRANCH  14  16
ENDBRANCH  13  14
ENDBRANCH   1  13
BRANCH   5  17
ATOM     17  C   LIG    1       -2.091  -2.963  -5.954  0.00  0.00    +0.109 C 
BRANCH  17  18
ATOM     18  C   LIG    1       -3.081  -3.801  -5.186  0.00  0.00    -0.040 A 
ATOM     19  C   LIG    1       -3.317  -5.109  -5.565  0.00  0.00    +0.006 A 
ATOM     20  C   LIG    1       -4.223  -5.880  -4.863  0.00  0.00    +0.023 A 
ATOM     21  C   LIG    1       -4.897  -5.339  -3.776  0.00  0.00    +0.033 A 
ATOM     22  C   LIG    1       -4.657  -4.025  -3.398  0.00  0.00    +0.023 A 
ATOM     23  C   LIG    1       -3.746  -3.261  -4.101  0.00  0.00    +0.006 A 
BRANCH  21  24
ATOM     24  N   LIG    1       -5.816  -6.117  -3.063  0.00  0.00    -0.286 N 
ATOM     25  H   LIG    1       -6.599  -5.703  -2.668  0.00  0.00    +0.155 HD
ATOM     26  C   LIG    1       -5.614  -7.443  -2.926  0.00  0.00    +0.214 C 
ATOM     27  C   LIG    1       -6.660  -8.300  -2.262  0.00  0.00    +0.109 C 
ATOM     28  O   LIG    1       -4.589  -7.945  -3.336  0.00  0.00    -0.276 OA
ENDBRANCH  21  24
ENDBRANCH  17  18
ENDBRANCH   5  17
BRANCH   8  29
ATOM     29  C   LIG    1        4.980  -4.084  -4.146  0.00  0.00    +0.168 C 
BRANCH  29  30
ATOM     30  C   LIG    1        5.760  -2.835  -4.466  0.00  0.00    +0.008 A 
ATOM     31  C   LIG    1        6.182  -2.596  -5.761  0.00  0.00    +0.008 A 
ATOM     32  C   LIG    1        6.898  -1.451  -6.054  0.00  0.00    +0.000 A 
ATOM     33  C   LIG    1        7.193  -0.543  -5.054  0.00  0.00    +0.003 A 
ATOM     34  C   LIG    1        6.772  -0.780  -3.759  0.00  0.00    +0.039 A 
ATOM     35  C   LIG    1        6.050  -1.925  -3.465  0.00  0.00    +0.128 A 
ATOM     36  F   LIG    1        5.634  -2.155  -2.200  0.00  0.00    -0.205 F 
ENDBRANCH  29  30
ENDBRANCH   8  29
TORSDOF 8
