REMARK  Name = ZINC28475732
REMARK                            x       y       z     vdW  Elec       q    Type
REMARK                         _______ _______ _______ _____ _____    ______ ____
ROOT
ATOM      1  C   LIG    1       -1.731  -1.052  -1.429  0.00  0.00    +0.271 C 
ENDROOT
BRANCH   1   2
ATOM      2  P   LIG    1       -3.284  -2.007  -1.419  0.00  0.00    +0.371 P 
ATOM      3  O   LIG    1       -3.055  -3.355  -0.700  0.00  0.00    -0.255 OA
BRANCH   2   4
ATOM      4  O   LIG    1       -3.756  -2.280  -2.933  0.00  0.00    -0.322 OA
ATOM      5  H   LIG    1       -4.578  -2.784  -3.004  0.00  0.00    +0.220 HD
ENDBRANCH   2   4
BRANCH   2   6
ATOM      6  O   LIG    1       -4.376  -1.205  -0.675  0.00  0.00    -0.322 OA
ATOM      7  H   LIG    1       -4.091  -1.041   0.237  0.00  0.00    +0.220 HD
ENDBRANCH   2   6
ENDBRANCH   1   2
BRANCH   1   8
ATOM      8  P   LIG    1       -0.442  -1.998  -2.306  0.00  0.00    +0.371 P 
ATOM      9  O   LIG    1        0.854  -1.126  -2.427  0.00  0.00    -0.255 OA
BRANCH   8  10
ATOM     10  O   LIG    1       -0.954  -2.373  -3.739  0.00  0.00    -0.322 OA
ATOM     11  H   LIG    1       -1.154  -1.563  -4.233  0.00  0.00    +0.220 HD
ENDBRANCH   8  10
BRANCH   8  12
ATOM     12  O   LIG    1       -0.119  -3.306  -1.507  0.00  0.00    -0.322 OA
ATOM     13  H   LIG    1        0.198  -3.074  -0.621  0.00  0.00    +0.220 HD
ENDBRANCH   8  12
ENDBRANCH   1   8
BRANCH   1  14
ATOM     14  O   LIG    1       -1.942   0.195  -2.094  0.00  0.00    -0.367 OA
ATOM     15  H   LIG    1       -2.616   0.751  -1.681  0.00  0.00    +0.212 HD
ENDBRANCH   1  14
BRANCH   1  16
ATOM     16  C   LIG    1       -1.282  -0.793   0.011  0.00  0.00    +0.095 C 
BRANCH  16  22
ATOM     17  C   LIG    1       -0.017   1.382   0.010  0.00  0.00    +0.023 A 
ATOM     18  C   LIG    1        1.181   2.072   0.002  0.00  0.00    +0.111 A 
ATOM     19  N   LIG    1        2.331   1.427  -0.013  0.00  0.00    -0.263 NA
ATOM     20  C   LIG    1        2.387   0.109  -0.021  0.00  0.00    +0.111 A 
ATOM     21  C   LIG    1        1.230  -0.647  -0.013  0.00  0.00    +0.023 A 
ATOM     22  C   LIG    1        0.002  -0.004   0.002  0.00  0.00    -0.041 A 
ENDBRANCH  16  22
ENDBRANCH   1  16
TORSDOF 9
