REMARK  Name = ZINC49723001
REMARK                            x       y       z     vdW  Elec       q    Type
REMARK                         _______ _______ _______ _____ _____    ______ ____
ROOT
ATOM      1  N   LIG    1        3.623  -0.651  -0.037  0.00  0.00    -0.239 N 
ATOM      2  C   LIG    1        3.764  -1.990  -0.051  0.00  0.00    +0.123 A 
ATOM      3  C   LIG    1        5.117  -2.272  -0.065  0.00  0.00    +0.022 A 
ATOM      4  C   LIG    1        5.809  -0.978  -0.058  0.00  0.00    +0.100 A 
ATOM      5  N   LIG    1        4.882  -0.046  -0.048  0.00  0.00    -0.166 NA
ENDROOT
BRANCH   3   6
ATOM      6  C   LIG    1        5.739  -3.601  -0.082  0.00  0.00    +0.032 C 
ATOM      7  C   LIG    1        4.960  -4.715  -0.086  0.00  0.00    +0.077 C 
ATOM      8  C   LIG    1        5.353  -6.135  -0.097  0.00  0.00    +0.258 C 
ATOM      9  N   LIG    1        4.373  -7.023  -0.099  0.00  0.00    -0.254 N 
ATOM     10  C   LIG    1        3.079  -6.642  -0.092  0.00  0.00    +0.121 C 
ATOM     11  S   LIG    1        1.680  -7.630  -0.093  0.00  0.00    -0.027 S 
ATOM     12  O   LIG    1        6.522  -6.474  -0.103  0.00  0.00    -0.269 OA
ATOM     13  S   LIG    1        3.179  -4.860  -0.074  0.00  0.00    -0.061 S 
BRANCH   9  14
ATOM     14  C   LIG    1        4.700  -8.451  -0.109  0.00  0.00    +0.140 C 
BRANCH  14  15
ATOM     15  C   LIG    1        4.819  -8.957   1.330  0.00  0.00    +0.217 C 
BRANCH  15  16
ATOM     16  S   LIG    1        5.223 -10.725   1.318  0.00  0.00    +0.081 S 
ATOM     17  O   LIG    1        4.197 -11.476   0.613  0.00  0.00    -0.147 OA
ATOM     18  O   LIG    1        5.367 -11.223   2.677  0.00  0.00    -0.147 OA
BRANCH  16  19
ATOM     19  O   LIG    1        6.491 -10.816   0.610  0.00  0.00    -0.254 OA
ATOM     20  H   LIG    1        7.166 -10.312   1.090  0.00  0.00    +0.244 HD
ENDBRANCH  16  19
ENDBRANCH  15  16
ENDBRANCH  14  15
ENDBRANCH   9  14
ENDBRANCH   3   6
BRANCH   1  24
ATOM     21  C   LIG    1       -0.017   1.379   0.010  0.00  0.00    +0.000 A 
ATOM     22  C   LIG    1        1.170   2.089   0.002  0.00  0.00    +0.002 A 
ATOM     23  C   LIG    1        2.377   1.419  -0.013  0.00  0.00    +0.028 A 
ATOM     24  C   LIG    1        2.400   0.031  -0.021  0.00  0.00    +0.065 A 
ATOM     25  C   LIG    1        1.206  -0.680  -0.013  0.00  0.00    +0.028 A 
ATOM     26  C   LIG    1        0.002  -0.004   0.002  0.00  0.00    +0.002 A 
ENDBRANCH   1  24
BRANCH   4  27
ATOM     27  C   LIG    1        7.275  -0.762  -0.067  0.00  0.00    +0.003 A 
ATOM     28  C   LIG    1        8.116  -1.648   0.606  0.00  0.00    +0.013 A 
ATOM     29  C   LIG    1        9.480  -1.444   0.596  0.00  0.00    +0.046 A 
ATOM     30  C   LIG    1       10.016  -0.358  -0.084  0.00  0.00    +0.121 A 
ATOM     31  C   LIG    1        9.182   0.526  -0.754  0.00  0.00    +0.046 A 
ATOM     32  C   LIG    1        7.817   0.325  -0.753  0.00  0.00    +0.013 A 
BRANCH  30  33
ATOM     33  O   LIG    1       11.360  -0.161  -0.092  0.00  0.00    -0.487 OA
BRANCH  33  34
ATOM     34  C   LIG    1       11.844   0.976  -0.810  0.00  0.00    +0.267 C 
BRANCH  34  35
ATOM     35  C   LIG    1       13.347   1.032  -0.709  0.00  0.00    +0.025 A 
ATOM     36  C   LIG    1       14.028   0.060  -0.000  0.00  0.00    +0.010 A 
ATOM     37  C   LIG    1       15.407   0.111   0.093  0.00  0.00    +0.001 A 
ATOM     38  C   LIG    1       16.105   1.134  -0.522  0.00  0.00    +0.003 A 
ATOM     39  C   LIG    1       15.426   2.106  -1.231  0.00  0.00    +0.039 A 
ATOM     40  C   LIG    1       14.045   2.053  -1.330  0.00  0.00    +0.130 A 
ATOM     41  F   LIG    1       13.381   3.000  -2.027  0.00  0.00    -0.205 F 
ENDBRANCH  34  35
ENDBRANCH  33  34
ENDBRANCH  30  33
ENDBRANCH   4  27
TORSDOF 10
