REMARK  Name = ZINC33967579
REMARK                            x       y       z     vdW  Elec       q    Type
REMARK                         _______ _______ _______ _____ _____    ______ ____
ROOT
ATOM      1  C   LIG    1        0.068  -2.828  -0.062  0.00  0.00    +0.248 C 
ATOM      2  N   LIG    1        0.124  -4.173  -0.136  0.00  0.00    -0.311 N 
ATOM      3  H   LIG    1        0.556  -4.599  -0.893  0.00  0.00    +0.149 HD
ATOM      4  O   LIG    1       -0.474  -2.294   0.887  0.00  0.00    -0.270 OA
ENDROOT
BRANCH   1  11
ATOM      5  C   LIG    1        0.605  -0.606  -1.054  0.00  0.00    +0.134 A 
ATOM      6  C   LIG    1        1.171   0.158  -2.059  0.00  0.00    +0.070 A 
ATOM      7  C   LIG    1        1.788  -0.464  -3.138  0.00  0.00    +0.047 A 
ATOM      8  C   LIG    1        1.837  -1.856  -3.211  0.00  0.00    +0.062 A 
ATOM      9 CL   LIG    1        2.609  -2.623  -4.564  0.00  0.00    -0.082 Cl
ATOM     10  C   LIG    1        1.280  -2.619  -2.225  0.00  0.00    +0.038 A 
ATOM     11  C   LIG    1        0.662  -2.006  -1.129  0.00  0.00    +0.080 A 
BRANCH   7  12
ATOM     12  N   LIG    1        2.357   0.304  -4.149  0.00  0.00    -0.357 N 
ATOM     13  H   LIG    1        2.788  -0.129  -4.902  0.00  0.00    +0.142 HD
ATOM     14  H   LIG    1        2.323   1.272  -4.099  0.00  0.00    +0.142 HD
ENDBRANCH   7  12
BRANCH   5  16
ATOM     15  C   LIG    1       -0.017   1.425   0.010  0.00  0.00    +0.277 C 
ATOM     16  O   LIG    1        0.002  -0.004   0.002  0.00  0.00    -0.494 OA
ENDBRANCH   5  16
ENDBRANCH   1  11
BRANCH   2  17
ATOM     17  C   LIG    1       -0.468  -4.990   0.926  0.00  0.00    +0.108 C 
BRANCH  17  18
ATOM     18  C   LIG    1       -0.268  -6.472   0.600  0.00  0.00    +0.003 C 
ATOM     19  C   LIG    1       -1.059  -6.830  -0.662  0.00  0.00    -0.014 C 
ATOM     20  C   LIG    1       -0.919  -8.329  -0.937  0.00  0.00    -0.082 C 
ATOM     21  N   LIG    1       -1.443  -9.090   0.203  0.00  0.00    +0.379 N 
ATOM     22  H   LIG    1       -1.399 -10.076  -0.004  0.00  0.00    -0.086 HD
ATOM     23  H   LIG    1       -2.403  -8.826   0.370  0.00  0.00    -0.086 HD
ATOM     24  C   LIG    1       -0.644  -8.806   1.401  0.00  0.00    -0.082 C 
ATOM     25  C   LIG    1       -0.773  -7.326   1.766  0.00  0.00    -0.014 C 
ENDBRANCH  17  18
ENDBRANCH   2  17
TORSDOF 5
