REMARK  Name = ZINC24629762
REMARK                            x       y       z     vdW  Elec       q    Type
REMARK                         _______ _______ _______ _____ _____    ______ ____
ROOT
ATOM      1  P   LIG    1       -0.018   1.476   0.010  0.00  0.00    +0.434 P 
ATOM      2  O   LIG    1        0.002  -0.004   0.002  0.00  0.00    -0.247 OA
ENDROOT
BRANCH   1   3
ATOM      3  C   LIG    1       -0.867   2.061   1.503  0.00  0.00    +0.418 C 
ATOM      4  O   LIG    1       -0.282   2.759   2.296  0.00  0.00    -0.237 OA
BRANCH   3   5
ATOM      5  O   LIG    1       -2.146   1.718   1.725  0.00  0.00    -0.472 OA
ATOM      6  H   LIG    1       -2.599   1.176   1.110  0.00  0.00    +0.296 HD
ENDBRANCH   3   5
ENDBRANCH   1   3
BRANCH   1   7
ATOM      7  O   LIG    1       -0.797   2.009  -1.294  0.00  0.00    -0.316 OA
ATOM      8  H   LIG    1       -0.427   1.754  -2.298  0.00  0.00    +0.220 HD
ENDBRANCH   1   7
BRANCH   1   9
ATOM      9  O   LIG    1        1.492   2.033  -0.001  0.00  0.00    -0.316 OA
ATOM     10  H   LIG    1        1.962   1.712   0.785  0.00  0.00    +0.220 HD
ENDBRANCH   1   9
TORSDOF 4
