REMARK  Name = ZINC49070412
REMARK                            x       y       z     vdW  Elec       q    Type
REMARK                         _______ _______ _______ _____ _____    ______ ____
ROOT
ATOM      1  C   LIG    1       -0.016   1.358   0.009  0.00  0.00    +0.003 A 
ATOM      2  C   LIG    1        1.164   2.093   0.002  0.00  0.00    +0.011 A 
ATOM      3  C   LIG    1        2.392   1.455  -0.013  0.00  0.00    +0.010 A 
ATOM      4  C   LIG    1        2.439   0.040  -0.021  0.00  0.00    +0.098 A 
ATOM      5  C   LIG    1        1.226  -0.694  -0.013  0.00  0.00    +0.090 A 
ATOM      6  N   LIG    1        1.261  -2.032  -0.020  0.00  0.00    -0.251 NA
ATOM      7  C   LIG    1        2.414  -2.656  -0.035  0.00  0.00    +0.139 A 
ATOM      8  C   LIG    1        3.620  -1.931  -0.042  0.00  0.00    +0.093 A 
ATOM      9  N   LIG    1        3.605  -0.608  -0.036  0.00  0.00    -0.243 NA
ATOM     10  C   LIG    1        0.002  -0.004   0.002  0.00  0.00    +0.030 A 
ENDROOT
BRANCH   3  11
ATOM     11  C   LIG    1        3.644   2.245  -0.022  0.00  0.00    -0.010 A 
ATOM     12  C   LIG    1        4.661   1.954   0.887  0.00  0.00    +0.047 A 
ATOM     13  C   LIG    1        5.829   2.695   0.875  0.00  0.00    +0.131 A 
ATOM     14  F   LIG    1        6.814   2.413   1.754  0.00  0.00    -0.205 F 
ATOM     15  C   LIG    1        5.989   3.724  -0.038  0.00  0.00    +0.037 A 
ATOM     16  C   LIG    1        4.982   4.018  -0.943  0.00  0.00    +0.131 A 
ATOM     17  F   LIG    1        5.144   5.024  -1.829  0.00  0.00    -0.205 F 
ATOM     18  C   LIG    1        3.813   3.279  -0.943  0.00  0.00    +0.047 A 
BRANCH  15  19
ATOM     19  C   LIG    1        7.263   4.528  -0.046  0.00  0.00    +0.125 C 
BRANCH  19  20
ATOM     20  N   LIG    1        8.232   3.901  -0.955  0.00  0.00    -0.294 NA
ATOM     21  C   LIG    1        8.658   2.589  -0.446  0.00  0.00    +0.113 C 
ATOM     22  C   LIG    1        9.619   1.946  -1.450  0.00  0.00    +0.175 C 
ATOM     23  O   LIG    1       10.725   2.824  -1.674  0.00  0.00    -0.377 OA
ATOM     24  C   LIG    1       10.347   4.111  -2.170  0.00  0.00    +0.175 C 
ATOM     25  C   LIG    1        9.393   4.776  -1.174  0.00  0.00    +0.113 C 
ENDBRANCH  19  20
ENDBRANCH  15  19
ENDBRANCH   3  11
BRANCH   8  26
ATOM     26  C   LIG    1        4.913  -2.653  -0.058  0.00  0.00    +0.039 A 
ATOM     27  C   LIG    1        6.194  -2.072   0.038  0.00  0.00    +0.144 A 
ATOM     28  N   LIG    1        7.079  -3.031  -0.012  0.00  0.00    -0.179 NA
ATOM     29  N   LIG    1        6.407  -4.252  -0.141  0.00  0.00    -0.268 N 
ATOM     30  C   LIG    1        5.083  -4.005  -0.162  0.00  0.00    +0.118 A 
BRANCH  29  31
ATOM     31  C   LIG    1        7.035  -5.572  -0.231  0.00  0.00    +0.104 C 
ATOM     32  C   LIG    1        6.212  -6.468  -1.161  0.00  0.00    +0.008 C 
ATOM     33  C   LIG    1        6.828  -7.869  -1.189  0.00  0.00    -0.081 C 
ATOM     34  N   LIG    1        6.827  -8.435   0.165  0.00  0.00    +0.379 N 
ATOM     35  H   LIG    1        7.184  -9.378   0.135  0.00  0.00    -0.086 HD
ATOM     36  H   LIG    1        5.883  -8.446   0.523  0.00  0.00    -0.086 HD
ATOM     37  C   LIG    1        7.673  -7.620   1.046  0.00  0.00    -0.081 C 
ATOM     38  C   LIG    1        7.089  -6.210   1.160  0.00  0.00    +0.008 C 
ENDBRANCH  29  31
ENDBRANCH   8  26
TORSDOF 5
