REMARK  Name = ZINC70452759
REMARK                            x       y       z     vdW  Elec       q    Type
REMARK                         _______ _______ _______ _____ _____    ______ ____
ROOT
ATOM      1  C   LIG    1        0.761  -0.350   1.289  0.00  0.00    +0.013 A 
ATOM      2  C   LIG    1        2.116  -0.620   1.236  0.00  0.00    +0.047 A 
ATOM      3  C   LIG    1        2.942  -0.144   0.070  0.00  0.00    +0.066 C 
ATOM      4  N   LIG    1        2.679  -1.301   2.222  0.00  0.00    -0.232 NA
ATOM      5  C   LIG    1        1.963  -1.726   3.253  0.00  0.00    +0.162 A 
ATOM      6  N   LIG    1        0.662  -1.489   3.341  0.00  0.00    -0.212 NA
ATOM      7  C   LIG    1        0.033  -0.806   2.391  0.00  0.00    +0.130 A 
ENDROOT
BRANCH   5   8
ATOM      8  C   LIG    1        2.634  -2.486   4.336  0.00  0.00    +0.019 A 
ATOM      9  C   LIG    1        1.899  -2.947   5.426  0.00  0.00    +0.011 A 
ATOM     10  C   LIG    1        2.529  -3.654   6.431  0.00  0.00    +0.001 A 
ATOM     11  C   LIG    1        3.887  -3.905   6.356  0.00  0.00    +0.000 A 
ATOM     12  C   LIG    1        4.622  -3.450   5.276  0.00  0.00    +0.001 A 
ATOM     13  C   LIG    1        4.001  -2.748   4.263  0.00  0.00    +0.011 A 
ENDBRANCH   5   8
BRANCH   1  15
ATOM     14  C   LIG    1        0.136   1.918   0.506  0.00  0.00    +0.009 C 
ATOM     15  C   LIG    1        0.086   0.422   0.186  0.00  0.00    +0.037 C 
ENDBRANCH   1  15
BRANCH   7  16
ATOM     16  N   LIG    1       -1.327  -0.554   2.489  0.00  0.00    -0.299 N 
ATOM     17  H   LIG    1       -1.796  -0.131   1.752  0.00  0.00    +0.154 HD
BRANCH  16  18
ATOM     18  C   LIG    1       -2.019  -0.907   3.642  0.00  0.00    +0.032 A 
ATOM     19  C   LIG    1       -1.414  -0.759   4.888  0.00  0.00    +0.024 A 
ATOM     20  C   LIG    1       -2.091  -1.105   6.023  0.00  0.00    +0.017 A 
ATOM     21  C   LIG    1       -3.393  -1.609   5.933  0.00  0.00    +0.059 A 
ATOM     22  C   LIG    1       -3.998  -1.757   4.679  0.00  0.00    +0.017 A 
ATOM     23  C   LIG    1       -3.317  -1.404   3.549  0.00  0.00    +0.024 A 
BRANCH  21  24
ATOM     24  C   LIG    1       -4.125  -1.984   7.154  0.00  0.00    +0.337 C 
ATOM     25  O   LIG    1       -3.595  -1.854   8.249  0.00  0.00    -0.245 OA
BRANCH  24  26
ATOM     26  O   LIG    1       -5.263  -2.424   7.074  0.00  0.00    -0.477 OA
ATOM     27  H   LIG    1       -5.669  -2.524   6.235  0.00  0.00    +0.295 HD
ENDBRANCH  24  26
ENDBRANCH  21  24
ENDBRANCH  16  18
ENDBRANCH   7  16
TORSDOF 6
