REMARK  Name = ZINC40916010
REMARK                            x       y       z     vdW  Elec       q    Type
REMARK                         _______ _______ _______ _____ _____    ______ ____
ROOT
ATOM      1  N   LIG    1        3.630  -1.873   0.845  0.00  0.00    -0.303 N 
ATOM      2  H   LIG    1        3.403  -2.743   0.480  0.00  0.00    +0.150 HD
ATOM      3  C   LIG    1        3.871  -1.738   2.164  0.00  0.00    +0.231 C 
ATOM      4  O   LIG    1        4.155  -0.651   2.621  0.00  0.00    -0.274 OA
ENDROOT
BRANCH   1   5
ATOM      5  C   LIG    1        3.711  -0.707  -0.038  0.00  0.00    +0.134 C 
BRANCH   5   6
ATOM      6  C   LIG    1        4.014  -1.161  -1.442  0.00  0.00    -0.023 A 
ATOM      7  C   LIG    1        3.407  -2.294  -1.949  0.00  0.00    +0.007 A 
ATOM      8  C   LIG    1        3.684  -2.711  -3.237  0.00  0.00    +0.020 A 
ATOM      9  C   LIG    1        4.571  -1.993  -4.020  0.00  0.00    +0.041 A 
ATOM     10 CL   LIG    1        4.921  -2.516  -5.638  0.00  0.00    -0.084 Cl
ATOM     11  C   LIG    1        5.179  -0.858  -3.513  0.00  0.00    +0.020 A 
ATOM     12  C   LIG    1        4.896  -0.440  -2.226  0.00  0.00    +0.007 A 
ENDBRANCH   5   6
BRANCH   5  16
ATOM     13  C   LIG    1       -0.017   1.378   0.010  0.00  0.00    +0.000 A 
ATOM     14  C   LIG    1        1.171   2.086   0.002  0.00  0.00    +0.000 A 
ATOM     15  C   LIG    1        2.377   1.411  -0.013  0.00  0.00    +0.006 A 
ATOM     16  C   LIG    1        2.396   0.029  -0.020  0.00  0.00    -0.023 A 
ATOM     17  C   LIG    1        1.208  -0.679  -0.012  0.00  0.00    +0.006 A 
ATOM     18  C   LIG    1        0.002  -0.004   0.002  0.00  0.00    +0.000 A 
ENDBRANCH   5  16
ENDBRANCH   1   5
BRANCH   3  19
ATOM     19  C   LIG    1        3.788  -2.938   3.073  0.00  0.00    +0.200 C 
BRANCH  19  20
ATOM     20  N   LIG    1        4.090  -2.531   4.447  0.00  0.00    -0.303 N 
ATOM     21  H   LIG    1        4.300  -1.605   4.644  0.00  0.00    +0.150 HD
ATOM     22  C   LIG    1        4.075  -3.444   5.439  0.00  0.00    +0.244 C 
ATOM     23  O   LIG    1        3.811  -4.605   5.192  0.00  0.00    -0.270 OA
BRANCH  22  24
ATOM     24  C   LIG    1        4.380  -3.034   6.826  0.00  0.00    +0.037 A 
ATOM     25  C   LIG    1        4.677  -1.701   7.114  0.00  0.00    +0.013 A 
ATOM     26  C   LIG    1        4.960  -1.325   8.410  0.00  0.00    +0.001 A 
ATOM     27  C   LIG    1        4.950  -2.266   9.425  0.00  0.00    +0.000 A 
ATOM     28  C   LIG    1        4.656  -3.589   9.146  0.00  0.00    +0.001 A 
ATOM     29  C   LIG    1        4.365  -3.977   7.855  0.00  0.00    +0.013 A 
ENDBRANCH  22  24
ENDBRANCH  19  20
ENDBRANCH   3  19
TORSDOF 6
