REMARK  Name = ZINC26576268
REMARK                            x       y       z     vdW  Elec       q    Type
REMARK                         _______ _______ _______ _____ _____    ______ ____
ROOT
ATOM      1  C   LIG    1       -1.244  -2.135   0.003  0.00  0.00    +0.269 C 
ENDROOT
BRANCH   1   2
ATOM      2  N   LIG    1       -2.643  -2.570   0.013  0.00  0.00    -0.296 N 
ATOM      3  H   LIG    1       -3.135  -2.818   0.966  0.00  0.00    +0.150 HD
ATOM      4  C   LIG    1       -3.328  -2.666  -1.143  0.00  0.00    +0.203 C 
ATOM      5  O   LIG    1       -2.786  -2.393  -2.193  0.00  0.00    -0.277 OA
BRANCH   4   6
ATOM      6  C   LIG    1       -4.767  -3.113  -1.132  0.00  0.00    +0.052 C 
BRANCH   6   7
ATOM      7  N   LIG    1       -5.282  -3.136  -2.503  0.00  0.00    +0.446 N 
ATOM      8  H   LIG    1       -5.187  -4.152  -2.914  0.00  0.00    -0.047 HD
ATOM      9  H   LIG    1       -4.705  -2.434  -3.123  0.00  0.00    -0.047 HD
BRANCH   7  10
ATOM     10  S   LIG    1       -6.859  -2.729  -2.802  0.00  0.00    +0.014 S 
ATOM     11  O   LIG    1       -7.651  -3.468  -1.881  0.00  0.00    -0.174 OA
ATOM     12  O   LIG    1       -7.043  -2.821  -4.208  0.00  0.00    -0.174 OA
BRANCH  10  13
ATOM     13  N   LIG    1       -7.037  -1.132  -2.404  0.00  0.00    -0.189 NA
ATOM     14  C   LIG    1       -7.432  -0.729  -1.045  0.00  0.00    +0.135 C 
ATOM     15  C   LIG    1       -6.441   0.340  -0.555  0.00  0.00    +0.177 C 
ATOM     16  O   LIG    1       -6.359   1.384  -1.528  0.00  0.00    -0.377 OA
ATOM     17  C   LIG    1       -5.856   0.963  -2.798  0.00  0.00    +0.177 C 
ATOM     18  C   LIG    1       -6.811  -0.073  -3.401  0.00  0.00    +0.135 C 
ENDBRANCH  10  13
ENDBRANCH   7  10
ENDBRANCH   6   7
BRANCH   6  19
ATOM     19  C   LIG    1       -4.861  -4.516  -0.529  0.00  0.00    +0.031 C 
BRANCH  19  20
ATOM     20  C   LIG    1       -6.309  -4.914  -0.404  0.00  0.00    -0.048 A 
ATOM     21  C   LIG    1       -7.007  -4.627   0.754  0.00  0.00    +0.003 A 
ATOM     22  C   LIG    1       -8.337  -4.987   0.866  0.00  0.00    +0.000 A 
ATOM     23  C   LIG    1       -8.966  -5.644  -0.175  0.00  0.00    +0.000 A 
ATOM     24  C   LIG    1       -8.266  -5.936  -1.331  0.00  0.00    +0.000 A 
ATOM     25  C   LIG    1       -6.937  -5.571  -1.446  0.00  0.00    +0.003 A 
ENDBRANCH  19  20
ENDBRANCH   6  19
ENDBRANCH   4   6
ENDBRANCH   1   2
BRANCH   1  28
ATOM     26  N   LIG    1        0.762  -2.397   1.426  0.00  0.00    -0.308 N 
ATOM     27  H   LIG    1        1.314  -1.782   0.700  0.00  0.00    +0.149 HD
ATOM     28  C   LIG    1       -0.542  -2.672   1.223  0.00  0.00    +0.245 C 
ATOM     29  O   LIG    1       -1.150  -3.350   2.024  0.00  0.00    -0.273 OA
BRANCH  26  30
ATOM     30  C   LIG    1        1.445  -2.918   2.613  0.00  0.00    +0.104 C 
BRANCH  30  31
ATOM     31  C   LIG    1        2.638  -2.022   2.950  0.00  0.00    +0.163 C 
BRANCH  31  32
ATOM     32  O   LIG    1        3.546  -2.003   1.847  0.00  0.00    -0.387 OA
ATOM     33  H   LIG    1        4.008  -2.939   1.499  0.00  0.00    +0.210 HD
ENDBRANCH  31  32
BRANCH  31  34
ATOM     34  C   LIG    1        2.144  -0.600   3.228  0.00  0.00    +0.145 C 
BRANCH  34  35
ATOM     35  O   LIG    1        1.236  -0.619   4.331  0.00  0.00    -0.389 OA
ATOM     36  H   LIG    1        0.312  -1.214   4.272  0.00  0.00    +0.210 HD
ENDBRANCH  34  35
BRANCH  34  37
ATOM     37  C   LIG    1        3.337   0.296   3.565  0.00  0.00    +0.037 C 
BRANCH  37  39
ATOM     38  C   LIG    1        4.029   2.617   4.180  0.00  0.00    +0.007 C 
ATOM     39  C   LIG    1        2.861   1.742   3.721  0.00  0.00    -0.015 C 
ATOM     40  C   LIG    1        2.337   2.254   2.378  0.00  0.00    +0.007 C 
ENDBRANCH  37  39
ENDBRANCH  34  37
ENDBRANCH  31  34
ENDBRANCH  30  31
BRANCH  30  41
ATOM     41  C   LIG    1        1.938  -4.340   2.334  0.00  0.00    +0.028 C 
BRANCH  41  42
ATOM     42  C   LIG    1        0.737  -5.263   2.120  0.00  0.00    -0.009 C 
ATOM     43  C   LIG    1       -0.069  -5.361   3.417  0.00  0.00    +0.003 C 
ATOM     44  C   LIG    1       -1.270  -6.285   3.202  0.00  0.00    +0.000 C 
ATOM     45  C   LIG    1       -0.778  -7.677   2.801  0.00  0.00    +0.000 C 
ATOM     46  C   LIG    1        0.029  -7.579   1.505  0.00  0.00    +0.000 C 
ATOM     47  C   LIG    1        1.229  -6.656   1.719  0.00  0.00    +0.003 C 
ENDBRANCH  41  42
ENDBRANCH  30  41
ENDBRANCH  26  30
ENDBRANCH   1  28
BRANCH   1  48
ATOM     48  C   LIG    1       -1.185  -0.630   0.010  0.00  0.00    +0.337 C 
ATOM     49  O   LIG    1       -2.208   0.015   0.023  0.00  0.00    -0.248 OA
BRANCH  48  50
ATOM     50  O   LIG    1        0.002  -0.004   0.002  0.00  0.00    -0.466 OA
ATOM     51  C   LIG    1       -0.018   1.448   0.010  0.00  0.00    +0.280 C 
ENDBRANCH  48  50
ENDBRANCH   1  48
TORSDOF 19
