REMARK  Name = ZINC35880991
REMARK                            x       y       z     vdW  Elec       q    Type
REMARK                         _______ _______ _______ _____ _____    ______ ____
ROOT
ATOM      1  C   LIG    1        0.619  -0.027   2.450  0.00  0.00    +0.019 A 
ATOM      2  C   LIG    1        0.178  -0.433   3.726  0.00  0.00    +0.042 A 
ATOM      3  CA  LIG    1        0.627   0.496   4.620  0.00  0.00    +0.102 A 
ATOM      4  N   LIG    1        1.328   1.456   3.926  0.00  0.00    -0.356 N 
ATOM      5  H   LIG    1        1.756   2.234   4.318  0.00  0.00    +0.165 HD
ATOM      6  C   LIG    1        1.330   1.141   2.617  0.00  0.00    +0.093 A 
ENDROOT
BRANCH   1  13
ATOM      7  C   LIG    1        0.225   1.501  -0.009  0.00  0.00    +0.047 C 
ATOM      8  C   LIG    1        0.180  -0.005  -0.012  0.00  0.00    -0.006 A 
ATOM      9  C   LIG    1       -0.044  -0.704  -1.184  0.00  0.00    +0.120 A 
ATOM     10  N   LIG    1       -0.078  -2.027  -1.153  0.00  0.00    -0.222 NA
ATOM     11  C   LIG    1        0.100  -2.688  -0.018  0.00  0.00    +0.220 A 
ATOM     12  N   LIG    1        0.317  -2.059   1.126  0.00  0.00    -0.214 NA
ATOM     13  C   LIG    1        0.369  -0.729   1.169  0.00  0.00    +0.080 A 
BRANCH  11  14
ATOM     14  N   LIG    1        0.057  -4.073  -0.030  0.00  0.00    -0.282 N 
ATOM     15  H   LIG    1        0.097  -4.566   0.804  0.00  0.00    +0.155 HD
BRANCH  14  16
ATOM     16  C   LIG    1       -0.046  -4.760  -1.245  0.00  0.00    +0.052 A 
ATOM     17  C   LIG    1        0.533  -4.234  -2.392  0.00  0.00    +0.027 A 
ATOM     18  C   LIG    1        0.431  -4.913  -3.590  0.00  0.00    +0.040 A 
ATOM     19  C   LIG    1       -0.248  -6.119  -3.649  0.00  0.00    +0.125 A 
ATOM     20  F   LIG    1       -0.347  -6.781  -4.822  0.00  0.00    -0.205 F 
ATOM     21  C   LIG    1       -0.826  -6.646  -2.507  0.00  0.00    +0.060 A 
ATOM     22  C   LIG    1       -0.722  -5.972  -1.304  0.00  0.00    +0.065 A 
ATOM     23 CL   LIG    1       -1.442  -6.637   0.129  0.00  0.00    -0.082 Cl
ENDBRANCH  14  16
ENDBRANCH  11  14
ENDBRANCH   1  13
BRANCH   3  24
ATOM     24  C   LIG    1        0.401   0.475   6.070  0.00  0.00    +0.261 C 
ATOM     25  N   LIG    1        0.901   1.458   6.844  0.00  0.00    -0.301 N 
ATOM     26  H   LIG    1        1.410   2.180   6.443  0.00  0.00    +0.150 HD
ATOM     27  O   LIG    1       -0.239  -0.430   6.573  0.00  0.00    -0.269 OA
BRANCH  25  28
ATOM     28  CA  LIG    1        0.675   1.438   8.291  0.00  0.00    +0.129 C 
BRANCH  28  29
ATOM     29  C   LIG    1        1.769   2.210   8.982  0.00  0.00    -0.024 A 
ATOM     30  C   LIG    1        2.234   3.391   8.433  0.00  0.00    +0.005 A 
ATOM     31  C   LIG    1        3.238   4.100   9.065  0.00  0.00    +0.002 A 
ATOM     32  C   LIG    1        3.778   3.629  10.247  0.00  0.00    +0.020 A 
ATOM     33  C   LIG    1        3.313   2.447  10.797  0.00  0.00    +0.041 A 
ATOM     34 CL   LIG    1        3.991   1.855  12.282  0.00  0.00    -0.084 Cl
ATOM     35  C   LIG    1        2.304   1.741  10.167  0.00  0.00    +0.025 A 
ENDBRANCH  28  29
BRANCH  28  36
ATOM     36  C   LIG    1       -0.678   2.079   8.606  0.00  0.00    +0.182 C 
BRANCH  36  37
ATOM     37  O   LIG    1       -0.645   3.462   8.248  0.00  0.00    -0.393 OA
ATOM     38  H   LIG    1       -1.471   3.933   8.420  0.00  0.00    +0.209 HD
ENDBRANCH  36  37
ENDBRANCH  28  36
ENDBRANCH  25  28
ENDBRANCH   3  24
TORSDOF 8
