REMARK  Name = ZINC68197809
REMARK                            x       y       z     vdW  Elec       q    Type
REMARK                         _______ _______ _______ _____ _____    ______ ____
ROOT
ATOM      1  C   LIG    1       -0.086  -6.549  -2.612  0.00  0.00    -0.024 A 
ATOM      2  C   LIG    1        0.021  -6.813  -3.965  0.00  0.00    +0.014 A 
ATOM      3  C   LIG    1       -1.075  -7.280  -4.666  0.00  0.00    +0.014 A 
ATOM      4  C   LIG    1       -2.278  -7.483  -4.015  0.00  0.00    +0.010 A 
ATOM      5  C   LIG    1       -2.385  -7.219  -2.663  0.00  0.00    +0.021 A 
ATOM      6  C   LIG    1       -1.287  -6.757  -1.959  0.00  0.00    +0.044 A 
ATOM      7 CL   LIG    1       -1.420  -6.431  -0.259  0.00  0.00    -0.083 Cl
ENDROOT
BRANCH   3   8
ATOM      8  C   LIG    1       -0.958  -7.568  -6.141  0.00  0.00    +0.227 C 
ATOM      9  C   LIG    1       -1.286  -6.324  -6.981  0.00  0.00    +0.209 C 
ATOM     10  C   LIG    1       -1.304  -6.719  -8.462  0.00  0.00    +0.180 C 
ATOM     11  C   LIG    1       -0.005  -7.459  -8.805  0.00  0.00    +0.182 C 
ATOM     12  C   LIG    1        0.188  -8.600  -7.793  0.00  0.00    +0.147 C 
ATOM     13  C   LIG    1       -1.170  -9.323  -7.633  0.00  0.00    +0.203 C 
ATOM     14  O   LIG    1       -1.829  -8.644  -6.537  0.00  0.00    -0.340 OA
ATOM     15  O   LIG    1        0.378  -7.991  -6.492  0.00  0.00    -0.329 OA
BRANCH   9  16
ATOM     16  O   LIG    1       -2.566  -5.815  -6.604  0.00  0.00    -0.383 OA
ATOM     17  H   LIG    1       -2.837  -5.028  -7.096  0.00  0.00    +0.210 HD
ENDBRANCH   9  16
BRANCH  10  18
ATOM     18  O   LIG    1       -1.411  -5.544  -9.268  0.00  0.00    -0.386 OA
ATOM     19  H   LIG    1       -2.209  -5.024  -9.102  0.00  0.00    +0.210 HD
ENDBRANCH  10  18
BRANCH  11  20
ATOM     20  O   LIG    1       -0.092  -7.994 -10.127  0.00  0.00    -0.386 OA
ATOM     21  H   LIG    1       -0.228  -7.326 -10.813  0.00  0.00    +0.210 HD
ENDBRANCH  11  20
BRANCH  12  22
ATOM     22  C   LIG    1        1.333  -9.540  -8.179  0.00  0.00    +0.196 C 
BRANCH  22  23
ATOM     23  O   LIG    1        1.379 -10.635  -7.263  0.00  0.00    -0.392 OA
ATOM     24  H   LIG    1        2.083 -11.273  -7.448  0.00  0.00    +0.210 HD
ENDBRANCH  22  23
ENDBRANCH  12  22
ENDBRANCH   3   8
BRANCH   1  25
ATOM     25  C   LIG    1        1.109  -6.040  -1.847  0.00  0.00    +0.071 C 
BRANCH  25  29
ATOM     26  C   LIG    1        0.777  -1.810  -1.336  0.00  0.00    +0.121 A 
ATOM     27  C   LIG    1        0.243  -2.669  -0.386  0.00  0.00    +0.046 A 
ATOM     28  C   LIG    1        0.351  -4.036  -0.554  0.00  0.00    +0.007 A 
ATOM     29  C   LIG    1        0.992  -4.548  -1.667  0.00  0.00    -0.043 A 
ATOM     30  C   LIG    1        1.525  -3.694  -2.615  0.00  0.00    +0.007 A 
ATOM     31  C   LIG    1        1.414  -2.327  -2.455  0.00  0.00    +0.046 A 
BRANCH  26  32
ATOM     32  O   LIG    1        0.671  -0.465  -1.174  0.00  0.00    -0.492 OA
BRANCH  32  34
ATOM     33  C   LIG    1       -0.019   1.526   0.010  0.00  0.00    +0.048 C 
ATOM     34  C   LIG    1        0.002  -0.004   0.002  0.00  0.00    +0.225 C 
ENDBRANCH  32  34
ENDBRANCH  26  32
ENDBRANCH  25  29
ENDBRANCH   1  25
TORSDOF 10
