REMARK  Name = ZINC13835295
REMARK                            x       y       z     vdW  Elec       q    Type
REMARK                         _______ _______ _______ _____ _____    ______ ____
ROOT
ATOM      1  N   LIG    1       -1.176  -2.121   0.002  0.00  0.00    -0.110 NA
ATOM      2  H   LIG    1       -0.694  -2.595  -0.693  0.00  0.00    +0.172 HD
ENDROOT
BRANCH   1   3
ATOM      3  S   LIG    1       -1.975  -2.968   1.181  0.00  0.00    +0.079 S 
ATOM      4  O   LIG    1       -1.501  -2.475   2.426  0.00  0.00    -0.152 OA
ATOM      5  O   LIG    1       -1.890  -4.340   0.822  0.00  0.00    -0.152 OA
BRANCH   3   6
ATOM      6  C   LIG    1       -3.677  -2.524   1.078  0.00  0.00    +0.183 A 
ATOM      7  C   LIG    1       -4.156  -1.448   1.806  0.00  0.00    +0.191 A 
ATOM      8  F   LIG    1       -3.319  -0.740   2.594  0.00  0.00    -0.200 F 
ATOM      9  C   LIG    1       -5.495  -1.099   1.725  0.00  0.00    +0.198 A 
ATOM     10  F   LIG    1       -5.963  -0.049   2.436  0.00  0.00    -0.199 F 
ATOM     11  C   LIG    1       -6.354  -1.826   0.917  0.00  0.00    +0.199 A 
ATOM     12  F   LIG    1       -7.659  -1.486   0.839  0.00  0.00    -0.199 F 
ATOM     13  C   LIG    1       -5.873  -2.903   0.189  0.00  0.00    +0.198 A 
ATOM     14  F   LIG    1       -6.709  -3.613  -0.600  0.00  0.00    -0.199 F 
ATOM     15  C   LIG    1       -4.532  -3.248   0.266  0.00  0.00    +0.191 A 
ATOM     16  F   LIG    1       -4.062  -4.293  -0.449  0.00  0.00    -0.200 F 
ENDBRANCH   3   6
ENDBRANCH   1   3
BRANCH   1  17
ATOM     17  N   LIG    1       -1.197  -0.720   0.010  0.00  0.00    -0.262 N 
ATOM     18  H   LIG    1       -2.044  -0.248   0.021  0.00  0.00    +0.168 HD
BRANCH  17  24
ATOM     19  C   LIG    1       -0.017   1.385   0.010  0.00  0.00    +0.026 A 
ATOM     20  C   LIG    1        1.171   2.090   0.002  0.00  0.00    +0.030 A 
ATOM     21  C   LIG    1        2.377   1.415  -0.013  0.00  0.00    +0.105 A 
ATOM     22  C   LIG    1        2.400   0.032  -0.021  0.00  0.00    +0.030 A 
ATOM     23  C   LIG    1        1.216  -0.679  -0.014  0.00  0.00    +0.026 A 
ATOM     24  C   LIG    1        0.002  -0.004   0.002  0.00  0.00    +0.043 A 
BRANCH  21  25
ATOM     25  S   LIG    1        3.890   2.319  -0.024  0.00  0.00    +0.056 S 
ATOM     26  O   LIG    1        3.595   3.599  -0.566  0.00  0.00    -0.153 OA
ATOM     27  O   LIG    1        4.872   1.461  -0.589  0.00  0.00    -0.153 OA
BRANCH  25  28
ATOM     28  N   LIG    1        4.326   2.562   1.555  0.00  0.00    -0.204 NA
ATOM     29  H   LIG    1        3.644   2.636   2.240  0.00  0.00    +0.144 HD
ATOM     30  H   LIG    1        5.264   2.630   1.794  0.00  0.00    +0.144 HD
ENDBRANCH  25  28
ENDBRANCH  21  25
ENDBRANCH  17  24
ENDBRANCH   1  17
TORSDOF 6
