REMARK  Name = ZINC00020235
REMARK                            x       y       z     vdW  Elec       q    Type
REMARK                         _______ _______ _______ _____ _____    ______ ____
ROOT
ATOM      1  C   LIG    1       -1.412  -0.526   0.013  0.00  0.00    -0.032 A 
ATOM      2  C   LIG    1       -2.273  -0.198  -1.023  0.00  0.00    +0.005 A 
ATOM      3  C   LIG    1       -3.568  -0.669  -1.024  0.00  0.00    +0.011 A 
ATOM      4  C   LIG    1       -4.011  -1.477   0.020  0.00  0.00    +0.007 A 
ATOM      5  C   LIG    1       -5.298  -2.132   0.320  0.00  0.00    +0.009 A 
ATOM      6  C   LIG    1       -6.527  -2.174  -0.335  0.00  0.00    +0.030 A 
ATOM      7  C   LIG    1       -7.570  -2.893   0.211  0.00  0.00    +0.042 A 
ATOM      8 CL   LIG    1       -9.102  -2.947  -0.603  0.00  0.00    -0.084 Cl
ATOM      9  C   LIG    1       -7.398  -3.571   1.409  0.00  0.00    +0.022 A 
ATOM     10  C   LIG    1       -6.187  -3.537   2.066  0.00  0.00    +0.027 A 
ATOM     11  C   LIG    1       -5.123  -2.818   1.530  0.00  0.00    +0.048 A 
ATOM     12  N   LIG    1       -3.825  -2.614   1.964  0.00  0.00    -0.354 N 
ATOM     13  H   LIG    1       -3.448  -2.981   2.778  0.00  0.00    +0.166 HD
ATOM     14  C   LIG    1       -3.141  -1.810   1.069  0.00  0.00    +0.048 A 
ATOM     15  C   LIG    1       -1.835  -1.329   1.049  0.00  0.00    +0.030 A 
ENDROOT
BRANCH   1  17
ATOM     16  C   LIG    1       -0.019   1.526   0.010  0.00  0.00    +0.024 C 
ATOM     17  C   LIG    1        0.002  -0.004   0.002  0.00  0.00    +0.124 C 
BRANCH  17  18
ATOM     18  C   LIG    1        0.707  -0.490  -1.238  0.00  0.00    +0.312 C 
ATOM     19  O   LIG    1        1.462  -1.446  -1.175  0.00  0.00    -0.250 OA
BRANCH  18  20
ATOM     20  O   LIG    1        0.524   0.073  -2.304  0.00  0.00    -0.480 OA
ATOM     21  H   LIG    1       -0.055   0.807  -2.352  0.00  0.00    +0.295 HD
ENDBRANCH  18  20
ENDBRANCH  17  18
ENDBRANCH   1  17
TORSDOF 3
