REMARK  Name = ZINC38197764
REMARK                            x       y       z     vdW  Elec       q    Type
REMARK                         _______ _______ _______ _____ _____    ______ ____
ROOT
ATOM      1  C   LIG    1       -0.909   2.351   0.282  0.00  0.00    -0.061 C 
ATOM      2  C   LIG    1       -1.028   2.528   1.799  0.00  0.00    +0.097 C 
ATOM      3  N   LIG    1       -0.186   1.515   2.454  0.00  0.00    -0.369 N 
ATOM      4  C   LIG    1       -0.675   0.740   3.425  0.00  0.00    +0.118 A 
ATOM      5  C   LIG    1       -2.061   0.451   3.468  0.00  0.00    +0.151 A 
ATOM      6  F   LIG    1       -2.883   0.963   2.526  0.00  0.00    -0.203 F 
ATOM      7  C   LIG    1       -2.567  -0.335   4.450  0.00  0.00    +0.054 A 
ATOM      8  C   LIG    1       -1.713  -0.871   5.436  0.00  0.00    +0.047 A 
ATOM      9  C   LIG    1       -0.323  -0.590   5.405  0.00  0.00    +0.097 A 
ATOM     10  N   LIG    1        0.509  -1.119   6.374  0.00  0.00    -0.340 N 
ATOM     11  C   LIG    1        0.024  -1.898   7.351  0.00  0.00    +0.105 A 
ATOM     12  C   LIG    1       -1.325  -2.203   7.426  0.00  0.00    +0.117 A 
ATOM     13  C   LIG    1       -2.222  -1.687   6.459  0.00  0.00    +0.142 A 
ATOM     14  C   LIG    1        0.189   0.206   4.400  0.00  0.00    +0.170 A 
ATOM     15  C   LIG    1        1.209   1.380   2.009  0.00  0.00    +0.100 C 
ATOM     16  C   LIG    1        1.223   1.258   0.482  0.00  0.00    -0.055 C 
ATOM     17  C   LIG    1        2.669   1.252  -0.017  0.00  0.00    -0.012 C 
ATOM     18  N   LIG    1        0.506   2.397  -0.106  0.00  0.00    +0.383 N 
ATOM     19  H   LIG    1        0.917   3.257   0.225  0.00  0.00    -0.085 HD
ATOM     20  H   LIG    1        0.580   2.356  -1.111  0.00  0.00    -0.085 HD
ENDROOT
BRANCH  10  21
ATOM     21  C   LIG    1        1.943  -0.823   6.333  0.00  0.00    +0.088 C 
ATOM     22  C   LIG    1        2.825  -1.450   7.415  0.00  0.00    +0.027 C 
ATOM     23  C   LIG    1        2.517   0.048   7.453  0.00  0.00    +0.027 C 
ENDBRANCH  10  21
BRANCH  12  24
ATOM     24  C   LIG    1       -1.825  -3.061   8.509  0.00  0.00    +0.342 C 
ATOM     25  O   LIG    1       -1.075  -3.407   9.412  0.00  0.00    -0.245 OA
BRANCH  24  26
ATOM     26  O   LIG    1       -2.992  -3.429   8.508  0.00  0.00    -0.477 OA
ATOM     27  H   LIG    1       -3.567  -3.164   7.817  0.00  0.00    +0.295 HD
ENDBRANCH  24  26
ENDBRANCH  12  24
BRANCH  13  28
ATOM     28  O   LIG    1       -3.540  -1.975   6.519  0.00  0.00    -0.505 OA
ATOM     29  H   LIG    1       -3.799  -2.472   7.308  0.00  0.00    +0.292 HD
ENDBRANCH  13  28
BRANCH  14  30
ATOM     30  O   LIG    1        1.523   0.480   4.355  0.00  0.00    -0.491 OA
ATOM     31  C   LIG    1        1.922   1.817   4.662  0.00  0.00    +0.277 C 
ENDBRANCH  14  30
TORSDOF 5
