REMARK  Name = ZINC13826961
REMARK                            x       y       z     vdW  Elec       q    Type
REMARK                         _______ _______ _______ _____ _____    ______ ____
ROOT
ATOM      1  C   LIG    1       -6.728   1.157  -0.882  0.00  0.00    +0.155 C 
ATOM      2  N   LIG    1       -6.819   0.589  -2.230  0.00  0.00    -0.280 N 
ATOM      3  C   LIG    1       -5.688   0.063  -2.837  0.00  0.00    +0.168 A 
ATOM      4  C   LIG    1       -5.802  -0.471  -4.117  0.00  0.00    +0.149 A 
ATOM      5  N   LIG    1       -4.542  -0.917  -4.472  0.00  0.00    -0.333 N 
ATOM      6  C   LIG    1       -3.718  -0.644  -3.417  0.00  0.00    +0.134 A 
ATOM      7  H   LIG    1       -4.283  -1.353  -5.333  0.00  0.00    +0.168 HD
ATOM      8  C   LIG    1       -7.059  -0.462  -4.756  0.00  0.00    +0.282 A 
ATOM      9  N   LIG    1       -8.121   0.065  -4.113  0.00  0.00    -0.262 N 
ATOM     10  C   LIG    1       -9.430   0.077  -4.772  0.00  0.00    +0.157 C 
ATOM     11  O   LIG    1       -7.184  -0.924  -5.876  0.00  0.00    -0.265 OA
ATOM     12  N   LIG    1       -4.420  -0.068  -2.455  0.00  0.00    -0.210 NA
ATOM     13  C   LIG    1       -7.999   0.578  -2.877  0.00  0.00    +0.333 A 
ATOM     14  O   LIG    1       -8.979   1.044  -2.329  0.00  0.00    -0.246 OA
ENDROOT
BRANCH   6  15
ATOM     15  C   LIG    1       -2.287  -0.948  -3.357  0.00  0.00    +0.047 C 
ATOM     16  C   LIG    1       -1.575  -0.630  -2.257  0.00  0.00    +0.015 C 
BRANCH  16  17
ATOM     17  C   LIG    1       -0.138  -0.936  -2.197  0.00  0.00    +0.020 A 
ATOM     18  C   LIG    1        0.496  -1.552  -3.282  0.00  0.00    +0.012 A 
ATOM     19  C   LIG    1        1.842  -1.841  -3.220  0.00  0.00    +0.004 A 
ATOM     20  C   LIG    1        2.575  -1.520  -2.088  0.00  0.00    +0.049 A 
ATOM     21  C   LIG    1        1.962  -0.906  -1.008  0.00  0.00    +0.162 A 
ATOM     22  C   LIG    1        0.606  -0.607  -1.055  0.00  0.00    +0.169 A 
BRANCH  21  23
ATOM     23  O   LIG    1        2.689  -0.595   0.099  0.00  0.00    -0.491 OA
ATOM     24  C   LIG    1        4.078  -0.931   0.079  0.00  0.00    +0.277 C 
ENDBRANCH  21  23
BRANCH  22  25
ATOM     25  O   LIG    1        0.002  -0.004   0.002  0.00  0.00    -0.491 OA
ATOM     26  C   LIG    1       -0.017   1.425   0.010  0.00  0.00    +0.277 C 
ENDBRANCH  22  25
ENDBRANCH  16  17
ENDBRANCH   6  15
TORSDOF 4
