REMARK  Name = ZINC13982474
REMARK                            x       y       z     vdW  Elec       q    Type
REMARK                         _______ _______ _______ _____ _____    ______ ____
ROOT
ATOM      1  C   LIG    1       -6.073   2.796  -5.816  0.00  0.00    -0.028 A 
ATOM      2  C   LIG    1       -6.307   1.612  -5.139  0.00  0.00    +0.006 A 
ATOM      3  C   LIG    1       -5.587   1.311  -4.001  0.00  0.00    +0.013 A 
ATOM      4  C   LIG    1       -4.621   2.203  -3.534  0.00  0.00    +0.037 A 
ATOM      5  C   LIG    1       -4.394   3.398  -4.218  0.00  0.00    +0.013 A 
ATOM      6  C   LIG    1       -5.117   3.684  -5.358  0.00  0.00    +0.006 A 
ENDROOT
BRANCH   4   7
ATOM      7  C   LIG    1       -3.847   1.887  -2.315  0.00  0.00    +0.244 C 
ATOM      8  N   LIG    1       -2.914   2.751  -1.866  0.00  0.00    -0.308 N 
ATOM      9  H   LIG    1       -2.752   3.580  -2.342  0.00  0.00    +0.149 HD
ATOM     10  O   LIG    1       -4.051   0.848  -1.718  0.00  0.00    -0.270 OA
BRANCH   8  11
ATOM     11  C   LIG    1       -2.147   2.437  -0.658  0.00  0.00    +0.089 C 
ATOM     12  C   LIG    1       -2.932   2.886   0.579  0.00  0.00    +0.051 C 
ATOM     13  C   LIG    1       -2.089   2.627   1.830  0.00  0.00    +0.161 C 
ATOM     14  O   LIG    1       -0.844   3.320   1.717  0.00  0.00    -0.379 OA
ATOM     15  C   LIG    1       -0.046   2.908   0.605  0.00  0.00    +0.174 C 
ATOM     16  C   LIG    1       -0.807   3.179  -0.696  0.00  0.00    +0.123 C 
BRANCH  16  17
ATOM     17  C   LIG    1       -1.054   4.659  -0.836  0.00  0.00    +0.243 C 
ATOM     18  N   LIG    1       -0.013   5.514  -0.884  0.00  0.00    -0.197 N 
ATOM     19  H   LIG    1        0.894   5.177  -0.829  0.00  0.00    +0.182 HD
ATOM     20  O   LIG    1       -2.189   5.080  -0.905  0.00  0.00    -0.273 OA
BRANCH  18  21
ATOM     21  O   LIG    1       -0.246   6.904  -1.016  0.00  0.00    -0.295 OA
ATOM     22  H   LIG    1        0.561   7.437  -1.042  0.00  0.00    +0.241 HD
ENDBRANCH  18  21
ENDBRANCH  16  17
ENDBRANCH   8  11
ENDBRANCH   4   7
BRANCH   1  23
ATOM     23  C   LIG    1       -6.862   3.118  -7.059  0.00  0.00    +0.159 C 
BRANCH  23  31
ATOM     24  C   LIG    1       -8.687   7.974  -6.119  0.00  0.00    +0.002 A 
ATOM     25  C   LIG    1       -7.386   7.629  -6.457  0.00  0.00    +0.002 A 
ATOM     26  C   LIG    1       -7.048   6.310  -6.676  0.00  0.00    +0.028 A 
ATOM     27  C   LIG    1       -8.017   5.323  -6.557  0.00  0.00    +0.069 A 
ATOM     28  C   LIG    1       -9.334   5.674  -6.218  0.00  0.00    +0.090 A 
ATOM     29  N   LIG    1      -10.050   4.521  -6.168  0.00  0.00    -0.224 NA
ATOM     30  C   LIG    1       -9.277   3.514  -6.452  0.00  0.00    +0.216 A 
ATOM     31  N   LIG    1       -8.014   3.950  -6.704  0.00  0.00    -0.316 N 
ATOM     32  C   LIG    1       -9.655   7.018  -6.006  0.00  0.00    +0.030 A 
BRANCH  30  33
ATOM     33  C   LIG    1       -9.718   2.073  -6.496  0.00  0.00    +0.451 C 
ATOM     34  F   LIG    1       -9.239   1.404  -5.365  0.00  0.00    -0.163 F 
ATOM     35  F   LIG    1       -9.208   1.465  -7.648  0.00  0.00    -0.163 F 
ATOM     36  F   LIG    1      -11.115   2.014  -6.517  0.00  0.00    -0.163 F 
ENDBRANCH  30  33
ENDBRANCH  23  31
ENDBRANCH   1  23
TORSDOF 7
