REMARK  Name = ZINC26898933
REMARK                            x       y       z     vdW  Elec       q    Type
REMARK                         _______ _______ _______ _____ _____    ______ ____
ROOT
ATOM      1  C   LIG    1       -4.388  -3.257   1.088  0.00  0.00    -0.096 C 
ATOM      2  N   LIG    1       -3.122  -2.512   1.079  0.00  0.00    +0.380 N 
ATOM      3  H   LIG    1       -2.573  -2.771   1.996  0.00  0.00    -0.082 HD
ATOM      4  C   LIG    1       -2.293  -2.896  -0.071  0.00  0.00    -0.060 C 
ATOM      5  C   LIG    1       -0.954  -2.159   0.000  0.00  0.00    +0.088 C 
ATOM      6  N   LIG    1       -1.196  -0.709   0.010  0.00  0.00    -0.319 N 
ATOM      7  C   LIG    1       -2.025  -0.325   1.161  0.00  0.00    +0.088 C 
ATOM      8  C   LIG    1       -3.365  -1.063   1.090  0.00  0.00    -0.060 C 
ENDROOT
BRANCH   6   9
ATOM      9  C   LIG    1        0.002  -0.004   0.002  0.00  0.00    +0.121 A 
ATOM     10  C   LIG    1       -0.017   1.387   0.010  0.00  0.00    +0.043 A 
ATOM     11  C   LIG    1        1.182   2.076   0.002  0.00  0.00    +0.005 A 
ATOM     12  C   LIG    1        2.365   1.348  -0.013  0.00  0.00    +0.020 A 
ATOM     13  C   LIG    1        2.310  -0.031  -0.020  0.00  0.00    +0.113 A 
ATOM     14  N   LIG    1        1.151  -0.662  -0.013  0.00  0.00    -0.240 NA
ENDBRANCH   6   9
TORSDOF 1
