REMARK  Name = ZINC13831825
REMARK                            x       y       z     vdW  Elec       q    Type
REMARK                         _______ _______ _______ _____ _____    ______ ____
ROOT
ATOM      1  N   LIG    1        4.667   1.989   1.402  0.00  0.00    -0.174 NA
ATOM      2  C   LIG    1        4.430   2.817   2.593  0.00  0.00    +0.126 C 
ATOM      3  C   LIG    1        3.985   1.906   3.743  0.00  0.00    +0.126 C 
ATOM      4  N   LIG    1        4.923   0.779   3.839  0.00  0.00    -0.174 NA
ATOM      5  C   LIG    1        5.160  -0.050   2.649  0.00  0.00    +0.126 C 
ATOM      6  C   LIG    1        5.601   0.858   1.500  0.00  0.00    +0.126 C 
ENDROOT
BRANCH   1   7
ATOM      7  S   LIG    1        3.890   2.319  -0.023  0.00  0.00    +0.064 S 
ATOM      8  O   LIG    1        3.540   3.696   0.015  0.00  0.00    -0.153 OA
ATOM      9  O   LIG    1        4.688   1.764  -1.059  0.00  0.00    -0.153 OA
BRANCH   7  12
ATOM     10  C   LIG    1       -0.017   1.380   0.010  0.00  0.00    +0.040 A 
ATOM     11  C   LIG    1        1.171   2.088   0.002  0.00  0.00    +0.034 A 
ATOM     12  C   LIG    1        2.377   1.415  -0.013  0.00  0.00    +0.141 A 
ATOM     13  C   LIG    1        2.399   0.030  -0.021  0.00  0.00    +0.152 A 
ATOM     14  F   LIG    1        3.579  -0.627  -0.037  0.00  0.00    -0.203 F 
ATOM     15  C   LIG    1        1.210  -0.679  -0.014  0.00  0.00    +0.078 A 
ATOM     16  C   LIG    1        0.002  -0.004   0.002  0.00  0.00    +0.126 A 
ATOM     17  F   LIG    1       -1.158  -0.696   0.010  0.00  0.00    -0.205 F 
ENDBRANCH   7  12
ENDBRANCH   1   7
BRANCH   4  18
ATOM     18  S   LIG    1        5.700   0.448   5.264  0.00  0.00    +0.061 S 
ATOM     19  O   LIG    1        5.726   1.662   6.003  0.00  0.00    -0.153 OA
ATOM     20  O   LIG    1        6.882  -0.264   4.926  0.00  0.00    -0.153 OA
BRANCH  18  21
ATOM     21  C   LIG    1        4.680  -0.669   6.167  0.00  0.00    +0.109 A 
ATOM     22  C   LIG    1        3.720  -0.181   7.034  0.00  0.00    +0.032 A 
ATOM     23  C   LIG    1        2.919  -1.054   7.745  0.00  0.00    +0.051 A 
ATOM     24  C   LIG    1        3.075  -2.424   7.589  0.00  0.00    +0.162 A 
ATOM     25  C   LIG    1        4.038  -2.915   6.715  0.00  0.00    +0.164 A 
ATOM     26  O   LIG    1        4.202  -4.255   6.541  0.00  0.00    -0.485 OA
ATOM     27  C   LIG    1        3.637  -5.108   7.542  0.00  0.00    +0.270 C 
ATOM     28  C   LIG    1        2.210  -4.625   7.835  0.00  0.00    +0.270 C 
ATOM     29  O   LIG    1        2.281  -3.272   8.298  0.00  0.00    -0.485 OA
ATOM     30  C   LIG    1        4.836  -2.033   6.002  0.00  0.00    +0.078 A 
ENDBRANCH  18  21
ENDBRANCH   4  18
TORSDOF 4
