REMARK  Name = ZINC22933029
REMARK                            x       y       z     vdW  Elec       q    Type
REMARK                         _______ _______ _______ _____ _____    ______ ____
ROOT
ATOM      1  C   LIG    1        1.815  -3.680   1.330  0.00  0.00    -0.050 C 
ATOM      2  C   LIG    1        1.498  -5.130   0.954  0.00  0.00    -0.013 C 
ATOM      3  C   LIG    1        0.577  -5.735   2.016  0.00  0.00    +0.014 C 
ATOM      4  C   LIG    1        1.255  -5.643   3.385  0.00  0.00    +0.081 C 
ATOM      5  N   LIG    1        1.537  -4.236   3.699  0.00  0.00    -0.311 NA
ATOM      6  H   LIG    1        0.683  -3.702   3.761  0.00  0.00    +0.122 HD
ATOM      7  C   LIG    1        2.458  -3.646   2.719  0.00  0.00    +0.070 C 
ENDROOT
BRANCH   7   8
ATOM      8  C   LIG    1        2.753  -2.219   3.101  0.00  0.00    -0.032 A 
ATOM      9  C   LIG    1        1.744  -1.412   3.592  0.00  0.00    +0.005 A 
ATOM     10  C   LIG    1        2.015  -0.102   3.943  0.00  0.00    +0.000 A 
ATOM     11  C   LIG    1        3.296   0.400   3.802  0.00  0.00    +0.000 A 
ATOM     12  C   LIG    1        4.305  -0.407   3.312  0.00  0.00    +0.000 A 
ATOM     13  C   LIG    1        4.035  -1.718   2.965  0.00  0.00    +0.005 A 
ENDBRANCH   7   8
BRANCH   1  14
ATOM     14  N   LIG    1        0.573  -2.894   1.346  0.00  0.00    +0.385 N 
ATOM     15  H   LIG    1       -0.095  -3.334   1.961  0.00  0.00    -0.085 HD
ATOM     16  H   LIG    1        0.770  -1.961   1.674  0.00  0.00    -0.085 HD
BRANCH  14  17
ATOM     17  C   LIG    1        0.018  -2.829  -0.013  0.00  0.00    -0.043 C 
BRANCH  17  23
ATOM     18  C   LIG    1       -1.200  -0.637   0.010  0.00  0.00    +0.121 A 
ATOM     19  C   LIG    1       -2.375   0.101   0.019  0.00  0.00    +0.046 A 
ATOM     20  C   LIG    1       -3.596  -0.545   0.027  0.00  0.00    +0.004 A 
ATOM     21  C   LIG    1       -3.648  -1.927   0.026  0.00  0.00    +0.000 A 
ATOM     22  C   LIG    1       -2.479  -2.665   0.017  0.00  0.00    +0.005 A 
ATOM     23  C   LIG    1       -1.255  -2.023   0.003  0.00  0.00    -0.023 A 
BRANCH  18  25
ATOM     24  C   LIG    1       -0.017   1.425   0.010  0.00  0.00    +0.277 C 
ATOM     25  O   LIG    1        0.002  -0.004   0.002  0.00  0.00    -0.495 OA
ENDBRANCH  18  25
ENDBRANCH  17  23
ENDBRANCH  14  17
ENDBRANCH   1  14
TORSDOF 5
