REMARK  Name = ZINC28382402
REMARK                            x       y       z     vdW  Elec       q    Type
REMARK                         _______ _______ _______ _____ _____    ______ ____
ROOT
ATOM      1  C   LIG    1       -7.345  -4.395  -3.676  0.00  0.00    +0.147 A 
ATOM      2  C   LIG    1       -8.704  -4.703  -3.844  0.00  0.00    +0.138 A 
ATOM      3  C   LIG    1       -9.184  -4.936  -5.147  0.00  0.00    +0.088 A 
ATOM      4  C   LIG    1       -8.343  -4.860  -6.198  0.00  0.00    +0.113 A 
ATOM      5  O   LIG    1       -7.045  -4.567  -6.040  0.00  0.00    -0.427 OA
ATOM      6  C   LIG    1       -6.521  -4.327  -4.826  0.00  0.00    +0.351 A 
ATOM      7  O   LIG    1       -5.338  -4.057  -4.715  0.00  0.00    -0.244 OA
ENDROOT
BRANCH   1   8
ATOM      8  C   LIG    1       -6.792  -4.144  -2.338  0.00  0.00    +0.199 C 
ATOM      9  O   LIG    1       -6.748  -5.044  -1.518  0.00  0.00    -0.287 OA
BRANCH   8  11
ATOM     10  C   LIG    1       -5.681  -2.608  -0.803  0.00  0.00    +0.007 C 
ATOM     11  C   LIG    1       -6.292  -2.813  -1.992  0.00  0.00    -0.003 C 
ATOM     12  C   LIG    1       -6.459  -1.670  -2.960  0.00  0.00    +0.048 C 
BRANCH  10  15
ATOM     13  C   LIG    1       -4.579  -1.076   0.717  0.00  0.00    -0.073 C 
ATOM     14  C   LIG    1       -4.412  -2.219   1.685  0.00  0.00    +0.039 C 
ATOM     15  C   LIG    1       -5.182  -1.278  -0.456  0.00  0.00    -0.001 C 
BRANCH  13  16
ATOM     16  C   LIG    1       -4.065   0.295   1.074  0.00  0.00    +0.030 C 
BRANCH  16  17
ATOM     17  C   LIG    1       -5.117   1.035   1.902  0.00  0.00    +0.004 C 
BRANCH  17  19
ATOM     18  C   LIG    1       -5.648   3.167   3.092  0.00  0.00    +0.004 C 
ATOM     19  C   LIG    1       -4.595   2.426   2.264  0.00  0.00    -0.003 C 
ENDBRANCH  17  19
ENDBRANCH  16  17
ENDBRANCH  13  16
ENDBRANCH  10  15
ENDBRANCH   8  11
ENDBRANCH   1   8
BRANCH   2  20
ATOM     20  O   LIG    1       -9.533  -4.776  -2.780  0.00  0.00    -0.506 OA
ATOM     21  H   LIG    1       -9.203  -4.619  -1.917  0.00  0.00    +0.292 HD
ENDBRANCH   2  20
BRANCH   4  22
ATOM     22  C   LIG    1       -8.876  -5.112  -7.585  0.00  0.00    +0.075 C 
BRANCH  22  23
ATOM     23  C   LIG    1       -9.241  -3.779  -8.241  0.00  0.00    +0.012 C 
BRANCH  23  24
ATOM     24  C   LIG    1       -9.782  -4.035  -9.649  0.00  0.00    +0.029 C 
BRANCH  24  25
ATOM     25  C   LIG    1      -10.142  -2.721 -10.296  0.00  0.00    -0.012 C 
ATOM     26  C   LIG    1       -9.623  -2.397 -11.464  0.00  0.00    +0.073 C 
BRANCH  26  27
ATOM     27  N   LIG    1       -9.955  -1.184 -12.061  0.00  0.00    -0.258 N 
ATOM     28  H   LIG    1      -10.568  -0.577 -11.618  0.00  0.00    +0.158 HD
ATOM     29  C   LIG    1       -9.425  -0.853 -13.255  0.00  0.00    +0.404 C 
ATOM     30  O   LIG    1       -8.656  -1.613 -13.810  0.00  0.00    -0.226 OA
BRANCH  29  31
ATOM     31  O   LIG    1       -9.746   0.320 -13.832  0.00  0.00    -0.453 OA
ATOM     32  C   LIG    1       -9.147   0.607 -15.098  0.00  0.00    +0.282 C 
ENDBRANCH  29  31
ENDBRANCH  26  27
ENDBRANCH  24  25
ENDBRANCH  23  24
ENDBRANCH  22  23
ENDBRANCH   4  22
TORSDOF 13
