REMARK  Name = ZINC00055213
REMARK                            x       y       z     vdW  Elec       q    Type
REMARK                         _______ _______ _______ _____ _____    ______ ____
ROOT
ATOM      1  C   LIG    1        1.200   1.790   0.000  0.00  0.00    +0.090 A 
ATOM      2  C   LIG    1       -0.013   1.076   0.008  0.00  0.00    +0.139 A 
ATOM      3  N   LIG    1       -1.160   1.710   0.017  0.00  0.00    -0.251 NA
ATOM      4  C   LIG    1       -1.182   3.049   0.030  0.00  0.00    +0.089 A 
ATOM      5  C   LIG    1       -2.398   3.752   0.045  0.00  0.00    +0.030 A 
ATOM      6  C   LIG    1       -2.391   5.113   0.051  0.00  0.00    +0.002 A 
ATOM      7  C   LIG    1       -1.193   5.825   0.043  0.00  0.00    +0.002 A 
ATOM      8  C   LIG    1        0.005   5.178   0.028  0.00  0.00    +0.030 A 
ATOM      9  C   LIG    1        0.038   3.772   0.021  0.00  0.00    +0.090 A 
ATOM     10  N   LIG    1        1.200   3.111   0.007  0.00  0.00    -0.244 NA
ENDROOT
BRANCH   1  14
ATOM     11  C   LIG    1        4.891  -0.319  -0.045  0.00  0.00    +0.000 A 
ATOM     12  C   LIG    1        4.888   1.064  -0.038  0.00  0.00    +0.001 A 
ATOM     13  C   LIG    1        3.693   1.754  -0.024  0.00  0.00    +0.010 A 
ATOM     14  C   LIG    1        2.487   1.054  -0.016  0.00  0.00    +0.002 A 
ATOM     15  C   LIG    1        2.497  -0.340  -0.018  0.00  0.00    +0.010 A 
ATOM     16  C   LIG    1        3.698  -1.019  -0.038  0.00  0.00    +0.001 A 
ENDBRANCH   1  14
TORSDOF 1
