REMARK  Name = ZINC28638148
REMARK                            x       y       z     vdW  Elec       q    Type
REMARK                         _______ _______ _______ _____ _____    ______ ____
ROOT
ATOM      1  C   LIG    1       -0.913  -2.401   1.328  0.00  0.00    +0.013 A 
ATOM      2  C   LIG    1       -0.845  -1.099   1.773  0.00  0.00    +0.046 A 
ATOM      3  C   LIG    1        0.241  -0.302   1.433  0.00  0.00    +0.121 A 
ATOM      4  C   LIG    1        1.260  -0.812   0.639  0.00  0.00    +0.046 A 
ATOM      5  C   LIG    1        1.203  -2.115   0.193  0.00  0.00    +0.013 A 
ATOM      6  C   LIG    1        0.113  -2.920   0.533  0.00  0.00    -0.005 A 
ENDROOT
BRANCH   6   7
ATOM      7  C   LIG    1        0.045  -4.313   0.054  0.00  0.00    +0.138 C 
ATOM      8  N   LIG    1       -1.074  -4.967   0.118  0.00  0.00    -0.188 NA
BRANCH   8   9
ATOM      9  N   LIG    1       -2.292  -4.275   0.114  0.00  0.00    -0.206 N 
ATOM     10  H   LIG    1       -2.305  -3.187  -0.052  0.00  0.00    +0.177 HD
ATOM     11  C   LIG    1       -3.447  -4.941   0.312  0.00  0.00    +0.246 C 
ATOM     12  O   LIG    1       -3.432  -6.140   0.494  0.00  0.00    -0.273 OA
BRANCH  11  13
ATOM     13  C   LIG    1       -4.757  -4.196   0.306  0.00  0.00    +0.215 C 
BRANCH  13  14
ATOM     14  C   LIG    1       -5.860  -5.141   0.543  0.00  0.00    +0.072 C 
ATOM     15  N   LIG    1       -6.711  -5.870   0.726  0.00  0.00    -0.196 NA
ENDBRANCH  13  14
ENDBRANCH  11  13
ENDBRANCH   8   9
ENDBRANCH   6   7
BRANCH   3  16
ATOM     16  O   LIG    1        0.303   0.981   1.875  0.00  0.00    -0.483 OA
BRANCH  16  17
ATOM     17  C   LIG    1        1.448   1.745   1.488  0.00  0.00    +0.324 C 
BRANCH  17  18
ATOM     18  C   LIG    1        1.344   3.133   2.066  0.00  0.00    +0.255 C 
ATOM     19  N   LIG    1        2.317   4.035   1.831  0.00  0.00    -0.283 N 
ATOM     20  H   LIG    1        3.221   3.738   1.280  0.00  0.00    +0.155 HD
ATOM     21  O   LIG    1        0.384   3.438   2.742  0.00  0.00    -0.272 OA
BRANCH  19  22
ATOM     22  C   LIG    1        2.177   5.351   2.290  0.00  0.00    +0.034 A 
ATOM     23  C   LIG    1        2.683   6.405   1.541  0.00  0.00    +0.026 A 
ATOM     24  C   LIG    1        2.539   7.702   1.992  0.00  0.00    +0.040 A 
ATOM     25  C   LIG    1        1.901   7.951   3.196  0.00  0.00    +0.124 A 
ATOM     26  F   LIG    1        1.766   9.220   3.638  0.00  0.00    -0.205 F 
ATOM     27  C   LIG    1        1.402   6.900   3.947  0.00  0.00    +0.040 A 
ATOM     28  C   LIG    1        1.539   5.602   3.497  0.00  0.00    +0.026 A 
ENDBRANCH  19  22
ENDBRANCH  17  18
ENDBRANCH  16  17
ENDBRANCH   3  16
TORSDOF 8
