REMARK  Name = ZINC14970815
REMARK                            x       y       z     vdW  Elec       q    Type
REMARK                         _______ _______ _______ _____ _____    ______ ____
ROOT
ATOM      1  C   LIG    1       -0.019   4.161  -0.063  0.00  0.00    +0.248 C 
ATOM      2  N   LIG    1        1.143   3.484  -0.152  0.00  0.00    -0.280 N 
ATOM      3  H   LIG    1        1.982   3.967  -0.208  0.00  0.00    +0.155 HD
ATOM      4  O   LIG    1       -1.062   3.558   0.106  0.00  0.00    -0.270 OA
ENDROOT
BRANCH   1   8
ATOM      5  C   LIG    1       -0.040   8.396  -0.373  0.00  0.00    +0.033 A 
ATOM      6  C   LIG    1       -1.234   7.708  -0.179  0.00  0.00    +0.024 A 
ATOM      7  C   LIG    1       -1.231   6.335  -0.079  0.00  0.00    +0.015 A 
ATOM      8  C   LIG    1       -0.027   5.632  -0.171  0.00  0.00    +0.037 A 
ATOM      9  C   LIG    1        1.172   6.327  -0.359  0.00  0.00    +0.015 A 
ATOM     10  C   LIG    1        1.161   7.699  -0.465  0.00  0.00    +0.024 A 
BRANCH   5  13
ATOM     11  C   LIG    1       -1.155  11.921  -1.057  0.00  0.00    +0.109 C 
ATOM     12  C   LIG    1       -1.091  10.415  -1.051  0.00  0.00    +0.214 C 
ATOM     13  N   LIG    1       -0.047   9.787  -0.475  0.00  0.00    -0.286 N 
ATOM     14  H   LIG    1        0.700  10.302  -0.132  0.00  0.00    +0.155 HD
ATOM     15  O   LIG    1       -1.980   9.768  -1.564  0.00  0.00    -0.276 OA
ENDBRANCH   5  13
ENDBRANCH   1   8
BRANCH   2  16
ATOM     16  C   LIG    1        1.139   2.083  -0.164  0.00  0.00    +0.055 A 
ATOM     17  C   LIG    1       -0.001   1.397  -0.545  0.00  0.00    +0.034 A 
ATOM     18  C   LIG    1       -0.001   0.001  -0.556  0.00  0.00    -0.009 A 
ATOM     19  C   LIG    1        1.148  -0.698  -0.181  0.00  0.00    +0.011 A 
ATOM     20  C   LIG    1        2.282  -0.010   0.198  0.00  0.00    +0.025 A 
ATOM     21  C   LIG    1        2.285   1.378   0.209  0.00  0.00    +0.046 A 
BRANCH  18  22
ATOM     22  C   LIG    1       -1.216  -0.736  -0.963  0.00  0.00    +0.019 A 
ATOM     23  C   LIG    1       -1.419  -2.088  -1.041  0.00  0.00    +0.016 A 
ATOM     24  C   LIG    1       -2.651  -2.549  -1.452  0.00  0.00    +0.008 A 
ATOM     25  C   LIG    1       -3.622  -1.654  -1.766  0.00  0.00    +0.046 A 
ATOM     26  S   LIG    1       -2.802  -0.095  -1.475  0.00  0.00    -0.097 S 
ENDBRANCH  18  22
BRANCH  21  27
ATOM     27  N   LIG    1        3.437   2.072   0.595  0.00  0.00    -0.357 N 
ATOM     28  H   LIG    1        3.439   3.042   0.603  0.00  0.00    +0.142 HD
ATOM     29  H   LIG    1        4.233   1.583   0.854  0.00  0.00    +0.142 HD
ENDBRANCH  21  27
ENDBRANCH   2  16
TORSDOF 5
