REMARK  Name = ZINC28570228
REMARK                            x       y       z     vdW  Elec       q    Type
REMARK                         _______ _______ _______ _____ _____    ______ ____
ROOT
ATOM      1  S   UNK    1       -5.507   0.814   1.742  0.00  0.00    -0.156 S 
ENDROOT
BRANCH   1   2
ATOM      2  C   UNK    1       -4.995   1.133   0.031  0.00  0.00    +0.104 C 
BRANCH   2   5
ATOM      3  C   UNK    1       -2.531   3.994   0.037  0.00  0.00    +0.003 A 
ATOM      4  C   UNK    1       -3.719   3.286   0.038  0.00  0.00    +0.004 A 
ATOM      5  C   UNK    1       -3.700   1.904   0.030  0.00  0.00    -0.035 A 
ATOM      6  C   UNK    1       -2.494   1.229   0.021  0.00  0.00    +0.037 A 
ATOM      7  C   UNK    1       -1.306   1.936   0.019  0.00  0.00    +0.122 A 
ATOM      8  C   UNK    1       -1.325   3.319   0.032  0.00  0.00    +0.032 A 
BRANCH   7   9
ATOM      9  N   UNK    1       -0.014   1.214   0.009  0.00  0.00    +0.006 N 
ATOM     10  O   UNK    1        0.002  -0.004   0.002  0.00  0.00    -0.130 OA
BRANCH   9  11
ATOM     11  O   UNK    1        1.032   1.837   0.002  0.00  0.00    -0.396 OA
ATOM     12  H   UNK    1        1.019   2.774   0.007  0.00  0.00    +0.329 HD
ENDBRANCH   9  11
ENDBRANCH   7   9
ENDBRANCH   2   5
ENDBRANCH   1   2
BRANCH   1  13
ATOM     13  C   UNK    1       -7.059  -0.109   1.571  0.00  0.00    +0.068 C 
BRANCH  13  14
ATOM     14  C   UNK    1       -7.607  -0.448   2.959  0.00  0.00    +0.005 C 
BRANCH  14  15
ATOM     15  C   UNK    1       -8.916  -1.226   2.814  0.00  0.00    +0.036 C 
BRANCH  15  16
ATOM     16  N   UNK    1       -8.648  -2.522   2.176  0.00  0.00    +0.387 N 
ATOM     17  H   UNK    1       -8.208  -2.357   1.182  0.00  0.00    -0.089 HD
ATOM     18  H   UNK    1       -7.945  -3.097   2.797  0.00  0.00    -0.089 HD
ATOM     19  H   UNK    1       -9.589  -3.081   2.073  0.00  0.00    -0.089 HD
ENDBRANCH  15  16
BRANCH  15  20
ATOM     20  C   UNK    1       -9.519  -1.452   4.177  0.00  0.00    +0.290 C 
ATOM     21  O   UNK    1       -9.382  -2.518   4.729  0.00  0.00    -0.253 OA
BRANCH  20  22
ATOM     22  O   UNK    1      -10.209  -0.470   4.777  0.00  0.00    -0.482 OA
ATOM     23  H   UNK    1      -10.315   0.357   4.349  0.00  0.00    +0.295 HD
ENDBRANCH  20  22
ENDBRANCH  15  20
ENDBRANCH  14  15
ENDBRANCH  13  14
ENDBRANCH   1  13
TORSDOF 10
