REMARK  Name = ZINC28123072
REMARK                            x       y       z     vdW  Elec       q    Type
REMARK                         _______ _______ _______ _____ _____    ______ ____
ROOT
ATOM      1  N   LIG    1        0.074   5.190   0.029  0.00  0.00    -0.265 N 
ATOM      2  H   LIG    1        1.039   5.712   0.107  0.00  0.00    +0.157 HD
ATOM      3  C   LIG    1       -1.070   5.898  -0.058  0.00  0.00    +0.269 C 
ATOM      4  O   LIG    1       -2.141   5.325  -0.051  0.00  0.00    -0.268 OA
ENDROOT
BRANCH   3   5
ATOM      5  C   LIG    1       -1.021   7.375  -0.162  0.00  0.00    +0.145 A 
ATOM      6  C   LIG    1       -2.202   8.108  -0.258  0.00  0.00    +0.143 A 
ATOM      7  N   LIG    1       -2.154   9.425  -0.345  0.00  0.00    -0.258 NA
ATOM      8  C   LIG    1       -0.989  10.047  -0.353  0.00  0.00    +0.150 A 
ATOM      9  C   LIG    1        0.191   9.319  -0.263  0.00  0.00    +0.148 A 
ATOM     10 CL   LIG    1        1.720  10.142  -0.274  0.00  0.00    -0.060 Cl
ATOM     11  N   LIG    1        0.151   8.004  -0.170  0.00  0.00    -0.228 NA
ENDBRANCH   3   5
BRANCH   1  16
ATOM     12  C   LIG    1        1.166   1.692   0.001  0.00  0.00    +0.005 A 
ATOM     13  C   LIG    1       -0.079   1.078   0.003  0.00  0.00    +0.020 A 
ATOM     14  C   LIG    1       -1.218   1.859   0.019  0.00  0.00    +0.113 A 
ATOM     15  N   LIG    1       -1.135   3.175   0.028  0.00  0.00    -0.240 NA
ATOM     16  C   LIG    1        0.033   3.798   0.020  0.00  0.00    +0.125 A 
ATOM     17  C   LIG    1        1.221   3.074   0.003  0.00  0.00    +0.044 A 
ENDBRANCH   1  16
TORSDOF 2
