REMARK  Name = ZINC13805381
REMARK                            x       y       z     vdW  Elec       q    Type
REMARK                         _______ _______ _______ _____ _____    ______ ____
ROOT
ATOM      1  C   LIG    1        7.655   4.679  -0.387  0.00  0.00    -0.030 A 
ATOM      2  C   LIG    1        6.934   4.660  -1.567  0.00  0.00    +0.009 A 
ATOM      3  C   LIG    1        5.584   4.366  -1.548  0.00  0.00    +0.046 A 
ATOM      4  C   LIG    1        4.952   4.091  -0.345  0.00  0.00    +0.120 A 
ATOM      5  C   LIG    1        5.676   4.116   0.839  0.00  0.00    +0.046 A 
ATOM      6  C   LIG    1        7.027   4.405   0.814  0.00  0.00    +0.009 A 
ENDROOT
BRANCH   1   7
ATOM      7  C   LIG    1        9.127   5.000  -0.409  0.00  0.00    +0.137 C 
BRANCH   7   8
ATOM      8  N   LIG    1        9.314   6.445  -0.262  0.00  0.00    -0.340 N 
ATOM      9  H   LIG    1        8.544   7.027  -0.169  0.00  0.00    +0.146 HD
BRANCH   8  13
ATOM     10  C   LIG    1       13.154   8.055  -0.237  0.00  0.00    +0.000 A 
ATOM     11  C   LIG    1       12.057   8.886  -0.106  0.00  0.00    +0.002 A 
ATOM     12  C   LIG    1       10.782   8.356  -0.114  0.00  0.00    +0.023 A 
ATOM     13  C   LIG    1       10.602   6.985  -0.254  0.00  0.00    +0.027 A 
ATOM     14  C   LIG    1       11.707   6.153  -0.380  0.00  0.00    +0.023 A 
ATOM     15  C   LIG    1       12.979   6.690  -0.377  0.00  0.00    +0.002 A 
ENDBRANCH   8  13
ENDBRANCH   7   8
ENDBRANCH   1   7
BRANCH   4  16
ATOM     16  O   LIG    1        3.624   3.801  -0.324  0.00  0.00    -0.494 OA
BRANCH  16  17
ATOM     17  C   LIG    1        3.040   3.528   0.951  0.00  0.00    +0.210 C 
BRANCH  17  18
ATOM     18  C   LIG    1        1.550   3.226   0.775  0.00  0.00    -0.037 C 
BRANCH  18  19
ATOM     19  N   LIG    1        1.386   1.961  -0.003  0.00  0.00    +0.382 N 
ATOM     20  H   LIG    1        1.692   2.118  -0.970  0.00  0.00    -0.082 HD
ATOM     21  C   LIG    1        2.176   0.880   0.598  0.00  0.00    -0.079 C 
ATOM     22  C   LIG    1        1.500  -0.388   0.018  0.00  0.00    -0.020 C 
ATOM     23  C   LIG    1        0.002  -0.004   0.002  0.00  0.00    -0.020 C 
ATOM     24  C   LIG    1       -0.019   1.536   0.011  0.00  0.00    -0.079 C 
ENDBRANCH  18  19
ENDBRANCH  17  18
ENDBRANCH  16  17
ENDBRANCH   4  16
TORSDOF 7
