REMARK  Name = ZINC64527573
REMARK                            x       y       z     vdW  Elec       q    Type
REMARK                         _______ _______ _______ _____ _____    ______ ____
ROOT
ATOM      1  C   LIG    1        2.388  -2.143   0.824  0.00  0.00    +0.128 A 
ATOM      2  C   LIG    1        1.396  -2.987   0.341  0.00  0.00    +0.047 A 
ATOM      3  C   LIG    1        1.622  -4.346   0.264  0.00  0.00    +0.014 A 
ATOM      4  C   LIG    1        2.848  -4.871   0.670  0.00  0.00    +0.003 A 
ATOM      5  C   LIG    1        3.842  -4.021   1.154  0.00  0.00    +0.014 A 
ATOM      6  C   LIG    1        3.612  -2.663   1.224  0.00  0.00    +0.047 A 
ENDROOT
BRANCH   4   7
ATOM      7  C   LIG    1        3.094  -6.331   0.589  0.00  0.00    +0.105 A 
ATOM      8  C   LIG    1        2.768  -7.203  -0.539  0.00  0.00    +0.086 A 
ATOM      9  C   LIG    1        2.179  -7.016  -1.801  0.00  0.00    +0.131 A 
ATOM     10  N   LIG    1        2.036  -8.074  -2.593  0.00  0.00    -0.220 NA
ATOM     11  C   LIG    1        2.437  -9.274  -2.208  0.00  0.00    +0.225 A 
ATOM     12  N   LIG    1        2.992  -9.495  -1.038  0.00  0.00    -0.216 NA
ATOM     13  C   LIG    1        3.179  -8.498  -0.173  0.00  0.00    +0.161 A 
ATOM     14  N   LIG    1        3.709  -8.406   1.079  0.00  0.00    -0.259 N 
ATOM     15  H   LIG    1        4.076  -9.146   1.588  0.00  0.00    +0.191 HD
ATOM     16  N   LIG    1        3.649  -7.078   1.514  0.00  0.00    -0.171 NA
BRANCH   9  17
ATOM     17  N   LIG    1        1.758  -5.765  -2.208  0.00  0.00    -0.342 N 
ATOM     18  H   LIG    1        1.157  -5.678  -2.964  0.00  0.00    +0.144 HD
ATOM     19  H   LIG    1        2.065  -4.974  -1.738  0.00  0.00    +0.144 HD
ENDBRANCH   9  17
ENDBRANCH   4   7
BRANCH   1  20
ATOM     20  O   LIG    1        2.162  -0.806   0.899  0.00  0.00    -0.456 OA
BRANCH  20  24
ATOM     21  C   LIG    1        0.556   0.694   4.390  0.00  0.00    +0.000 A 
ATOM     22  C   LIG    1        0.816  -0.660   4.276  0.00  0.00    +0.004 A 
ATOM     23  C   LIG    1        1.354  -1.164   3.108  0.00  0.00    +0.046 A 
ATOM     24  C   LIG    1        1.633  -0.312   2.049  0.00  0.00    +0.128 A 
ATOM     25  C   LIG    1        1.371   1.046   2.166  0.00  0.00    +0.046 A 
ATOM     26  C   LIG    1        0.833   1.545   3.337  0.00  0.00    +0.004 A 
ENDBRANCH  20  24
ENDBRANCH   1  20
TORSDOF 4
