REMARK  Name = ZINC15924360
REMARK                            x       y       z     vdW  Elec       q    Type
REMARK                         _______ _______ _______ _____ _____    ______ ____
ROOT
ATOM      1  N   LIG    1       -1.198  -0.721   0.010  0.00  0.00    -0.307 N 
ATOM      2  H   LIG    1       -1.997  -0.296   0.360  0.00  0.00    +0.153 HD
ENDROOT
BRANCH   1   9
ATOM      3  C   LIG    1        0.169   1.258   0.222  0.00  0.00    +0.024 A 
ATOM      4  C   LIG    1        1.405   1.843   0.416  0.00  0.00    +0.022 A 
ATOM      5  C   LIG    1        2.526   1.051   0.593  0.00  0.00    +0.041 A 
ATOM      6 CL   LIG    1        4.079   1.789   0.834  0.00  0.00    -0.084 Cl
ATOM      7  C   LIG    1        2.413  -0.328   0.576  0.00  0.00    +0.022 A 
ATOM      8  C   LIG    1        1.179  -0.918   0.383  0.00  0.00    +0.024 A 
ATOM      9  C   LIG    1        0.052  -0.126   0.205  0.00  0.00    +0.032 A 
ENDBRANCH   1   9
BRANCH   1  10
ATOM     10  C   LIG    1       -1.296  -1.913  -0.682  0.00  0.00    +0.111 A 
ATOM     11  C   LIG    1       -2.422  -2.716  -0.878  0.00  0.00    +0.143 A 
ATOM     12  C   LIG    1       -2.182  -3.869  -1.633  0.00  0.00    +0.240 A 
ATOM     13  N   LIG    1       -0.962  -4.061  -2.060  0.00  0.00    -0.172 NA
ATOM     14  S   LIG    1       -0.092  -2.749  -1.499  0.00  0.00    +0.032 S 
BRANCH  11  15
ATOM     15  C   LIG    1       -3.712  -2.387  -0.350  0.00  0.00    +0.107 C 
ATOM     16  N   LIG    1       -4.735  -2.126   0.068  0.00  0.00    -0.191 NA
ENDBRANCH  11  15
BRANCH  12  17
ATOM     17  O   LIG    1       -3.176  -4.752  -1.912  0.00  0.00    -0.491 OA
ATOM     18  H   LIG    1       -4.044  -4.595  -1.596  0.00  0.00    +0.294 HD
ENDBRANCH  12  17
ENDBRANCH   1  10
TORSDOF 4
