REMARK  Name = ZINC19434532
REMARK                            x       y       z     vdW  Elec       q    Type
REMARK                         _______ _______ _______ _____ _____    ______ ____
ROOT
ATOM      1  C   LIG    1       -1.331   2.079   0.020  0.00  0.00    +0.016 C 
ENDROOT
BRANCH   1   2
ATOM      2  C   LIG    1       -0.016   1.344   0.009  0.00  0.00    +0.201 C 
ATOM      3  N   LIG    1        0.002  -0.004   0.002  0.00  0.00    -0.303 N 
ATOM      4  C   LIG    1       -1.181  -0.877   0.015  0.00  0.00    +0.108 C 
ATOM      5  C   LIG    1       -0.674  -2.335   0.025  0.00  0.00    +0.020 C 
ATOM      6  C   LIG    1        0.762  -2.198   0.596  0.00  0.00    +0.020 C 
ATOM      7  C   LIG    1        1.212  -0.847  -0.014  0.00  0.00    +0.108 C 
ATOM      8  O   LIG    1        1.026   1.964   0.003  0.00  0.00    -0.277 OA
ENDBRANCH   1   2
BRANCH   1   9
ATOM      9  N   LIG    1       -1.126   3.457  -0.448  0.00  0.00    +0.386 N 
ATOM     10  H   LIG    1       -2.086   3.994  -0.440  0.00  0.00    -0.089 HD
ATOM     11  H   LIG    1       -0.415   3.967   0.219  0.00  0.00    -0.089 HD
ATOM     12  H   LIG    1       -0.723   3.440  -1.471  0.00  0.00    -0.089 HD
ENDBRANCH   1   9
BRANCH   1  13
ATOM     13  C   LIG    1       -1.892   2.102   1.443  0.00  0.00    -0.020 C 
ATOM     14  C   LIG    1       -0.964   2.919   2.344  0.00  0.00    +0.006 C 
BRANCH  13  16
ATOM     15  C   LIG    1       -3.895   2.648   2.833  0.00  0.00    +0.004 C 
ATOM     16  C   LIG    1       -3.284   2.738   1.433  0.00  0.00    -0.001 C 
ENDBRANCH  13  16
ENDBRANCH   1  13
TORSDOF 4
