REMARK  Name = ZINC13800495
REMARK                            x       y       z     vdW  Elec       q    Type
REMARK                         _______ _______ _______ _____ _____    ______ ____
ROOT
ATOM      1  C   LIG    1        2.018  -4.596  -3.483  0.00  0.00    -0.030 A 
ATOM      2  C   LIG    1        1.300  -4.824  -4.642  0.00  0.00    +0.007 A 
ATOM      3  C   LIG    1        1.947  -5.270  -5.779  0.00  0.00    +0.029 A 
ATOM      4  C   LIG    1        3.312  -5.487  -5.758  0.00  0.00    +0.105 A 
ATOM      5  C   LIG    1        4.031  -5.258  -4.599  0.00  0.00    +0.029 A 
ATOM      6  C   LIG    1        3.384  -4.808  -3.463  0.00  0.00    +0.007 A 
ENDROOT
BRANCH   4   7
ATOM      7  S   LIG    1        4.137  -6.056  -7.207  0.00  0.00    +0.056 S 
ATOM      8  O   LIG    1        3.158  -6.716  -7.999  0.00  0.00    -0.153 OA
ATOM      9  O   LIG    1        5.325  -6.702  -6.771  0.00  0.00    -0.153 OA
BRANCH   7  10
ATOM     10  N   LIG    1        4.611  -4.718  -8.058  0.00  0.00    -0.204 NA
ATOM     11  H   LIG    1        5.087  -4.820  -8.897  0.00  0.00    +0.144 HD
ATOM     12  H   LIG    1        4.413  -3.831  -7.718  0.00  0.00    +0.144 HD
ENDBRANCH   7  10
ENDBRANCH   4   7
BRANCH   1  13
ATOM     13  C   LIG    1        1.313  -4.110  -2.243  0.00  0.00    +0.139 C 
BRANCH  13  15
ATOM     14  C   LIG    1        0.710  -1.985  -1.215  0.00  0.00    +0.196 C 
ATOM     15  N   LIG    1        1.293  -2.645  -2.235  0.00  0.00    -0.313 N 
ATOM     16  H   LIG    1        1.700  -2.151  -2.964  0.00  0.00    +0.149 HD
ATOM     17  O   LIG    1        0.202  -2.603  -0.304  0.00  0.00    -0.278 OA
BRANCH  14  18
ATOM     18  C   LIG    1        0.690  -0.478  -1.207  0.00  0.00    +0.014 C 
BRANCH  18  20
ATOM     19  C   LIG    1       -0.018   1.465   0.010  0.00  0.00    -0.100 C 
ATOM     20  N   LIG    1        0.002  -0.004   0.002  0.00  0.00    +0.383 N 
ATOM     21  H   LIG    1       -0.945  -0.353   0.009  0.00  0.00    -0.086 HD
ATOM     22  H   LIG    1        0.490  -0.338   0.820  0.00  0.00    -0.086 HD
ENDBRANCH  18  20
ENDBRANCH  14  18
ENDBRANCH  13  15
ENDBRANCH   1  13
TORSDOF 6
