REMARK  Name = ZINC36294609
REMARK                            x       y       z     vdW  Elec       q    Type
REMARK                         _______ _______ _______ _____ _____    ______ ____
ROOT
ATOM      1  N   LIG    1        1.383  -4.011   2.325  0.00  0.00    -0.346 N 
ATOM      2  C   LIG    1        0.628  -4.820   3.094  0.00  0.00    +0.098 A 
ATOM      3  C   LIG    1        0.953  -6.127   2.793  0.00  0.00    +0.040 A 
ATOM      4  C   LIG    1        1.956  -6.084   1.791  0.00  0.00    +0.039 A 
ATOM      5  C   LIG    1        2.194  -4.775   1.522  0.00  0.00    +0.050 A 
ENDROOT
BRANCH   5   6
ATOM      6  C   LIG    1        3.166  -4.258   0.533  0.00  0.00    +0.001 A 
ATOM      7  C   LIG    1        3.842  -3.062   0.775  0.00  0.00    +0.010 A 
ATOM      8  C   LIG    1        4.747  -2.584  -0.151  0.00  0.00    +0.003 A 
ATOM      9  C   LIG    1        4.985  -3.288  -1.317  0.00  0.00    +0.038 A 
ATOM     10  C   LIG    1        4.317  -4.477  -1.564  0.00  0.00    +0.124 A 
ATOM     11  F   LIG    1        4.554  -5.160  -2.706  0.00  0.00    -0.205 F 
ATOM     12  C   LIG    1        3.413  -4.969  -0.641  0.00  0.00    +0.048 A 
ENDBRANCH   5   6
BRANCH   3  13
ATOM     13  C   LIG    1        0.369  -7.337   3.398  0.00  0.00    +0.195 C 
ATOM     14  O   LIG    1       -0.549  -7.238   4.191  0.00  0.00    -0.287 OA
BRANCH  13  15
ATOM     15  C   LIG    1        0.898  -8.666   3.043  0.00  0.00    +0.030 A 
ATOM     16  C   LIG    1        1.708  -9.367   3.928  0.00  0.00    +0.012 A 
ATOM     17  C   LIG    1        2.204 -10.619   3.591  0.00  0.00    +0.001 A 
ATOM     18  C   LIG    1        1.921 -11.206   2.396  0.00  0.00    +0.008 A 
ATOM     19  C   LIG    1        1.108 -10.555   1.453  0.00  0.00    -0.017 A 
ATOM     20  C   LIG    1        0.808 -11.147   0.214  0.00  0.00    +0.008 A 
ATOM     21  C   LIG    1        0.001 -10.494  -0.667  0.00  0.00    +0.001 A 
ATOM     22  C   LIG    1       -0.516  -9.236  -0.368  0.00  0.00    +0.001 A 
ATOM     23  C   LIG    1       -0.240  -8.629   0.822  0.00  0.00    +0.009 A 
ATOM     24  C   LIG    1        0.575  -9.278   1.756  0.00  0.00    -0.007 A 
ENDBRANCH  13  15
ENDBRANCH   3  13
BRANCH   1  25
ATOM     25  C   LIG    1        1.342  -2.546   2.340  0.00  0.00    +0.122 C 
BRANCH  25  26
ATOM     26  C   LIG    1        0.612  -2.045   1.092  0.00  0.00    +0.022 C 
BRANCH  26  27
ATOM     27  C   LIG    1        0.568  -0.515   1.107  0.00  0.00    +0.001 C 
BRANCH  27  29
ATOM     28  C   LIG    1       -0.206   1.515  -0.126  0.00  0.00    +0.004 C 
ATOM     29  C   LIG    1       -0.162  -0.014  -0.141  0.00  0.00    -0.003 C 
ENDBRANCH  27  29
ENDBRANCH  26  27
ENDBRANCH  25  26
ENDBRANCH   1  25
TORSDOF 7
