REMARK  Name = ZINC40379944
REMARK                            x       y       z     vdW  Elec       q    Type
REMARK                         _______ _______ _______ _____ _____    ______ ____
ROOT
ATOM      1  C   LIG    1        4.255   2.011   1.414  0.00  0.00    +0.129 C 
ENDROOT
BRANCH   1   2
ATOM      2  C   LIG    1        5.673   2.520   1.403  0.00  0.00    +0.239 C 
ATOM      3  N   LIG    1        6.710   1.716   1.383  0.00  0.00    -0.276 N 
ATOM      4  H   LIG    1        6.669   0.747   1.375  0.00  0.00    +0.304 HD
ATOM      5  C   LIG    1        7.945   2.517   1.376  0.00  0.00    +0.276 C 
ATOM      6  C   LIG    1        7.423   3.969   1.396  0.00  0.00    +0.268 C 
ATOM      7  N   LIG    1        5.961   3.800   1.407  0.00  0.00    -0.237 N 
ATOM      8  H   LIG    1        5.313   4.522   1.417  0.00  0.00    +0.291 HD
ENDBRANCH   1   2
BRANCH   1   9
ATOM      9  C   LIG    1        3.761   1.845  -0.024  0.00  0.00    +0.054 C 
BRANCH   9  12
ATOM     10  C   LIG    1       -0.016   1.351   0.009  0.00  0.00    +0.008 A 
ATOM     11  C   LIG    1        1.183   2.038   0.002  0.00  0.00    +0.011 A 
ATOM     12  C   LIG    1        2.343   1.336  -0.013  0.00  0.00    -0.010 A 
ATOM     13  S   LIG    1        1.754  -0.349  -0.017  0.00  0.00    -0.102 S 
ATOM     14  C   LIG    1        0.002  -0.004   0.002  0.00  0.00    +0.045 A 
ENDBRANCH   9  12
ENDBRANCH   1   9
TORSDOF 3
