REMARK  Name = ZINC49033518
REMARK                            x       y       z     vdW  Elec       q    Type
REMARK                         _______ _______ _______ _____ _____    ______ ____
ROOT
ATOM      1  N   LIG    1        1.294  -2.259  -1.877  0.00  0.00    -0.296 N 
ATOM      2  C   LIG    1        1.687  -2.488  -0.609  0.00  0.00    +0.248 C 
ATOM      3  O   LIG    1        1.125  -3.334   0.058  0.00  0.00    -0.270 OA
ENDROOT
BRANCH   2   4
ATOM      4  C   LIG    1        2.802  -1.710  -0.029  0.00  0.00    +0.057 A 
ATOM      5  C   LIG    1        2.893  -0.336  -0.260  0.00  0.00    +0.014 A 
ATOM      6  C   LIG    1        3.935   0.385   0.284  0.00  0.00    +0.002 A 
ATOM      7  C   LIG    1        4.891  -0.250   1.058  0.00  0.00    +0.021 A 
ATOM      8  C   LIG    1        4.809  -1.612   1.292  0.00  0.00    +0.060 A 
ATOM      9 CL   LIG    1        6.014  -2.399   2.263  0.00  0.00    -0.082 Cl
ATOM     10  C   LIG    1        3.765  -2.345   0.757  0.00  0.00    +0.071 A 
ATOM     11 CL   LIG    1        3.658  -4.052   1.057  0.00  0.00    -0.081 Cl
ENDBRANCH   2   4
BRANCH   1  12
ATOM     12  C   LIG    1        0.186  -3.027  -2.451  0.00  0.00    +0.058 C 
ATOM     13  C   LIG    1        0.559  -4.525  -2.534  0.00  0.00    +0.001 C 
ATOM     14  C   LIG    1       -0.083  -5.113  -1.252  0.00  0.00    -0.081 C 
ATOM     15  N   LIG    1       -1.358  -4.360  -1.135  0.00  0.00    +0.380 N 
ATOM     16  H   LIG    1       -1.692  -4.387  -0.183  0.00  0.00    -0.086 HD
ATOM     17  H   LIG    1       -2.050  -4.747  -1.759  0.00  0.00    -0.086 HD
ATOM     18  C   LIG    1       -1.043  -2.966  -1.525  0.00  0.00    -0.060 C 
ENDBRANCH   1  12
BRANCH   1  19
ATOM     19  C   LIG    1        1.974  -1.241  -2.682  0.00  0.00    +0.108 C 
BRANCH  19  21
ATOM     20  C   LIG    1        1.673   0.883  -3.963  0.00  0.00    +0.005 C 
ATOM     21  C   LIG    1        0.963  -0.179  -3.122  0.00  0.00    +0.016 C 
ENDBRANCH  19  21
ENDBRANCH   1  19
TORSDOF 4
