REMARK  Name = ZINC29135396
REMARK                            x       y       z     vdW  Elec       q    Type
REMARK                         _______ _______ _______ _____ _____    ______ ____
ROOT
ATOM      1  C   LIG    1       -0.070   5.347   0.031  0.00  0.00    +0.132 C 
ATOM      2  C   LIG    1       -0.746   5.866  -1.242  0.00  0.00    +0.059 C 
ATOM      3  C   LIG    1       -2.241   5.698  -1.134  0.00  0.00    +0.004 A 
ATOM      4  C   LIG    1       -3.002   5.717  -2.321  0.00  0.00    -0.011 A 
ATOM      5  C   LIG    1       -2.380   5.862  -3.574  0.00  0.00    +0.010 A 
ATOM      6  C   LIG    1       -3.139   5.883  -4.703  0.00  0.00    +0.016 A 
ATOM      7  C   LIG    1       -4.527   5.762  -4.638  0.00  0.00    +0.018 A 
ATOM      8 BR   LIG    1       -5.542   5.798  -6.233  0.00  0.00    -0.050 Br
ATOM      9  C   LIG    1       -5.162   5.619  -3.441  0.00  0.00    +0.023 A 
ATOM     10  C   LIG    1       -4.410   5.591  -2.255  0.00  0.00    -0.016 A 
ATOM     11  C   LIG    1       -5.029   5.442  -1.001  0.00  0.00    +0.012 A 
ATOM     12  C   LIG    1       -4.268   5.417   0.122  0.00  0.00    +0.047 A 
ATOM     13  C   LIG    1       -2.870   5.541   0.063  0.00  0.00    +0.135 A 
ATOM     14  O   LIG    1       -2.184   5.497   1.239  0.00  0.00    -0.425 OA
ATOM     15  C   LIG    1       -0.885   5.845   1.208  0.00  0.00    +0.320 C 
ATOM     16  O   LIG    1       -0.391   6.523   2.078  0.00  0.00    -0.250 OA
ENDROOT
BRANCH   1  20
ATOM     17  C   LIG    1       -0.012   1.076   0.006  0.00  0.00    +0.000 A 
ATOM     18  C   LIG    1        1.148   1.781   0.262  0.00  0.00    +0.000 A 
ATOM     19  C   LIG    1        1.131   3.164   0.266  0.00  0.00    +0.004 A 
ATOM     20  C   LIG    1       -0.050   3.840   0.022  0.00  0.00    -0.033 A 
ATOM     21  C   LIG    1       -1.212   3.135  -0.229  0.00  0.00    +0.004 A 
ATOM     22  C   LIG    1       -1.193   1.752  -0.237  0.00  0.00    +0.000 A 
ENDBRANCH   1  20
TORSDOF 1
