REMARK  Name = ZINC19167170
REMARK                            x       y       z     vdW  Elec       q    Type
REMARK                         _______ _______ _______ _____ _____    ______ ____
ROOT
ATOM      1  C   LIG    1       -2.207   0.938  -1.076  0.00  0.00    +0.160 C 
ENDROOT
BRANCH   1   5
ATOM      2  C   LIG    1       -4.486   2.456  -4.354  0.00  0.00    +0.000 A 
ATOM      3  C   LIG    1       -4.561   3.070  -3.117  0.00  0.00    +0.000 A 
ATOM      4  C   LIG    1       -3.823   2.579  -2.057  0.00  0.00    +0.006 A 
ATOM      5  C   LIG    1       -3.011   1.474  -2.232  0.00  0.00    -0.018 A 
ATOM      6  C   LIG    1       -2.933   0.863  -3.470  0.00  0.00    +0.006 A 
ATOM      7  C   LIG    1       -3.674   1.352  -4.530  0.00  0.00    +0.000 A 
ENDBRANCH   1   5
BRANCH   1   8
ATOM      8  O   LIG    1       -2.132  -0.486  -1.167  0.00  0.00    -0.386 OA
ATOM      9  H   LIG    1       -1.582  -1.058  -0.405  0.00  0.00    +0.210 HD
ENDBRANCH   1   8
BRANCH   1  10
ATOM     10  C   LIG    1       -0.795   1.527  -1.120  0.00  0.00    +0.134 C 
BRANCH  10  11
ATOM     11  N   LIG    1       -0.012   1.005   0.008  0.00  0.00    -0.256 NA
ATOM     12  H   LIG    1        0.046  -0.091  -0.062  0.00  0.00    +0.140 HD
BRANCH  11  13
ATOM     13  N   LIG    1        1.339   1.544  -0.002  0.00  0.00    -0.270 NA
ATOM     14  H   LIG    1        1.839   1.262  -0.941  0.00  0.00    +0.137 HD
ATOM     15  H   LIG    1        1.902   1.138   0.850  0.00  0.00    +0.137 HD
ENDBRANCH  11  13
ENDBRANCH  10  11
ENDBRANCH   1  10
TORSDOF 5
