REMARK  Name = ZINC33295958
REMARK                            x       y       z     vdW  Elec       q    Type
REMARK                         _______ _______ _______ _____ _____    ______ ____
ROOT
ATOM      1  C   LIG    1       -2.001   1.530   3.657  0.00  0.00    +0.103 A 
ATOM      2  C   LIG    1       -2.684   1.061   2.533  0.00  0.00    +0.053 A 
ATOM      3  C   LIG    1       -4.051   0.556   2.713  0.00  0.00    +0.021 A 
ATOM      4  C   LIG    1       -4.786   0.067   1.630  0.00  0.00    +0.031 A 
ATOM      5  C   LIG    1       -6.066  -0.401   1.831  0.00  0.00    +0.042 A 
ATOM      6 CL   LIG    1       -6.984  -1.009   0.489  0.00  0.00    -0.084 Cl
ATOM      7  C   LIG    1       -6.626  -0.387   3.102  0.00  0.00    +0.022 A 
ATOM      8  C   LIG    1       -5.913   0.092   4.179  0.00  0.00    +0.028 A 
ATOM      9  C   LIG    1       -4.619   0.568   4.000  0.00  0.00    +0.051 A 
ATOM     10  N   LIG    1       -3.891   1.050   5.070  0.00  0.00    -0.321 N 
ATOM     11  H   LIG    1       -4.335   1.060   6.077  0.00  0.00    +0.169 HD
ATOM     12  C   LIG    1       -2.640   1.515   4.920  0.00  0.00    +0.262 A 
ATOM     13  O   LIG    1       -2.039   1.929   5.895  0.00  0.00    -0.267 OA
ENDROOT
BRANCH   1  20
ATOM     14  C   LIG    1        3.611   3.656   3.754  0.00  0.00    +0.002 A 
ATOM     15  C   LIG    1        3.495   3.521   2.378  0.00  0.00    +0.002 A 
ATOM     16  C   LIG    1        2.332   3.044   1.818  0.00  0.00    +0.030 A 
ATOM     17  C   LIG    1        1.258   2.693   2.642  0.00  0.00    +0.089 A 
ATOM     18  C   LIG    1        1.381   2.832   4.036  0.00  0.00    +0.066 A 
ATOM     19  N   LIG    1        0.177   2.414   4.574  0.00  0.00    -0.338 N 
ATOM     20  C   LIG    1       -0.626   2.041   3.529  0.00  0.00    +0.146 A 
ATOM     21  H   LIG    1        0.027   2.430   5.664  0.00  0.00    +0.167 HD
ATOM     22  N   LIG    1        0.018   2.203   2.395  0.00  0.00    -0.227 NA
ATOM     23  C   LIG    1        2.562   3.314   4.581  0.00  0.00    +0.028 A 
ENDBRANCH   1  20
BRANCH   2  24
ATOM     24  N   LIG    1       -2.091   1.067   1.293  0.00  0.00    -0.341 N 
ATOM     25  H   LIG    1       -1.723   1.921   0.706  0.00  0.00    +0.146 HD
BRANCH  24  26
ATOM     26  C   LIG    1       -1.975  -0.297   0.759  0.00  0.00    +0.057 C 
ATOM     27  C   LIG    1       -0.614  -0.884   1.143  0.00  0.00    -0.056 C 
ATOM     28  N   LIG    1        0.133  -1.219  -0.077  0.00  0.00    +0.381 N 
ATOM     29  H   LIG    1        1.104  -1.640   0.225  0.00  0.00    -0.082 HD
ATOM     30  C   LIG    1       -0.572  -2.239  -0.865  0.00  0.00    -0.078 C 
ATOM     31  C   LIG    1       -1.932  -1.690  -1.306  0.00  0.00    -0.014 C 
ATOM     32  C   LIG    1        0.393  -0.017  -0.882  0.00  0.00    -0.078 C 
ATOM     33  C   LIG    1       -0.950   0.600  -1.340  0.00  0.00    -0.014 C 
ATOM     34  C   LIG    1       -2.086  -0.261  -0.770  0.00  0.00    +0.004 C 
ENDBRANCH  24  26
ENDBRANCH   2  24
TORSDOF 3
