REMARK  Name = ZINC25760037
REMARK                            x       y       z     vdW  Elec       q    Type
REMARK                         _______ _______ _______ _____ _____    ______ ____
ROOT
ATOM      1  N   LIG    1        4.336   3.617   1.345  0.00  0.00    -0.295 NA
ATOM      2  C   LIG    1        2.961   3.799   1.829  0.00  0.00    +0.103 C 
ATOM      3  C   LIG    1        2.993   4.192   3.310  0.00  0.00    +0.120 C 
ATOM      4  N   LIG    1        3.867   5.364   3.464  0.00  0.00    -0.327 N 
ATOM      5  C   LIG    1        5.217   5.308   2.882  0.00  0.00    +0.120 C 
ATOM      6  C   LIG    1        5.098   4.871   1.418  0.00  0.00    +0.103 C 
ENDROOT
BRANCH   4   7
ATOM      7  C   LIG    1        3.427   6.503   4.145  0.00  0.00    +0.030 A 
ATOM      8  C   LIG    1        2.113   6.583   4.589  0.00  0.00    +0.024 A 
ATOM      9  C   LIG    1        1.681   7.709   5.262  0.00  0.00    +0.022 A 
ATOM     10  C   LIG    1        2.555   8.757   5.493  0.00  0.00    +0.041 A 
ATOM     11 CL   LIG    1        2.008  10.171   6.338  0.00  0.00    -0.084 Cl
ATOM     12  C   LIG    1        3.864   8.679   5.051  0.00  0.00    +0.022 A 
ATOM     13  C   LIG    1        4.304   7.553   4.383  0.00  0.00    +0.024 A 
ENDBRANCH   4   7
BRANCH   1  14
ATOM     14  C   LIG    1        4.346   3.074  -0.020  0.00  0.00    +0.121 C 
BRANCH  14  18
ATOM     15  C   LIG    1       -0.027   1.346   0.064  0.00  0.00    +0.020 A 
ATOM     16  C   LIG    1        1.163   2.048   0.042  0.00  0.00    +0.013 A 
ATOM     17  C   LIG    1        2.355   1.319   0.017  0.00  0.00    +0.023 A 
ATOM     18  C   LIG    1        3.773   1.680  -0.010  0.00  0.00    -0.007 A 
ATOM     19  C   LIG    1        4.467   0.531  -0.026  0.00  0.00    +0.090 A 
ATOM     20  N   LIG    1        3.606  -0.534  -0.010  0.00  0.00    -0.346 N 
ATOM     21  H   LIG    1        3.874  -1.466  -0.017  0.00  0.00    +0.167 HD
ATOM     22  C   LIG    1        2.307  -0.088   0.016  0.00  0.00    +0.138 A 
ATOM     23  N   LIG    1        1.134  -0.708   0.039  0.00  0.00    -0.237 NA
ATOM     24  C   LIG    1        0.000  -0.040   0.061  0.00  0.00    +0.113 A 
ENDBRANCH  14  18
ENDBRANCH   1  14
TORSDOF 3
