REMARK  Name = ZINC18189761
REMARK                            x       y       z     vdW  Elec       q    Type
REMARK                         _______ _______ _______ _____ _____    ______ ____
ROOT
ATOM      1  C   LIG    1        2.079  -0.614   1.151  0.00  0.00    +0.439 C 
ATOM      2  N   LIG    1        2.950  -0.480   0.151  0.00  0.00    +0.014 NA
ENDROOT
BRANCH   1   3
ATOM      3  N   LIG    1        2.503  -0.990   2.357  0.00  0.00    -0.069 NA
ATOM      4  C   LIG    1        3.262  -0.159   3.090  0.00  0.00    +0.145 A 
ATOM      5  C   LIG    1        3.521   1.159   2.651  0.00  0.00    +0.063 A 
ATOM      6  C   LIG    1        4.289   1.971   3.412  0.00  0.00    +0.086 A 
ATOM      7  N   LIG    1        4.808   1.532   4.585  0.00  0.00    -0.367 N 
ATOM      8  H   LIG    1        5.357   2.132   5.114  0.00  0.00    +0.165 HD
ATOM      9  C   LIG    1        4.578   0.274   5.033  0.00  0.00    +0.086 A 
ATOM     10  C   LIG    1        3.813  -0.584   4.321  0.00  0.00    +0.063 A 
ENDBRANCH   1   3
BRANCH   1  11
ATOM     11  N   LIG    1        0.742  -0.365   0.939  0.00  0.00    -0.269 N 
ATOM     12  H   LIG    1        0.109  -0.463   1.667  0.00  0.00    +0.258 HD
BRANCH  11  14
ATOM     13  C   LIG    1        0.432   1.563  -0.534  0.00  0.00    +0.048 C 
ATOM     14  C   LIG    1        0.276   0.048  -0.388  0.00  0.00    +0.147 C 
BRANCH  14  15
ATOM     15  C   LIG    1       -1.197  -0.332  -0.551  0.00  0.00    -0.005 C 
ATOM     16  C   LIG    1       -2.028   0.373   0.523  0.00  0.00    +0.014 C 
ATOM     17  C   LIG    1       -1.353  -1.847  -0.405  0.00  0.00    +0.014 C 
ATOM     18  C   LIG    1       -1.684   0.100  -1.936  0.00  0.00    +0.014 C 
ENDBRANCH  14  15
ENDBRANCH  11  14
ENDBRANCH   1  11
BRANCH   2  19
ATOM     19  C   LIG    1        4.270  -0.695   0.368  0.00  0.00    +0.296 C 
ATOM     20  N   LIG    1        5.377  -0.876   0.550  0.00  0.00    -0.151 NA
ENDBRANCH   2  19
TORSDOF 5
