REMARK  Name = ZINC28238024
REMARK                            x       y       z     vdW  Elec       q    Type
REMARK                         _______ _______ _______ _____ _____    ______ ____
ROOT
ATOM      1  N   LIG    1        0.023   1.393   0.030  0.00  0.00    -0.327 N 
ATOM      2  C   LIG    1       -0.800   1.915  -1.070  0.00  0.00    +0.120 C 
ATOM      3  C   LIG    1       -0.859   3.441  -0.980  0.00  0.00    +0.103 C 
ATOM      4  N   LIG    1        0.504   3.987  -1.041  0.00  0.00    -0.294 NA
ATOM      5  C   LIG    1        1.327   3.465   0.059  0.00  0.00    +0.103 C 
ATOM      6  C   LIG    1        1.387   1.938  -0.032  0.00  0.00    +0.120 C 
ENDROOT
BRANCH   1  10
ATOM      7  C   LIG    1        0.080  -2.770   0.006  0.00  0.00    +0.000 A 
ATOM      8  C   LIG    1       -1.127  -2.097   0.066  0.00  0.00    +0.002 A 
ATOM      9  C   LIG    1       -1.149  -0.716   0.075  0.00  0.00    +0.023 A 
ATOM     10  C   LIG    1        0.042  -0.004   0.022  0.00  0.00    +0.030 A 
ATOM     11  C   LIG    1        1.252  -0.683  -0.044  0.00  0.00    +0.023 A 
ATOM     12  C   LIG    1        1.268  -2.064  -0.046  0.00  0.00    +0.002 A 
ENDBRANCH   1  10
BRANCH   4  13
ATOM     13  C   LIG    1        0.484   5.456  -1.033  0.00  0.00    +0.085 C 
ATOM     14  C   LIG    1       -0.438   5.959  -2.146  0.00  0.00    +0.021 C 
ATOM     15  C   LIG    1       -0.458   7.489  -2.138  0.00  0.00    +0.002 C 
ATOM     16  C   LIG    1        0.958   8.020  -2.369  0.00  0.00    +0.003 C 
ATOM     17  C   LIG    1        1.879   7.516  -1.256  0.00  0.00    +0.033 C 
ATOM     18  C   LIG    1        1.900   5.986  -1.264  0.00  0.00    +0.132 C 
BRANCH  18  19
ATOM     19  O   LIG    1        2.382   5.523  -2.528  0.00  0.00    -0.390 OA
ATOM     20  H   LIG    1        3.389   5.804  -2.869  0.00  0.00    +0.210 HD
ENDBRANCH  18  19
ENDBRANCH   4  13
TORSDOF 3
