REMARK  Name = ZINC00005152
REMARK                            x       y       z     vdW  Elec       q    Type
REMARK                         _______ _______ _______ _____ _____    ______ ____
ROOT
ATOM      1  C   LIG    1       -1.438  -2.061  -0.249  0.00  0.00    -0.018 C 
ENDROOT
BRANCH   1   2
ATOM      2  C   LIG    1       -1.455  -0.557   0.029  0.00  0.00    +0.005 C 
BRANCH   2   4
ATOM      3  C   LIG    1       -0.028   1.473   0.325  0.00  0.00    +0.007 C 
ATOM      4  C   LIG    1       -0.019  -0.050   0.180  0.00  0.00    -0.017 C 
ATOM      5  C   LIG    1        0.615  -0.677   1.423  0.00  0.00    +0.007 C 
ENDBRANCH   2   4
ENDBRANCH   1   2
BRANCH   1   6
ATOM      6  C   LIG    1       -0.786  -2.321  -1.609  0.00  0.00    -0.082 C 
BRANCH   6   7
ATOM      7  N   LIG    1       -1.491  -1.554  -2.645  0.00  0.00    +0.378 N 
ATOM      8  H   LIG    1       -1.022  -1.673  -3.530  0.00  0.00    -0.090 HD
ATOM      9  H   LIG    1       -1.495  -0.576  -2.395  0.00  0.00    -0.090 HD
ATOM     10  H   LIG    1       -2.441  -1.885  -2.721  0.00  0.00    -0.090 HD
ENDBRANCH   6   7
ENDBRANCH   1   6
BRANCH   1  11
ATOM     11  C   LIG    1       -2.873  -2.593  -0.262  0.00  0.00    +0.122 C 
BRANCH  11  12
ATOM     12  C   LIG    1       -2.851  -4.093  -0.414  0.00  0.00    +0.305 C 
ATOM     13  O   LIG    1       -1.787  -4.681  -0.504  0.00  0.00    -0.251 OA
BRANCH  12  14
ATOM     14  O   LIG    1       -3.897  -4.717  -0.447  0.00  0.00    -0.481 OA
ATOM     15  H   LIG    1       -4.715  -4.265  -0.377  0.00  0.00    +0.295 HD
ENDBRANCH  12  14
ENDBRANCH  11  12
ENDBRANCH   1  11
TORSDOF 7
