REMARK  Name = ZINC00028155
REMARK                            x       y       z     vdW  Elec       q    Type
REMARK                         _______ _______ _______ _____ _____    ______ ____
ROOT
ATOM      1  C   LIG    1        4.912   1.064  -0.039  0.00  0.00    +0.179 C 
ATOM      2  O   LIG    1        4.932  -0.155  -0.046  0.00  0.00    -0.288 OA
ENDROOT
BRANCH   1   4
ATOM      3  C   LIG    1        2.474   1.080  -0.016  0.00  0.00    +0.011 C 
ATOM      4  C   LIG    1        3.633   1.775  -0.023  0.00  0.00    +0.051 C 
BRANCH   3   8
ATOM      5  C   LIG    1       -1.233   3.139   0.030  0.00  0.00    +0.121 A 
ATOM      6  C   LIG    1       -1.213   1.749   0.017  0.00  0.00    +0.046 A 
ATOM      7  C   LIG    1       -0.013   1.076   0.008  0.00  0.00    +0.011 A 
ATOM      8  C   LIG    1        1.190   1.794   0.000  0.00  0.00    -0.025 A 
ATOM      9  C   LIG    1        1.163   3.193   0.008  0.00  0.00    +0.011 A 
ATOM     10  C   LIG    1       -0.043   3.857   0.022  0.00  0.00    +0.046 A 
BRANCH   5  11
ATOM     11  O   LIG    1       -2.420   3.798   0.044  0.00  0.00    -0.492 OA
BRANCH  11  13
ATOM     12  C   LIG    1       -4.834   3.912   0.067  0.00  0.00    +0.048 C 
ATOM     13  C   LIG    1       -3.605   3.000   0.051  0.00  0.00    +0.225 C 
ENDBRANCH  11  13
ENDBRANCH   5  11
ENDBRANCH   3   8
ENDBRANCH   1   4
BRANCH   1  14
ATOM     14  C   LIG    1        6.167   1.817  -0.047  0.00  0.00    +0.051 C 
ATOM     15  C   LIG    1        7.348   1.161  -0.062  0.00  0.00    +0.011 C 
BRANCH  15  16
ATOM     16  C   LIG    1        8.608   1.917  -0.070  0.00  0.00    -0.025 A 
ATOM     17  C   LIG    1        8.588   3.317  -0.068  0.00  0.00    +0.011 A 
ATOM     18  C   LIG    1        9.771   4.020  -0.071  0.00  0.00    +0.046 A 
ATOM     19  C   LIG    1       10.985   3.343  -0.086  0.00  0.00    +0.121 A 
ATOM     20  C   LIG    1       11.011   1.953  -0.093  0.00  0.00    +0.046 A 
ATOM     21  C   LIG    1        9.833   1.240  -0.085  0.00  0.00    +0.011 A 
BRANCH  19  22
ATOM     22  O   LIG    1       12.149   4.041  -0.094  0.00  0.00    -0.492 OA
BRANCH  22  23
ATOM     23  C   LIG    1       12.051   5.466  -0.086  0.00  0.00    +0.225 C 
ATOM     24  C   LIG    1       13.454   6.075  -0.097  0.00  0.00    +0.048 C 
ENDBRANCH  22  23
ENDBRANCH  19  22
ENDBRANCH  15  16
ENDBRANCH   1  14
TORSDOF 8
