REMARK  Name = ZINC40939534
REMARK                            x       y       z     vdW  Elec       q    Type
REMARK                         _______ _______ _______ _____ _____    ______ ____
ROOT
ATOM      1  C   LIG    1        0.274  -3.228   0.184  0.00  0.00    +0.057 C 
ATOM      2  N   LIG    1       -0.976  -3.388  -0.067  0.00  0.00    -0.379 N 
ATOM      3  H   LIG    1       -1.333  -3.038  -0.898  0.00  0.00    +0.160 HD
ATOM      4  C   LIG    1       -1.879  -4.075   0.850  0.00  0.00    +0.152 C 
ATOM      5  C   LIG    1       -2.005  -3.280   2.119  0.00  0.00    +0.016 A 
ATOM      6  C   LIG    1       -3.235  -2.746   2.470  0.00  0.00    +0.122 A 
ATOM      7  N   LIG    1       -3.336  -2.039   3.584  0.00  0.00    -0.222 NA
ATOM      8  C   LIG    1       -2.279  -1.838   4.358  0.00  0.00    +0.220 A 
ATOM      9  N   LIG    1       -1.091  -2.334   4.058  0.00  0.00    -0.214 NA
ATOM     10  C   LIG    1       -0.918  -3.064   2.950  0.00  0.00    +0.082 A 
ATOM     11  C   LIG    1        0.423  -3.622   2.672  0.00  0.00    +0.010 A 
ATOM     12  C   LIG    1        1.162  -4.090   3.766  0.00  0.00    +0.012 A 
ATOM     13  C   LIG    1        2.419  -4.643   3.578  0.00  0.00    +0.020 A 
ATOM     14  C   LIG    1        2.959  -4.726   2.304  0.00  0.00    +0.042 A 
ATOM     15 CL   LIG    1        4.536  -5.414   2.075  0.00  0.00    -0.084 Cl
ATOM     16  C   LIG    1        2.246  -4.263   1.219  0.00  0.00    +0.030 A 
ATOM     17  C   LIG    1        0.971  -3.706   1.389  0.00  0.00    +0.009 A 
ENDROOT
BRANCH   1  24
ATOM     18  C   LIG    1        1.224  -1.118  -0.750  0.00  0.00    +0.132 A 
ATOM     19  C   LIG    1        1.987  -0.454  -1.698  0.00  0.00    +0.046 A 
ATOM     20  C   LIG    1        2.598  -1.160  -2.716  0.00  0.00    +0.006 A 
ATOM     21  C   LIG    1        2.456  -2.534  -2.798  0.00  0.00    +0.039 A 
ATOM     22  C   LIG    1        1.700  -3.213  -1.862  0.00  0.00    +0.136 A 
ATOM     23  F   LIG    1        1.562  -4.554  -1.946  0.00  0.00    -0.205 F 
ATOM     24  C   LIG    1        1.080  -2.509  -0.825  0.00  0.00    +0.075 A 
BRANCH  18  26
ATOM     25  C   LIG    1        0.815   0.992   0.262  0.00  0.00    +0.277 C 
ATOM     26  O   LIG    1        0.624  -0.424   0.250  0.00  0.00    -0.494 OA
ENDBRANCH  18  26
ENDBRANCH   1  24
BRANCH   8  27
ATOM     27  N   LIG    1       -2.423  -1.086   5.514  0.00  0.00    -0.283 N 
ATOM     28  H   LIG    1       -1.644  -0.862   6.047  0.00  0.00    +0.155 HD
BRANCH  27  29
ATOM     29  C   LIG    1       -3.685  -0.652   5.909  0.00  0.00    +0.037 A 
ATOM     30  C   LIG    1       -4.802  -1.450   5.662  0.00  0.00    +0.024 A 
ATOM     31  C   LIG    1       -6.043  -1.035   6.045  0.00  0.00    +0.020 A 
ATOM     32  C   LIG    1       -6.204   0.198   6.690  0.00  0.00    +0.100 A 
ATOM     33  C   LIG    1       -5.081   1.005   6.941  0.00  0.00    +0.136 A 
ATOM     34  C   LIG    1       -3.826   0.571   6.553  0.00  0.00    +0.069 A 
BRANCH  32  35
ATOM     35  C   LIG    1       -7.540   0.646   7.102  0.00  0.00    +0.340 C 
ATOM     36  O   LIG    1       -8.517  -0.058   6.881  0.00  0.00    -0.245 OA
BRANCH  35  37
ATOM     37  O   LIG    1       -7.678   1.724   7.665  0.00  0.00    -0.477 OA
ATOM     38  H   LIG    1       -6.930   2.263   7.834  0.00  0.00    +0.295 HD
ENDBRANCH  35  37
ENDBRANCH  32  35
BRANCH  33  39
ATOM     39  O   LIG    1       -5.226   2.201   7.565  0.00  0.00    -0.494 OA
ATOM     40  C   LIG    1       -4.039   2.965   7.785  0.00  0.00    +0.277 C 
ENDBRANCH  33  39
ENDBRANCH  27  29
ENDBRANCH   8  27
TORSDOF 7
