REMARK  Name = ZINC14125194
REMARK                            x       y       z     vdW  Elec       q    Type
REMARK                         _______ _______ _______ _____ _____    ______ ____
ROOT
ATOM      1  N   LIG    1       -2.237   5.714  -0.716  0.00  0.00    -0.243 N 
ATOM      2  C   LIG    1       -3.038   6.787  -0.850  0.00  0.00    +0.274 A 
ATOM      3  C   LIG    1       -2.503   8.141  -0.629  0.00  0.00    +0.050 A 
ATOM      4  C   LIG    1       -3.305   9.271  -0.758  0.00  0.00    +0.014 A 
ATOM      5  C   LIG    1       -2.762  10.522  -0.542  0.00  0.00    +0.001 A 
ATOM      6  C   LIG    1       -1.426  10.663  -0.197  0.00  0.00    +0.001 A 
ATOM      7  C   LIG    1       -0.614   9.556  -0.064  0.00  0.00    +0.011 A 
ATOM      8  C   LIG    1       -1.141   8.285  -0.278  0.00  0.00    +0.018 A 
ATOM      9  C   LIG    1       -0.320   7.076  -0.148  0.00  0.00    +0.135 A 
ATOM     10  C   LIG    1        1.001   6.855   0.171  0.00  0.00    +0.241 A 
ATOM     11  N   LIG    1        1.212   5.536   0.146  0.00  0.00    -0.191 NA
ATOM     12  C   LIG    1        0.097   4.914  -0.179  0.00  0.00    +0.164 A 
ATOM     13  O   LIG    1       -4.207   6.639  -1.152  0.00  0.00    -0.266 OA
ATOM     14  N   LIG    1       -0.889   5.836  -0.369  0.00  0.00    -0.225 N 
ENDROOT
BRANCH  12  15
ATOM     15  C   LIG    1       -0.061   3.450  -0.311  0.00  0.00    +0.023 A 
ATOM     16  C   LIG    1       -0.962   2.766   0.507  0.00  0.00    +0.012 A 
ATOM     17  C   LIG    1       -1.112   1.401   0.377  0.00  0.00    +0.004 A 
ATOM     18  C   LIG    1       -0.363   0.705  -0.554  0.00  0.00    +0.046 A 
ATOM     19  C   LIG    1        0.537   1.376  -1.371  0.00  0.00    +0.122 A 
ATOM     20  C   LIG    1        0.690   2.747  -1.253  0.00  0.00    +0.057 A 
BRANCH  19  21
ATOM     21  O   LIG    1        1.266   0.687  -2.288  0.00  0.00    -0.488 OA
BRANCH  21  22
ATOM     22  C   LIG    1        1.057  -0.725  -2.356  0.00  0.00    +0.256 C 
BRANCH  22  23
ATOM     23  C   LIG    1        1.946  -1.314  -3.421  0.00  0.00    +0.006 C 
ATOM     24  C   LIG    1        2.618  -2.412  -3.179  0.00  0.00    +0.007 C 
ENDBRANCH  22  23
ENDBRANCH  21  22
ENDBRANCH  19  21
ENDBRANCH  12  15
BRANCH   1  26
ATOM     25  C   LIG    1       -3.518   3.908   0.322  0.00  0.00    +0.029 C 
ATOM     26  C   LIG    1       -2.795   4.378  -0.941  0.00  0.00    +0.142 C 
ENDBRANCH   1  26
BRANCH  10  27
ATOM     27  O   LIG    1        1.925   7.808   0.464  0.00  0.00    -0.491 OA
ATOM     28  H   LIG    1        1.976   8.030   1.404  0.00  0.00    +0.294 HD
ENDBRANCH  10  27
TORSDOF 6
