REMARK  Name = ZINC14952228
REMARK                            x       y       z     vdW  Elec       q    Type
REMARK                         _______ _______ _______ _____ _____    ______ ____
ROOT
ATOM      1  C   LIG    1       -0.019   1.526   0.010  0.00  0.00    +0.012 C 
ATOM      2  C   LIG    1        0.002  -0.004   0.002  0.00  0.00    +0.019 C 
ENDROOT
BRANCH   2   3
ATOM      3  C   LIG    1        0.731  -0.503   1.223  0.00  0.00    +0.034 A 
ATOM      4  C   LIG    1        2.064  -0.655   1.342  0.00  0.00    +0.105 A 
ATOM      5  N   LIG    1        2.297  -1.128   2.605  0.00  0.00    -0.352 N 
ATOM      6  C   LIG    1        1.098  -1.249   3.214  0.00  0.00    +0.171 A 
ATOM      7  H   LIG    1        3.162  -1.337   2.991  0.00  0.00    +0.166 HD
ATOM      8  N   LIG    1        0.166  -0.869   2.383  0.00  0.00    -0.350 N 
ATOM      9  H   LIG    1       -0.785  -0.855   2.574  0.00  0.00    +0.166 HD
ENDBRANCH   2   3
BRANCH   2  10
ATOM     10  C   LIG    1        0.718  -0.497  -1.257  0.00  0.00    -0.070 C 
ATOM     11  C   LIG    1        0.739  -2.027  -1.265  0.00  0.00    -0.014 C 
BRANCH  10  12
ATOM     12  N   LIG    1        0.008  -0.011  -2.447  0.00  0.00    +0.380 N 
ATOM     13  H   LIG    1       -0.939  -0.360  -2.440  0.00  0.00    -0.090 HD
ATOM     14  H   LIG    1        0.480  -0.336  -3.277  0.00  0.00    -0.090 HD
ATOM     15  H   LIG    1       -0.006   0.998  -2.441  0.00  0.00    -0.090 HD
ENDBRANCH  10  12
ENDBRANCH   2  10
TORSDOF 3
