REMARK  Name = ZINC19632700
REMARK                            x       y       z     vdW  Elec       q    Type
REMARK                         _______ _______ _______ _____ _____    ______ ____
ROOT
ATOM      1  C   LIG    1        4.108  -3.119  -0.047  0.00  0.00    +0.119 C 
ENDROOT
BRANCH   1   5
ATOM      2  N   LIG    1       -0.075  -2.780  -0.013  0.00  0.00    -0.325 N 
ATOM      3  C   LIG    1        0.571  -3.196   1.241  0.00  0.00    +0.120 C 
ATOM      4  C   LIG    1        2.048  -2.792   1.184  0.00  0.00    +0.103 C 
ATOM      5  N   LIG    1        2.655  -3.336  -0.038  0.00  0.00    -0.297 NA
ATOM      6  C   LIG    1        2.030  -2.769  -1.241  0.00  0.00    +0.103 C 
ATOM      7  C   LIG    1        0.549  -3.177  -1.283  0.00  0.00    +0.120 C 
BRANCH   2  13
ATOM      8  C   LIG    1       -1.201  -0.638   0.010  0.00  0.00    +0.141 A 
ATOM      9  C   LIG    1       -2.374   0.099   0.019  0.00  0.00    +0.047 A 
ATOM     10  C   LIG    1       -3.597  -0.547   0.028  0.00  0.00    +0.004 A 
ATOM     11  C   LIG    1       -3.653  -1.928   0.027  0.00  0.00    +0.002 A 
ATOM     12  C   LIG    1       -2.487  -2.671   0.017  0.00  0.00    +0.027 A 
ATOM     13  C   LIG    1       -1.257  -2.030   0.003  0.00  0.00    +0.072 A 
BRANCH   8  15
ATOM     14  C   LIG    1       -0.017   1.425   0.010  0.00  0.00    +0.277 C 
ATOM     15  O   LIG    1        0.002  -0.004   0.002  0.00  0.00    -0.493 OA
ENDBRANCH   8  15
ENDBRANCH   2  13
ENDBRANCH   1   5
BRANCH   1  16
ATOM     16  C   LIG    1        4.735  -3.908  -1.198  0.00  0.00    +0.166 C 
BRANCH  16  17
ATOM     17  O   LIG    1        4.463  -5.300  -1.025  0.00  0.00    -0.387 OA
ATOM     18  H   LIG    1        4.811  -5.670  -0.203  0.00  0.00    +0.210 HD
ENDBRANCH  16  17
BRANCH  16  19
ATOM     19  C   LIG    1        6.248  -3.681  -1.207  0.00  0.00    +0.261 C 
BRANCH  19  20
ATOM     20  O   LIG    1        6.819  -4.322  -2.349  0.00  0.00    -0.489 OA
BRANCH  20  21
ATOM     21  C   LIG    1        8.163  -4.217  -2.508  0.00  0.00    +0.128 A 
ATOM     22  C   LIG    1        8.912  -3.527  -1.596  0.00  0.00    +0.046 A 
ATOM     23  C   LIG    1       10.291  -3.410  -1.744  0.00  0.00    +0.004 A 
ATOM     24  C   LIG    1       10.935  -3.979  -2.800  0.00  0.00    +0.009 A 
ATOM     25  C   LIG    1       10.201  -4.697  -3.760  0.00  0.00    -0.014 A 
ATOM     26  C   LIG    1       10.834  -5.297  -4.862  0.00  0.00    +0.008 A 
ATOM     27  C   LIG    1       10.093  -5.998  -5.764  0.00  0.00    +0.001 A 
ATOM     28  C   LIG    1        8.712  -6.117  -5.620  0.00  0.00    +0.001 A 
ATOM     29  C   LIG    1        8.065  -5.545  -4.567  0.00  0.00    +0.012 A 
ATOM     30  C   LIG    1        8.798  -4.824  -3.611  0.00  0.00    +0.024 A 
ENDBRANCH  20  21
ENDBRANCH  19  20
ENDBRANCH  16  19
ENDBRANCH   1  16
TORSDOF 8
