REMARK  Name = ZINC19862646
REMARK                            x       y       z     vdW  Elec       q    Type
REMARK                         _______ _______ _______ _____ _____    ______ ____
ROOT
ATOM      1  C   LIG    1        1.532  -2.227  -1.117  0.00  0.00    +0.049 C 
ATOM      2  C   LIG    1        1.458  -3.485  -0.291  0.00  0.00    +0.008 A 
ATOM      3  C   LIG    1        1.443  -4.727  -0.896  0.00  0.00    +0.121 A 
ATOM      4  N   LIG    1        1.377  -5.815  -0.142  0.00  0.00    -0.222 NA
ATOM      5  C   LIG    1        1.327  -5.725   1.179  0.00  0.00    +0.221 A 
ATOM      6  N   LIG    1        1.339  -4.554   1.797  0.00  0.00    -0.199 NA
ATOM      7  C   LIG    1        1.409  -3.422   1.103  0.00  0.00    +0.131 A 
ENDROOT
BRANCH   5   8
ATOM      8  N   LIG    1        1.259  -6.885   1.933  0.00  0.00    -0.284 N 
ATOM      9  H   LIG    1        1.180  -6.833   2.898  0.00  0.00    +0.155 HD
BRANCH   8  10
ATOM     10  C   LIG    1        1.304  -8.134   1.300  0.00  0.00    +0.034 A 
ATOM     11  C   LIG    1        2.094  -8.314   0.173  0.00  0.00    +0.027 A 
ATOM     12  C   LIG    1        2.138  -9.546  -0.450  0.00  0.00    +0.047 A 
ATOM     13  C   LIG    1        1.392 -10.603   0.050  0.00  0.00    +0.121 A 
ATOM     14  C   LIG    1        0.602 -10.424   1.176  0.00  0.00    +0.047 A 
ATOM     15  C   LIG    1        0.562  -9.195   1.804  0.00  0.00    +0.027 A 
BRANCH  13  16
ATOM     16  O   LIG    1        1.436 -11.816  -0.564  0.00  0.00    -0.494 OA
BRANCH  16  17
ATOM     17  C   LIG    1        0.643 -12.860   0.005  0.00  0.00    +0.210 C 
BRANCH  17  18
ATOM     18  C   LIG    1        0.820 -14.139  -0.815  0.00  0.00    -0.037 C 
BRANCH  18  19
ATOM     19  N   LIG    1        2.209 -14.603  -0.706  0.00  0.00    +0.382 N 
ATOM     20  H   LIG    1        2.845 -13.858  -0.950  0.00  0.00    -0.082 HD
ATOM     21  C   LIG    1        2.483 -15.081   0.674  0.00  0.00    -0.079 C 
ATOM     22  C   LIG    1        3.705 -16.015   0.489  0.00  0.00    -0.020 C 
ATOM     23  C   LIG    1        3.411 -16.707  -0.861  0.00  0.00    -0.020 C 
ATOM     24  C   LIG    1        2.428 -15.770  -1.588  0.00  0.00    -0.079 C 
ENDBRANCH  18  19
ENDBRANCH  17  18
ENDBRANCH  16  17
ENDBRANCH  13  16
ENDBRANCH   8  10
ENDBRANCH   5   8
BRANCH   7  25
ATOM     25  N   LIG    1        1.427  -2.198   1.753  0.00  0.00    -0.299 N 
ATOM     26  H   LIG    1        1.566  -1.382   1.247  0.00  0.00    +0.154 HD
BRANCH  25  27
ATOM     27  C   LIG    1        1.246  -2.139   3.138  0.00  0.00    +0.034 A 
ATOM     28  C   LIG    1        0.364  -3.012   3.762  0.00  0.00    +0.023 A 
ATOM     29  C   LIG    1        0.188  -2.951   5.131  0.00  0.00    +0.004 A 
ATOM     30  C   LIG    1        0.889  -2.023   5.879  0.00  0.00    +0.028 A 
ATOM     31  C   LIG    1        1.767  -1.152   5.261  0.00  0.00    +0.107 A 
ATOM     32  C   LIG    1        1.952  -1.212   3.893  0.00  0.00    +0.051 A 
BRANCH  31  33
ATOM     33  S   LIG    1        2.656   0.029   6.219  0.00  0.00    +0.059 S 
ATOM     34  O   LIG    1        2.132  -0.040   7.538  0.00  0.00    -0.153 OA
ATOM     35  O   LIG    1        2.670   1.234   5.467  0.00  0.00    -0.153 OA
BRANCH  33  36
ATOM     36  N   LIG    1        4.226  -0.493   6.305  0.00  0.00    -0.185 NA
ATOM     37  H   LIG    1        4.938   0.049   5.931  0.00  0.00    +0.149 HD
BRANCH  36  38
ATOM     38  C   LIG    1        4.538  -1.771   6.948  0.00  0.00    +0.032 C 
ATOM     39  C   LIG    1        4.091  -1.730   8.411  0.00  0.00    +0.029 C 
ATOM     40  C   LIG    1        6.047  -2.020   6.883  0.00  0.00    +0.029 C 
ATOM     41  C   LIG    1        3.804  -2.900   6.222  0.00  0.00    +0.029 C 
ENDBRANCH  36  38
ENDBRANCH  33  36
ENDBRANCH  31  33
ENDBRANCH  25  27
ENDBRANCH   7  25
TORSDOF 11
