REMARK  Name = ZINC22309336
REMARK                            x       y       z     vdW  Elec       q    Type
REMARK                         _______ _______ _______ _____ _____    ______ ____
ROOT
ATOM      1  C   LIG    1        0.233   3.403  -2.956  0.00  0.00    +0.039 C 
ATOM      2  C   LIG    1        0.245   1.934  -3.291  0.00  0.00    -0.066 C 
ATOM      3  C   LIG    1       -0.007   1.048  -2.360  0.00  0.00    -0.033 C 
ENDROOT
BRANCH   2   4
ATOM      4  C   LIG    1        0.548   1.484  -4.697  0.00  0.00    +0.157 C 
BRANCH   4   5
ATOM      5  P   LIG    1       -0.982   1.519  -5.688  0.00  0.00    +0.332 P 
ATOM      6  O   LIG    1       -1.585   2.869  -5.617  0.00  0.00    -0.259 OA
BRANCH   5   7
ATOM      7  O   LIG    1       -2.022   0.435  -5.109  0.00  0.00    -0.324 OA
ATOM      8  H   LIG    1       -3.007   0.311  -5.582  0.00  0.00    +0.220 HD
ENDBRANCH   5   7
BRANCH   5   9
ATOM      9  O   LIG    1       -0.636   1.166  -7.221  0.00  0.00    -0.324 OA
ATOM     10  H   LIG    1       -0.010   1.819  -7.570  0.00  0.00    +0.220 HD
ENDBRANCH   5   9
ENDBRANCH   4   5
ENDBRANCH   2   4
BRANCH   3  11
ATOM     11  CA  LIG    1       -0.173   1.486  -0.927  0.00  0.00    +0.059 C 
BRANCH  11  12
ATOM     12  N   LIG    1        0.803   0.782  -0.084  0.00  0.00    +0.389 N 
ATOM     13  H1  LIG    1        0.635  -0.303  -0.158  0.00  0.00    -0.088 HD
ATOM     14  H2  LIG    1        1.821   1.020  -0.425  0.00  0.00    -0.088 HD
ATOM     15  H3  LIG    1        0.682   1.101   0.961  0.00  0.00    -0.088 HD
ENDBRANCH  11  12
BRANCH  11  16
ATOM     16  C   LIG    1       -1.568   1.160  -0.460  0.00  0.00    +0.294 C 
ATOM     17  O   LIG    1       -1.766   0.175   0.210  0.00  0.00    -0.253 OA
BRANCH  16  18
ATOM     18  OXT LIG    1       -2.591   1.965  -0.789  0.00  0.00    -0.482 OA
ATOM     19  HXT LIG    1       -2.437   2.729  -1.309  0.00  0.00    +0.295 HD
ENDBRANCH  16  18
ENDBRANCH  11  16
ENDBRANCH   3  11
TORSDOF 8
