REMARK  Name = ZINC00057915
REMARK                            x       y       z     vdW  Elec       q    Type
REMARK                         _______ _______ _______ _____ _____    ______ ____
ROOT
ATOM      1  C   LIG    1        1.123   3.327   0.009  0.00  0.00    +0.139 A 
ATOM      2  C   LIG    1        1.183   1.967   0.001  0.00  0.00    +0.098 A 
ATOM      3  C   LIG    1       -0.015   1.216   0.009  0.00  0.00    +0.193 A 
ATOM      4  C   LIG    1       -1.285   1.965   0.019  0.00  0.00    +0.068 A 
ATOM      5  C   LIG    1       -2.515   1.306   0.035  0.00  0.00    +0.019 A 
ATOM      6  C   LIG    1       -3.674   2.030   0.051  0.00  0.00    +0.050 A 
ATOM      7  C   LIG    1       -3.636   3.421   0.058  0.00  0.00    +0.162 A 
ATOM      8  C   LIG    1       -2.421   4.093   0.049  0.00  0.00    +0.202 A 
ATOM      9  C   LIG    1       -1.234   3.369   0.033  0.00  0.00    +0.184 A 
ATOM     10  O   LIG    1        0.002  -0.004   0.002  0.00  0.00    -0.287 OA
ATOM     11  O   LIG    1       -0.039   3.997   0.024  0.00  0.00    -0.451 OA
ENDROOT
BRANCH   1  17
ATOM     12  C   LIG    1        3.611   3.423  -0.008  0.00  0.00    +0.015 A 
ATOM     13  C   LIG    1        4.786   4.141  -0.021  0.00  0.00    +0.046 A 
ATOM     14  C   LIG    1        4.752   5.531  -0.014  0.00  0.00    +0.117 A 
ATOM     15  C   LIG    1        3.535   6.201   0.002  0.00  0.00    +0.046 A 
ATOM     16  C   LIG    1        2.355   5.490   0.009  0.00  0.00    +0.015 A 
ATOM     17  C   LIG    1        2.384   4.092   0.001  0.00  0.00    +0.018 A 
BRANCH  14  18
ATOM     18  O   LIG    1        5.913   6.236  -0.021  0.00  0.00    -0.507 OA
ATOM     19  H   LIG    1        6.257   6.435   0.861  0.00  0.00    +0.292 HD
ENDBRANCH  14  18
ENDBRANCH   1  17
BRANCH   7  20
ATOM     20  O   LIG    1       -4.797   4.127   0.074  0.00  0.00    -0.503 OA
ATOM     21  H   LIG    1       -5.143   4.336  -0.804  0.00  0.00    +0.292 HD
ENDBRANCH   7  20
BRANCH   8  22
ATOM     22  O   LIG    1       -2.393   5.454   0.057  0.00  0.00    -0.501 OA
ATOM     23  H   LIG    1       -2.393   5.852  -0.824  0.00  0.00    +0.292 HD
ENDBRANCH   8  22
TORSDOF 4
