REMARK  Name = ZINC19874821
REMARK                            x       y       z     vdW  Elec       q    Type
REMARK                         _______ _______ _______ _____ _____    ______ ____
ROOT
ATOM      1  C   LIG    1       -0.058  -1.976   3.531  0.00  0.00    +0.386 C 
ATOM      2  N   LIG    1       -0.186  -0.680   3.505  0.00  0.00    -0.129 NA
ATOM      3  H   LIG    1       -0.269  -0.217   2.657  0.00  0.00    +0.306 HD
ENDROOT
BRANCH   1   4
ATOM      4  N   LIG    1        0.063  -2.680   2.352  0.00  0.00    -0.211 N 
ATOM      5  H   LIG    1        0.132  -2.205   1.509  0.00  0.00    +0.268 HD
BRANCH   4  12
ATOM      6  C   LIG    1        0.158  -6.727   4.920  0.00  0.00    +0.066 C 
ATOM      7  C   LIG    1        0.132  -6.018   3.590  0.00  0.00    +0.045 A 
ATOM      8  C   LIG    1        0.132  -6.743   2.409  0.00  0.00    +0.046 A 
ATOM      9  C   LIG    1        0.107  -6.052   1.208  0.00  0.00    +0.045 A 
ATOM     10  C   LIG    1        0.107  -6.798  -0.102  0.00  0.00    +0.066 C 
ATOM     11  N   LIG    1        0.085  -4.729   1.225  0.00  0.00    -0.203 NA
ATOM     12  C   LIG    1        0.086  -4.067   2.371  0.00  0.00    +0.292 A 
ATOM     13  N   LIG    1        0.104  -4.697   3.536  0.00  0.00    -0.203 NA
ENDBRANCH   4  12
ENDBRANCH   1   4
BRANCH   1  14
ATOM     14  N   LIG    1       -0.044  -2.642   4.734  0.00  0.00    -0.275 N 
ATOM     15  H   LIG    1       -0.030  -3.611   4.751  0.00  0.00    +0.258 HD
BRANCH  14  16
ATOM     16  C   LIG    1       -0.048  -1.887   5.989  0.00  0.00    +0.202 C 
BRANCH  16  17
ATOM     17  C   LIG    1       -0.030  -2.860   7.169  0.00  0.00    +0.091 C 
BRANCH  17  18
ATOM     18  C   LIG    1       -0.035  -2.083   8.461  0.00  0.00    +0.036 A 
ATOM     19  C   LIG    1        1.038  -1.569   9.092  0.00  0.00    +0.105 A 
ATOM     20  N   LIG    1        0.609  -0.954  10.204  0.00  0.00    -0.352 N 
ATOM     21  H   LIG    1        1.175  -0.497  10.847  0.00  0.00    +0.166 HD
ATOM     22  C   LIG    1       -0.688  -1.066  10.286  0.00  0.00    +0.171 A 
ATOM     23  N   LIG    1       -1.131  -1.759   9.214  0.00  0.00    -0.350 N 
ATOM     24  H   LIG    1       -2.052  -1.987   9.017  0.00  0.00    +0.166 HD
ENDBRANCH  17  18
ENDBRANCH  16  17
ENDBRANCH  14  16
ENDBRANCH   1  14
TORSDOF 6
