REMARK  Name = ZINC22916765
REMARK                            x       y       z     vdW  Elec       q    Type
REMARK                         _______ _______ _______ _____ _____    ______ ____
ROOT
ATOM      1  N   LIG    1        1.023  -6.817  -0.817  0.00  0.00    -0.206 N 
ATOM      2  H   LIG    1        1.002  -7.425  -1.573  0.00  0.00    +0.177 HD
ATOM      3  C   LIG    1        1.618  -7.192   0.332  0.00  0.00    +0.246 C 
ATOM      4  O   LIG    1        1.643  -6.433   1.278  0.00  0.00    -0.273 OA
ENDROOT
BRANCH   1   6
ATOM      5  C   LIG    1       -0.140  -5.190  -2.028  0.00  0.00    +0.142 C 
ATOM      6  N   LIG    1        0.433  -5.551  -0.920  0.00  0.00    -0.188 NA
BRANCH   5  11
ATOM      7  C   LIG    1       -1.318  -1.726  -1.159  0.00  0.00    -0.002 A 
ATOM      8  C   LIG    1       -1.926  -1.349  -2.342  0.00  0.00    +0.007 A 
ATOM      9  C   LIG    1       -1.956  -2.216  -3.421  0.00  0.00    +0.001 A 
ATOM     10  C   LIG    1       -1.377  -3.465  -3.326  0.00  0.00    +0.013 A 
ATOM     11  C   LIG    1       -0.759  -3.857  -2.136  0.00  0.00    +0.036 A 
ATOM     12  C   LIG    1       -0.728  -2.974  -1.048  0.00  0.00    +0.129 A 
BRANCH  12  13
ATOM     13  O   LIG    1       -0.125  -3.343   0.112  0.00  0.00    -0.506 OA
ATOM     14  H   LIG    1       -0.714  -3.785   0.738  0.00  0.00    +0.292 HD
ENDBRANCH  12  13
BRANCH   7  15
ATOM     15  C   LIG    1       -1.293  -0.775   0.010  0.00  0.00    +0.065 C 
BRANCH  15  17
ATOM     16  C   LIG    1       -0.016   1.306   0.009  0.00  0.00    +0.004 C 
ATOM     17  C   LIG    1        0.002  -0.004   0.002  0.00  0.00    -0.030 C 
ENDBRANCH  15  17
ENDBRANCH   7  15
ENDBRANCH   5  11
ENDBRANCH   1   6
BRANCH   3  18
ATOM     18  C   LIG    1        2.252  -8.555   0.443  0.00  0.00    +0.182 C 
BRANCH  18  19
ATOM     19  N   LIG    1        2.828  -8.719   1.785  0.00  0.00    -0.298 NA
ATOM     20  C   LIG    1        3.954  -7.798   1.991  0.00  0.00    +0.066 C 
ATOM     21  C   LIG    1        4.486  -7.958   3.417  0.00  0.00    -0.063 C 
ATOM     22  N   LIG    1        4.922  -9.346   3.624  0.00  0.00    +0.384 N 
ATOM     23  H   LIG    1        5.644  -9.574   2.957  0.00  0.00    -0.081 HD
ATOM     24  C   LIG    1        3.781 -10.252   3.438  0.00  0.00    -0.063 C 
ATOM     25  C   LIG    1        3.243 -10.111   2.013  0.00  0.00    +0.066 C 
BRANCH  22  26
ATOM     26  C   LIG    1        5.449  -9.495   4.987  0.00  0.00    -0.043 C 
BRANCH  26  27
ATOM     27  C   LIG    1        6.009 -10.883   5.159  0.00  0.00    -0.064 A 
ATOM     28  C   LIG    1        5.193 -11.907   5.605  0.00  0.00    +0.002 A 
ATOM     29  C   LIG    1        5.707 -13.180   5.764  0.00  0.00    +0.000 A 
ATOM     30  C   LIG    1        7.035 -13.431   5.476  0.00  0.00    +0.000 A 
ATOM     31  C   LIG    1        7.850 -12.408   5.029  0.00  0.00    +0.000 A 
ATOM     32  C   LIG    1        7.336 -11.135   4.867  0.00  0.00    +0.002 A 
ENDBRANCH  26  27
ENDBRANCH  22  26
ENDBRANCH  18  19
ENDBRANCH   3  18
TORSDOF 9
