REMARK  Name = ZINC00001681
REMARK                            x       y       z     vdW  Elec       q    Type
REMARK                         _______ _______ _______ _____ _____    ______ ____
ROOT
ATOM      1  C   LIG    1       -1.329   1.940   0.019  0.00  0.00    +0.089 C 
ATOM      2  C   LIG    1       -1.419   2.810   1.276  0.00  0.00    +0.004 C 
ATOM      3  C   LIG    1       -1.379   1.911   2.515  0.00  0.00    -0.078 C 
ATOM      4  N   LIG    1       -2.526   0.979   2.470  0.00  0.00    +0.378 N 
ATOM      5  H   LIG    1       -3.394   1.522   2.389  0.00  0.00    -0.082 HD
ATOM      6  C   LIG    1       -2.575   0.178   3.711  0.00  0.00    -0.096 C 
ATOM      7  C   LIG    1       -2.409   0.087   1.297  0.00  0.00    -0.078 C 
ATOM      8  C   LIG    1       -2.481   0.930   0.022  0.00  0.00    +0.004 C 
ENDROOT
BRANCH   1   9
ATOM      9  C   LIG    1       -1.428   2.812  -1.206  0.00  0.00    -0.031 A 
ATOM     10  C   LIG    1       -2.451   2.615  -2.114  0.00  0.00    +0.005 A 
ATOM     11  C   LIG    1       -2.545   3.418  -3.236  0.00  0.00    +0.000 A 
ATOM     12  C   LIG    1       -1.609   4.412  -3.454  0.00  0.00    +0.000 A 
ATOM     13  C   LIG    1       -0.582   4.606  -2.548  0.00  0.00    +0.000 A 
ATOM     14  C   LIG    1       -0.492   3.806  -1.424  0.00  0.00    +0.005 A 
ENDBRANCH   1   9
BRANCH   1  15
ATOM     15  C   LIG    1       -0.014   1.204   0.009  0.00  0.00    +0.318 C 
ATOM     16  O   LIG    1        0.002  -0.004   0.002  0.00  0.00    -0.250 OA
BRANCH  15  17
ATOM     17  O   LIG    1        1.139   1.891   0.001  0.00  0.00    -0.464 OA
BRANCH  17  19
ATOM     18  C   LIG    1        3.568   2.065  -0.021  0.00  0.00    +0.048 C 
ATOM     19  C   LIG    1        2.367   1.117  -0.015  0.00  0.00    +0.229 C 
ENDBRANCH  17  19
ENDBRANCH  15  17
ENDBRANCH   1  15
TORSDOF 4
