REMARK  Name = ZINC14972810
REMARK                            x       y       z     vdW  Elec       q    Type
REMARK                         _______ _______ _______ _____ _____    ______ ____
ROOT
ATOM      1  C   LIG    1        3.710  -0.724  -0.037  0.00  0.00    +0.198 C 
ATOM      2  N   LIG    1        3.530  -2.128  -0.468  0.00  0.00    -0.170 N 
ATOM      3  C   LIG    1        2.778  -3.005   0.227  0.00  0.00    +0.273 C 
ATOM      4  O   LIG    1        2.293  -2.679   1.295  0.00  0.00    -0.268 OA
ATOM      5  N   LIG    1        4.184  -2.476  -1.628  0.00  0.00    -0.168 NA
ATOM      6  C   LIG    1        4.913  -1.642  -2.312  0.00  0.00    +0.124 C 
ATOM      7  S   LIG    1        4.805  -0.118  -1.387  0.00  0.00    -0.074 S 
ENDROOT
BRANCH   3   8
ATOM      8  C   LIG    1        2.543  -4.359  -0.306  0.00  0.00    +0.109 A 
ATOM      9  C   LIG    1        3.425  -5.401   0.006  0.00  0.00    +0.141 A 
ATOM     10  F   LIG    1        4.495  -5.168   0.797  0.00  0.00    -0.205 F 
ATOM     11  C   LIG    1        3.196  -6.668  -0.493  0.00  0.00    +0.077 A 
ATOM     12  C   LIG    1        2.102  -6.907  -1.310  0.00  0.00    +0.129 A 
ATOM     13  F   LIG    1        1.887  -8.148  -1.799  0.00  0.00    -0.205 F 
ATOM     14  C   LIG    1        1.227  -5.880  -1.627  0.00  0.00    +0.077 A 
ATOM     15  C   LIG    1        1.441  -4.609  -1.131  0.00  0.00    +0.141 A 
ATOM     16  F   LIG    1        0.587  -3.608  -1.442  0.00  0.00    -0.205 F 
ENDBRANCH   3   8
BRANCH   6  17
ATOM     17  C   LIG    1        5.658  -1.897  -3.563  0.00  0.00    +0.008 A 
ATOM     18  C   LIG    1        6.389  -0.871  -4.165  0.00  0.00    +0.012 A 
ATOM     19  C   LIG    1        7.086  -1.116  -5.329  0.00  0.00    +0.020 A 
ATOM     20  C   LIG    1        7.053  -2.374  -5.908  0.00  0.00    +0.041 A 
ATOM     21 CL   LIG    1        7.928  -2.673  -7.377  0.00  0.00    -0.084 Cl
ATOM     22  C   LIG    1        6.325  -3.394  -5.319  0.00  0.00    +0.020 A 
ATOM     23  C   LIG    1        5.628  -3.162  -4.151  0.00  0.00    +0.012 A 
ENDBRANCH   6  17
BRANCH   1  28
ATOM     24  C   LIG    1        0.943   1.661   0.957  0.00  0.00    +0.162 A 
ATOM     25  C   LIG    1       -0.018   1.375   0.001  0.00  0.00    +0.049 A 
ATOM     26  C   LIG    1        0.229   0.414  -0.962  0.00  0.00    +0.004 A 
ATOM     27  C   LIG    1        1.434  -0.263  -0.973  0.00  0.00    +0.010 A 
ATOM     28  C   LIG    1        2.397   0.018  -0.022  0.00  0.00    +0.030 A 
ATOM     29  C   LIG    1        2.156   0.980   0.945  0.00  0.00    +0.167 A 
BRANCH  24  31
ATOM     30  C   LIG    1       -0.566   3.265   1.855  0.00  0.00    +0.277 C 
ATOM     31  O   LIG    1        0.702   2.606   1.905  0.00  0.00    -0.491 OA
ENDBRANCH  24  31
BRANCH  29  32
ATOM     32  O   LIG    1        3.103   1.257   1.882  0.00  0.00    -0.491 OA
ATOM     33  C   LIG    1        3.980   2.353   1.614  0.00  0.00    +0.277 C 
ENDBRANCH  29  32
ENDBRANCH   1  28
TORSDOF 5
