REMARK  Name = ZINC20358060
REMARK                            x       y       z     vdW  Elec       q    Type
REMARK                         _______ _______ _______ _____ _____    ______ ____
ROOT
ATOM      1  N   LIG    1       -4.365  -0.837   0.013  0.00  0.00    +0.382 N 
ATOM      2  H   LIG    1       -3.593  -1.619   0.003  0.00  0.00    -0.081 HD
ATOM      3  C   LIG    1       -4.189  -0.018  -1.193  0.00  0.00    -0.076 C 
ATOM      4  C   LIG    1       -2.762   0.534  -1.233  0.00  0.00    +0.006 C 
ATOM      5  C   LIG    1       -2.511   1.377   0.020  0.00  0.00    +0.084 C 
ATOM      6  C   LIG    1       -2.749   0.514   1.263  0.00  0.00    +0.006 C 
ATOM      7  C   LIG    1       -4.176  -0.037   1.230  0.00  0.00    -0.076 C 
ENDROOT
BRANCH   5   8
ATOM      8  N   LIG    1       -1.128   1.860   0.017  0.00  0.00    -0.339 N 
ATOM      9  C   LIG    1       -0.013   1.076   0.008  0.00  0.00    +0.087 A 
ATOM     10  C   LIG    1        1.069   1.881   0.002  0.00  0.00    +0.020 A 
ATOM     11  C   LIG    1        0.605   3.211   0.013  0.00  0.00    +0.034 A 
ATOM     12  C   LIG    1       -0.744   3.168   0.025  0.00  0.00    +0.081 A 
ATOM     13  I   LIG    1       -2.025   4.826   0.045  0.00  0.00    -0.024 I 
ENDBRANCH   5   8
BRANCH   1  14
ATOM     14  C   LIG    1       -5.679  -1.495   0.015  0.00  0.00    -0.043 C 
BRANCH  14  18
ATOM     15  C   LIG    1       -6.377  -3.270   3.837  0.00  0.00    +0.000 A 
ATOM     16  C   LIG    1       -6.773  -1.967   3.597  0.00  0.00    +0.000 A 
ATOM     17  C   LIG    1       -6.546  -1.393   2.360  0.00  0.00    +0.002 A 
ATOM     18  C   LIG    1       -5.925  -2.121   1.363  0.00  0.00    -0.064 A 
ATOM     19  C   LIG    1       -5.534  -3.425   1.602  0.00  0.00    +0.002 A 
ATOM     20  C   LIG    1       -5.755  -3.998   2.840  0.00  0.00    +0.000 A 
ENDBRANCH  14  18
ENDBRANCH   1  14
TORSDOF 3
