REMARK  Name = ZINC14960076
REMARK                            x       y       z     vdW  Elec       q    Type
REMARK                         _______ _______ _______ _____ _____    ______ ____
ROOT
ATOM      1  N   LIG    1        0.613  -4.729  -0.018  0.00  0.00    -0.270 N 
ATOM      2  H   LIG    1        1.483  -4.306  -0.094  0.00  0.00    +0.156 HD
ATOM      3  C   LIG    1        0.523  -6.071   0.078  0.00  0.00    +0.223 C 
ATOM      4  O   LIG    1       -0.565  -6.606   0.081  0.00  0.00    -0.275 OA
ENDROOT
BRANCH   1   9
ATOM      5  C   LIG    1       -2.854  -3.857   0.007  0.00  0.00    +0.236 A 
ATOM      6  C   LIG    1       -2.832  -2.454   0.015  0.00  0.00    +0.134 A 
ATOM      7  C   LIG    1       -1.585  -1.794   0.012  0.00  0.00    +0.051 A 
ATOM      8  C   LIG    1       -0.430  -2.569   0.001  0.00  0.00    +0.068 A 
ATOM      9  C   LIG    1       -0.540  -3.952  -0.006  0.00  0.00    +0.131 A 
ATOM     10  N   LIG    1       -1.726  -4.546   0.002  0.00  0.00    -0.197 NA
BRANCH   7  11
ATOM     11  N   LIG    1       -1.513  -0.410   0.020  0.00  0.00    -0.357 N 
ATOM     12  H   LIG    1       -0.649   0.031   0.018  0.00  0.00    +0.142 HD
ATOM     13  H   LIG    1       -2.327   0.118   0.027  0.00  0.00    +0.142 HD
ENDBRANCH   7  11
BRANCH   6  14
ATOM     14  C   LIG    1       -4.052  -1.706   0.026  0.00  0.00    +0.106 C 
ATOM     15  N   LIG    1       -5.021  -1.112   0.035  0.00  0.00    -0.191 NA
ENDBRANCH   6  14
BRANCH   5  16
ATOM     16  O   LIG    1       -4.041  -4.510   0.010  0.00  0.00    -0.476 OA
BRANCH  16  18
ATOM     17  C   LIG    1       -5.421  -6.494   0.011  0.00  0.00    +0.048 C 
ATOM     18  C   LIG    1       -3.995  -5.938   0.007  0.00  0.00    +0.227 C 
ENDBRANCH  16  18
ENDBRANCH   5  16
ENDBRANCH   1   9
BRANCH   3  19
ATOM     19  C   LIG    1        1.774  -6.904   0.181  0.00  0.00    +0.135 C 
BRANCH  19  20
ATOM     20  C   LIG    1        1.401  -8.361   0.276  0.00  0.00    +0.007 A 
ATOM     21  C   LIG    1        1.285  -8.966   1.513  0.00  0.00    +0.055 A 
ATOM     22  C   LIG    1        0.940 -10.306   1.600  0.00  0.00    +0.145 A 
ATOM     23  C   LIG    1        0.712 -11.040   0.445  0.00  0.00    +0.133 A 
ATOM     24  C   LIG    1        0.828 -10.436  -0.791  0.00  0.00    +0.076 A 
ATOM     25  C   LIG    1        1.167  -9.094  -0.878  0.00  0.00    +0.126 A 
BRANCH  23  26
ATOM     26  S   LIG    1        0.275 -12.743   0.556  0.00  0.00    -0.002 S 
ATOM     27  C   LIG    1        1.732 -13.553   1.274  0.00  0.00    +0.200 C 
ATOM     28  O   LIG    1        0.097 -13.161  -0.791  0.00  0.00    -0.170 OA
ATOM     29  O   LIG    1       -0.808 -12.781   1.475  0.00  0.00    -0.170 OA
ENDBRANCH  23  26
BRANCH  22  30
ATOM     30  O   LIG    1        0.827 -10.901   2.818  0.00  0.00    -0.493 OA
ATOM     31  C   LIG    1        1.076 -10.086   3.964  0.00  0.00    +0.277 C 
ENDBRANCH  22  30
BRANCH  25  32
ATOM     32  O   LIG    1        1.276  -8.497  -2.095  0.00  0.00    -0.495 OA
ATOM     33  C   LIG    1        1.022  -9.312  -3.242  0.00  0.00    +0.277 C 
ENDBRANCH  25  32
ENDBRANCH  19  20
ENDBRANCH   3  19
TORSDOF 10
