REMARK  Name = ZINC34229645
REMARK                            x       y       z     vdW  Elec       q    Type
REMARK                         _______ _______ _______ _____ _____    ______ ____
ROOT
ATOM      1  C   LIG    1       -0.017   1.376   0.010  0.00  0.00    +0.001 A 
ATOM      2  C   LIG    1        1.169   2.090   0.002  0.00  0.00    +0.000 A 
ATOM      3  C   LIG    1        2.384   1.426  -0.014  0.00  0.00    +0.008 A 
ATOM      4  C   LIG    1        2.414   0.051  -0.022  0.00  0.00    +0.010 A 
ATOM      5  C   LIG    1        1.222  -0.680  -0.013  0.00  0.00    +0.066 A 
ATOM      6  C   LIG    1        1.577  -2.111  -0.024  0.00  0.00    +0.340 C 
ATOM      7  O   LIG    1        2.913  -2.253  -0.038  0.00  0.00    -0.450 OA
ATOM      8  O   LIG    1        0.779  -3.027  -0.021  0.00  0.00    -0.245 OA
ATOM      9  C   LIG    1        3.528  -0.964  -0.040  0.00  0.00    +0.142 C 
ATOM     10  C   LIG    1        4.404  -0.799   1.202  0.00  0.00    +0.072 C 
ATOM     11  C   LIG    1        5.501  -1.869   1.194  0.00  0.00    +0.112 C 
ATOM     12  N   LIG    1        6.229  -1.792  -0.080  0.00  0.00    -0.302 N 
ATOM     13  C   LIG    1        5.467  -1.860  -1.334  0.00  0.00    +0.112 C 
ATOM     14  C   LIG    1        4.371  -0.789  -1.304  0.00  0.00    +0.072 C 
ATOM     15  C   LIG    1        0.002  -0.004   0.002  0.00  0.00    +0.015 A 
ENDROOT
BRANCH  12  16
ATOM     16  C   LIG    1        7.601  -1.657  -0.098  0.00  0.00    +0.174 A 
ATOM     17  N   LIG    1        8.326  -1.482  -1.174  0.00  0.00    -0.327 N 
ATOM     18  H   LIG    1        7.979  -1.428  -2.079  0.00  0.00    +0.169 HD
ATOM     19  C   LIG    1        9.637  -1.388  -0.831  0.00  0.00    +0.066 A 
ATOM     20  C   LIG    1       10.811  -1.203  -1.566  0.00  0.00    +0.040 A 
ATOM     21  C   LIG    1       12.024  -1.150  -0.916  0.00  0.00    +0.057 A 
ATOM     22  C   LIG    1       12.089  -1.278   0.463  0.00  0.00    +0.014 A 
ATOM     23  C   LIG    1       10.940  -1.462   1.203  0.00  0.00    +0.028 A 
ATOM     24  C   LIG    1        9.710  -1.518   0.565  0.00  0.00    +0.065 A 
ATOM     25  N   LIG    1        8.406  -1.681   1.005  0.00  0.00    -0.327 N 
ATOM     26  H   LIG    1        8.119  -1.794   1.925  0.00  0.00    +0.169 HD
BRANCH  21  27
ATOM     27  C   LIG    1       13.289  -0.951  -1.710  0.00  0.00    +0.417 C 
ATOM     28  F   LIG    1       13.133  -1.507  -2.984  0.00  0.00    -0.166 F 
ATOM     29  F   LIG    1       14.354  -1.577  -1.054  0.00  0.00    -0.166 F 
ATOM     30  F   LIG    1       13.555   0.418  -1.828  0.00  0.00    -0.166 F 
ENDBRANCH  21  27
ENDBRANCH  12  16
TORSDOF 2
