REMARK  Name = ZINC25667985
REMARK                            x       y       z     vdW  Elec       q    Type
REMARK                         _______ _______ _______ _____ _____    ______ ____
ROOT
ATOM      1  C   LIG    1       -0.013   1.086   0.008  0.00  0.00    +0.166 C 
ENDROOT
BRANCH   1   4
ATOM      2  N   LIG    1        2.226   1.299  -1.023  0.00  0.00    -0.304 N 
ATOM      3  H   LIG    1        1.867   0.666  -1.848  0.00  0.00    +0.149 HD
ATOM      4  C   LIG    1        1.401   1.607  -0.003  0.00  0.00    +0.234 C 
ATOM      5  O   LIG    1        1.797   2.305   0.907  0.00  0.00    -0.274 OA
BRANCH   2   6
ATOM      6  C   LIG    1        3.600   1.806  -1.034  0.00  0.00    +0.146 C 
BRANCH   6   7
ATOM      7  C   LIG    1        3.620   3.191  -1.627  0.00  0.00    +0.184 C 
ATOM      8  O   LIG    1        2.665   3.597  -2.244  0.00  0.00    -0.293 OA
BRANCH   7   9
ATOM      9  C   LIG    1        4.832   4.069  -1.450  0.00  0.00    +0.289 C 
ATOM     10  F   LIG    1        4.615   5.297  -2.084  0.00  0.00    -0.241 F 
ENDBRANCH   7   9
ENDBRANCH   6   7
BRANCH   6  11
ATOM     11  C   LIG    1        4.479   0.878  -1.874  0.00  0.00    +0.065 C 
BRANCH  11  15
ATOM     12  C   LIG    1        4.704  -2.955  -0.003  0.00  0.00    +0.000 A 
ATOM     13  C   LIG    1        3.704  -2.691  -0.920  0.00  0.00    +0.000 A 
ATOM     14  C   LIG    1        3.631  -1.451  -1.526  0.00  0.00    +0.004 A 
ATOM     15  C   LIG    1        4.559  -0.474  -1.214  0.00  0.00    -0.045 A 
ATOM     16  C   LIG    1        5.562  -0.740  -0.301  0.00  0.00    +0.004 A 
ATOM     17  C   LIG    1        5.631  -1.979   0.309  0.00  0.00    +0.000 A 
ENDBRANCH  11  15
ENDBRANCH   6  11
ENDBRANCH   2   6
ENDBRANCH   1   4
BRANCH   1  18
ATOM     18  N   LIG    1       -0.698   1.558   1.213  0.00  0.00    -0.269 N 
ATOM     19  H   LIG    1       -0.362   2.479   1.712  0.00  0.00    +0.153 HD
ATOM     20  C   LIG    1       -1.741   0.865   1.711  0.00  0.00    +0.401 C 
ATOM     21  O   LIG    1       -2.113  -0.153   1.160  0.00  0.00    -0.226 OA
BRANCH  20  22
ATOM     22  O   LIG    1       -2.371   1.299   2.819  0.00  0.00    -0.446 OA
BRANCH  22  23
ATOM     23  C   LIG    1       -3.486   0.501   3.298  0.00  0.00    +0.269 C 
BRANCH  23  24
ATOM     24  C   LIG    1       -4.062   1.137   4.537  0.00  0.00    -0.010 A 
ATOM     25  C   LIG    1       -3.580   0.784   5.784  0.00  0.00    +0.007 A 
ATOM     26  C   LIG    1       -4.106   1.371   6.920  0.00  0.00    +0.000 A 
ATOM     27  C   LIG    1       -5.120   2.304   6.810  0.00  0.00    +0.000 A 
ATOM     28  C   LIG    1       -5.606   2.653   5.564  0.00  0.00    +0.000 A 
ATOM     29  C   LIG    1       -5.077   2.070   4.427  0.00  0.00    +0.007 A 
ENDBRANCH  23  24
ENDBRANCH  22  23
ENDBRANCH  20  22
ENDBRANCH   1  18
BRANCH   1  30
ATOM     30  C   LIG    1       -0.753   1.593  -1.232  0.00  0.00    +0.067 C 
BRANCH  30  31
ATOM     31  C   LIG    1       -2.126   0.973  -1.285  0.00  0.00    -0.045 A 
ATOM     32  C   LIG    1       -2.318  -0.223  -1.950  0.00  0.00    +0.004 A 
ATOM     33  C   LIG    1       -3.577  -0.793  -1.995  0.00  0.00    +0.000 A 
ATOM     34  C   LIG    1       -4.644  -0.162  -1.384  0.00  0.00    +0.000 A 
ATOM     35  C   LIG    1       -4.452   1.037  -0.724  0.00  0.00    +0.000 A 
ATOM     36  C   LIG    1       -3.193   1.605  -0.674  0.00  0.00    +0.004 A 
ENDBRANCH  30  31
ENDBRANCH   1  30
TORSDOF 12
