REMARK  Name = ZINC19364230
REMARK                            x       y       z     vdW  Elec       q    Type
REMARK                         _______ _______ _______ _____ _____    ______ ____
ROOT
ATOM      1  C   LIG    1        4.366  -0.785  -0.236  0.00  0.00    +0.117 C 
ENDROOT
BRANCH   1   2
ATOM      2  C   LIG    1        3.019  -0.109  -0.277  0.00  0.00    -0.026 A 
ATOM      3  C   LIG    1        2.314   0.099   0.894  0.00  0.00    +0.007 A 
ATOM      4  C   LIG    1        1.080   0.718   0.857  0.00  0.00    +0.020 A 
ATOM      5  C   LIG    1        0.549   1.131  -0.353  0.00  0.00    +0.041 A 
ATOM      6 CL   LIG    1       -1.002   1.909  -0.400  0.00  0.00    -0.084 Cl
ATOM      7  C   LIG    1        1.255   0.923  -1.524  0.00  0.00    +0.020 A 
ATOM      8  C   LIG    1        2.492   0.308  -1.485  0.00  0.00    +0.007 A 
ENDBRANCH   1   2
BRANCH   1  12
ATOM      9  C   LIG    1        7.285   1.952   1.258  0.00  0.00    +0.000 A 
ATOM     10  C   LIG    1        7.260   1.635  -0.087  0.00  0.00    +0.000 A 
ATOM     11  C   LIG    1        6.315   0.749  -0.570  0.00  0.00    +0.005 A 
ATOM     12  C   LIG    1        5.396   0.180   0.291  0.00  0.00    -0.026 A 
ATOM     13  C   LIG    1        5.422   0.496   1.637  0.00  0.00    +0.005 A 
ATOM     14  C   LIG    1        6.366   1.383   2.120  0.00  0.00    +0.000 A 
ENDBRANCH   1  12
BRANCH   1  15
ATOM     15  N   LIG    1        4.298  -1.959   0.645  0.00  0.00    -0.289 NA
ATOM     16  C   LIG    1        3.249  -2.889   0.203  0.00  0.00    +0.100 C 
ATOM     17  C   LIG    1        3.157  -4.055   1.190  0.00  0.00    +0.100 C 
ATOM     18  N   LIG    1        4.459  -4.732   1.266  0.00  0.00    -0.298 NA
ATOM     19  C   LIG    1        5.508  -3.802   1.708  0.00  0.00    +0.100 C 
ATOM     20  C   LIG    1        5.600  -2.636   0.722  0.00  0.00    +0.100 C 
BRANCH  18  21
ATOM     21  C   LIG    1        4.391  -5.906   2.147  0.00  0.00    +0.112 C 
BRANCH  21  22
ATOM     22  C   LIG    1        3.679  -7.049   1.420  0.00  0.00    +0.176 C 
BRANCH  22  23
ATOM     23  O   LIG    1        4.452  -7.446   0.286  0.00  0.00    -0.367 OA
BRANCH  23  24
ATOM     24  C   LIG    1        3.872  -8.513  -0.467  0.00  0.00    +0.280 C 
BRANCH  24  25
ATOM     25  C   LIG    1        4.766  -8.848  -1.634  0.00  0.00    +0.331 C 
ATOM     26  O   LIG    1        5.803  -8.230  -1.804  0.00  0.00    -0.248 OA
BRANCH  25  27
ATOM     27  O   LIG    1        4.452  -9.737  -2.406  0.00  0.00    -0.479 OA
ATOM     28  H   LIG    1        3.655 -10.212  -2.275  0.00  0.00    +0.295 HD
ENDBRANCH  25  27
ENDBRANCH  24  25
ENDBRANCH  23  24
ENDBRANCH  22  23
ENDBRANCH  21  22
ENDBRANCH  18  21
ENDBRANCH   1  15
TORSDOF 9
