REMARK  Name = ZINC28238972
REMARK                            x       y       z     vdW  Elec       q    Type
REMARK                         _______ _______ _______ _____ _____    ______ ____
ROOT
ATOM      1  C   LIG    1       -4.005   2.326   2.265  0.00  0.00    +0.267 C 
ATOM      2  N   LIG    1       -3.295   3.468   2.356  0.00  0.00    -0.278 N 
ATOM      3  H   LIG    1       -2.366   3.585   1.778  0.00  0.00    +0.155 HD
ATOM      4  O   LIG    1       -5.075   2.229   2.835  0.00  0.00    -0.268 OA
ENDROOT
BRANCH   2   5
ATOM      5  C   LIG    1       -3.738   4.503   3.184  0.00  0.00    +0.069 A 
ATOM      6  C   LIG    1       -5.057   4.526   3.621  0.00  0.00    +0.027 A 
ATOM      7  C   LIG    1       -5.495   5.543   4.443  0.00  0.00    +0.010 A 
ATOM      8  C   LIG    1       -4.618   6.556   4.826  0.00  0.00    -0.015 A 
ATOM      9  C   LIG    1       -3.296   6.536   4.383  0.00  0.00    +0.048 A 
ATOM     10  C   LIG    1       -2.860   5.513   3.565  0.00  0.00    +0.145 A 
ATOM     11  F   LIG    1       -1.579   5.493   3.135  0.00  0.00    -0.204 F 
BRANCH   8  12
ATOM     12  C   LIG    1       -5.090   7.654   5.705  0.00  0.00    -0.016 A 
ATOM     13  C   LIG    1       -4.959   8.981   5.299  0.00  0.00    +0.009 A 
ATOM     14  C   LIG    1       -5.400   9.998   6.121  0.00  0.00    +0.001 A 
ATOM     15  C   LIG    1       -5.971   9.703   7.346  0.00  0.00    +0.000 A 
ATOM     16  C   LIG    1       -6.103   8.388   7.754  0.00  0.00    +0.002 A 
ATOM     17  C   LIG    1       -5.670   7.362   6.938  0.00  0.00    -0.056 A 
BRANCH  17  18
ATOM     18  C   LIG    1       -5.821   5.930   7.381  0.00  0.00    -0.043 C 
BRANCH  18  19
ATOM     19  N   LIG    1       -4.493   5.349   7.620  0.00  0.00    +0.379 N 
ATOM     20  H   LIG    1       -3.880   5.528   6.724  0.00  0.00    -0.082 HD
ATOM     21  C   LIG    1       -4.582   3.897   7.822  0.00  0.00    -0.096 C 
ATOM     22  C   LIG    1       -3.830   5.999   8.758  0.00  0.00    -0.096 C 
ENDBRANCH  18  19
ENDBRANCH  17  18
ENDBRANCH   8  12
ENDBRANCH   2   5
BRANCH   1  26
ATOM     23  C   LIG    1       -3.643  -2.116  -0.160  0.00  0.00    +0.067 C 
ATOM     24  C   LIG    1       -3.309  -0.758   0.402  0.00  0.00    +0.061 A 
ATOM     25  C   LIG    1       -4.165   0.039   1.158  0.00  0.00    +0.057 A 
ATOM     26  C   LIG    1       -3.487   1.198   1.477  0.00  0.00    +0.130 A 
ATOM     27  N   LIG    1       -2.239   1.098   0.921  0.00  0.00    -0.227 N 
ATOM     28  N   LIG    1       -2.168  -0.131   0.254  0.00  0.00    -0.171 NA
BRANCH  27  29
ATOM     29  C   LIG    1       -1.221   2.055   0.999  0.00  0.00    +0.067 A 
ATOM     30  C   LIG    1       -0.601   2.505  -0.173  0.00  0.00    +0.028 A 
ATOM     31  C   LIG    1        0.391   3.433  -0.127  0.00  0.00    +0.010 A 
ATOM     32  C   LIG    1        0.805   3.955   1.111  0.00  0.00    -0.016 A 
ATOM     33  C   LIG    1        1.827   4.916   1.188  0.00  0.00    +0.028 A 
ATOM     34  C   LIG    1        2.206   5.402   2.403  0.00  0.00    +0.042 A 
ATOM     35 CL   LIG    1        3.469   6.590   2.494  0.00  0.00    -0.084 Cl
ATOM     36  C   LIG    1        1.593   4.960   3.575  0.00  0.00    +0.020 A 
ATOM     37  C   LIG    1        0.600   4.030   3.539  0.00  0.00    +0.010 A 
ATOM     38  C   LIG    1        0.187   3.502   2.303  0.00  0.00    -0.016 A 
ATOM     39  C   LIG    1       -0.839   2.545   2.228  0.00  0.00    +0.036 A 
ENDBRANCH  27  29
ENDBRANCH   1  26
TORSDOF 6
