REMARK  Name = ZINC33676151
REMARK                            x       y       z     vdW  Elec       q    Type
REMARK                         _______ _______ _______ _____ _____    ______ ____
ROOT
ATOM      1  N   LIG    1        4.898  -4.088  -0.069  0.00  0.00    -0.310 N 
ATOM      2  C   LIG    1        4.875  -4.876   1.038  0.00  0.00    +0.068 A 
ATOM      3  C   LIG    1        4.894  -4.607   2.409  0.00  0.00    +0.028 A 
ATOM      4  C   LIG    1        4.860  -5.647   3.311  0.00  0.00    +0.002 A 
ATOM      5  C   LIG    1        4.807  -6.961   2.868  0.00  0.00    +0.002 A 
ATOM      6  C   LIG    1        4.788  -7.243   1.518  0.00  0.00    +0.028 A 
ATOM      7  C   LIG    1        4.821  -6.208   0.596  0.00  0.00    +0.068 A 
ATOM      8  N   LIG    1        4.815  -6.154  -0.788  0.00  0.00    -0.315 N 
ATOM      9  C   LIG    1        4.858  -4.836  -1.143  0.00  0.00    +0.174 A 
ENDROOT
BRANCH   9  10
ATOM     10  N   LIG    1        4.862  -4.364  -2.438  0.00  0.00    -0.330 N 
ATOM     11  H   LIG    1        4.830  -4.986  -3.182  0.00  0.00    +0.145 HD
ATOM     12  H   LIG    1        4.897  -3.409  -2.606  0.00  0.00    +0.145 HD
ENDBRANCH   9  10
BRANCH   1  13
ATOM     13  C   LIG    1        4.954  -2.624  -0.061  0.00  0.00    +0.166 C 
BRANCH  13  14
ATOM     14  C   LIG    1        3.531  -2.060  -0.044  0.00  0.00    +0.250 C 
BRANCH  14  15
ATOM     15  O   LIG    1        3.586  -0.632  -0.037  0.00  0.00    -0.490 OA
BRANCH  15  19
ATOM     16  C   LIG    1       -0.017   1.378   0.010  0.00  0.00    +0.000 A 
ATOM     17  C   LIG    1        1.170   2.088   0.002  0.00  0.00    +0.004 A 
ATOM     18  C   LIG    1        2.377   1.417  -0.013  0.00  0.00    +0.045 A 
ATOM     19  C   LIG    1        2.399   0.030  -0.021  0.00  0.00    +0.121 A 
ATOM     20  C   LIG    1        1.207  -0.680  -0.013  0.00  0.00    +0.045 A 
ATOM     21  C   LIG    1        0.002  -0.004   0.002  0.00  0.00    +0.004 A 
ENDBRANCH  15  19
ENDBRANCH  14  15
ENDBRANCH  13  14
ENDBRANCH   1  13
BRANCH   8  22
ATOM     22  C   LIG    1        4.766  -7.298  -1.702  0.00  0.00    +0.106 C 
BRANCH  22  23
ATOM     23  C   LIG    1        3.308  -7.642  -2.012  0.00  0.00    -0.057 C 
BRANCH  23  24
ATOM     24  N   LIG    1        3.259  -8.789  -2.928  0.00  0.00    +0.381 N 
ATOM     25  H   LIG    1        3.776  -9.559  -2.530  0.00  0.00    -0.082 HD
ATOM     26  C   LIG    1        3.859  -8.413  -4.214  0.00  0.00    -0.079 C 
ATOM     27  C   LIG    1        3.884  -9.627  -5.144  0.00  0.00    -0.019 C 
ATOM     28  C   LIG    1        2.452 -10.118  -5.372  0.00  0.00    -0.004 C 
ATOM     29  C   LIG    1        1.810 -10.437  -4.019  0.00  0.00    -0.019 C 
ATOM     30  C   LIG    1        1.862  -9.193  -3.130  0.00  0.00    -0.079 C 
ENDBRANCH  23  24
ENDBRANCH  22  23
ENDBRANCH   8  22
TORSDOF 8
