REMARK  Name = ZINC22034381
REMARK                            x       y       z     vdW  Elec       q    Type
REMARK                         _______ _______ _______ _____ _____    ______ ____
ROOT
ATOM      1  N   LIG    1       -0.059   1.106   6.902  0.00  0.00    +0.387 N 
ATOM      2  H   LIG    1        0.658   0.418   6.727  0.00  0.00    -0.081 HD
ATOM      3  C   LIG    1       -1.360   0.576   6.473  0.00  0.00    -0.063 C 
ATOM      4  C   LIG    1       -1.666  -0.710   7.245  0.00  0.00    +0.066 C 
ATOM      5  N   LIG    1       -1.687  -0.420   8.686  0.00  0.00    -0.306 NA
ATOM      6  C   LIG    1       -0.398   0.135   9.124  0.00  0.00    +0.066 C 
ATOM      7  C   LIG    1       -0.103   1.414   8.338  0.00  0.00    -0.063 C 
ENDROOT
BRANCH   1   8
ATOM      8  C   LIG    1        0.242   2.330   6.148  0.00  0.00    +0.019 C 
BRANCH   8  11
ATOM      9  N   LIG    1        0.691   2.967   3.800  0.00  0.00    -0.287 N 
ATOM     10  H   LIG    1        0.736   3.891   4.092  0.00  0.00    +0.155 HD
ATOM     11  C   LIG    1        0.408   1.994   4.689  0.00  0.00    +0.201 C 
ATOM     12  O   LIG    1        0.287   0.847   4.313  0.00  0.00    -0.278 OA
BRANCH   9  20
ATOM     13  C   LIG    1        2.692   1.034   3.204  0.00  0.00    +0.045 C 
ATOM     14  C   LIG    1        1.886   1.706   2.123  0.00  0.00    -0.029 A 
ATOM     15  C   LIG    1        2.105   1.386   0.797  0.00  0.00    +0.005 A 
ATOM     16  C   LIG    1        1.366   2.003  -0.196  0.00  0.00    +0.001 A 
ATOM     17  C   LIG    1        0.406   2.942   0.135  0.00  0.00    +0.005 A 
ATOM     18  C   LIG    1        0.183   3.266   1.458  0.00  0.00    -0.029 A 
ATOM     19  C   LIG    1       -0.863   4.290   1.817  0.00  0.00    +0.045 C 
ATOM     20  C   LIG    1        0.919   2.645   2.458  0.00  0.00    +0.039 A 
ENDBRANCH   9  20
ENDBRANCH   8  11
ENDBRANCH   1   8
BRANCH   5  21
ATOM     21  C   LIG    1       -2.034  -1.620   9.459  0.00  0.00    +0.084 C 
BRANCH  21  22
ATOM     22  C   LIG    1       -2.289  -1.231  10.917  0.00  0.00    +0.016 C 
BRANCH  22  23
ATOM     23  C   LIG    1       -2.650  -2.481  11.722  0.00  0.00    +0.014 C 
BRANCH  23  24
ATOM     24  C   LIG    1       -2.905  -2.092  13.180  0.00  0.00    +0.049 C 
BRANCH  24  25
ATOM     25  C   LIG    1       -3.140  -3.336  13.998  0.00  0.00    -0.040 A 
ATOM     26  C   LIG    1       -4.080  -4.263  13.589  0.00  0.00    +0.007 A 
ATOM     27  C   LIG    1       -4.296  -5.405  14.338  0.00  0.00    +0.038 A 
ATOM     28  C   LIG    1       -3.571  -5.618  15.498  0.00  0.00    +0.123 A 
ATOM     29  F   LIG    1       -3.782  -6.733  16.231  0.00  0.00    -0.205 F 
ATOM     30  C   LIG    1       -2.630  -4.688  15.906  0.00  0.00    +0.038 A 
ATOM     31  C   LIG    1       -2.412  -3.551  15.153  0.00  0.00    +0.007 A 
ENDBRANCH  24  25
BRANCH  24  32
ATOM     32  C   LIG    1       -4.119  -1.203  13.257  0.00  0.00    -0.040 A 
ATOM     33  C   LIG    1       -5.311  -1.609  12.686  0.00  0.00    +0.007 A 
ATOM     34  C   LIG    1       -6.425  -0.795  12.757  0.00  0.00    +0.038 A 
ATOM     35  C   LIG    1       -6.348   0.429  13.400  0.00  0.00    +0.123 A 
ATOM     36  F   LIG    1       -7.436   1.226  13.470  0.00  0.00    -0.205 F 
ATOM     37  C   LIG    1       -5.154   0.835  13.972  0.00  0.00    +0.038 A 
ATOM     38  C   LIG    1       -4.043   0.016  13.905  0.00  0.00    +0.007 A 
ENDBRANCH  24  32
ENDBRANCH  23  24
ENDBRANCH  22  23
ENDBRANCH  21  22
ENDBRANCH   5  21
TORSDOF 9
