REMARK  Name = ZINC20231520
REMARK                            x       y       z     vdW  Elec       q    Type
REMARK                         _______ _______ _______ _____ _____    ______ ____
ROOT
ATOM      1  N   LIG    1        4.848   0.005  -0.146  0.00  0.00    -0.257 N 
ATOM      2  C   LIG    1        3.697  -0.687  -0.260  0.00  0.00    +0.251 C 
ATOM      3  O   LIG    1        3.691  -1.890  -0.082  0.00  0.00    -0.270 OA
ENDROOT
BRANCH   1   7
ATOM      4  C   LIG    1        8.456  -2.020   0.366  0.00  0.00    +0.120 A 
ATOM      5  C   LIG    1        7.297  -2.729   0.087  0.00  0.00    +0.047 A 
ATOM      6  C   LIG    1        6.102  -2.059  -0.083  0.00  0.00    +0.027 A 
ATOM      7  C   LIG    1        6.060  -0.675   0.026  0.00  0.00    +0.037 A 
ATOM      8  C   LIG    1        7.222   0.034   0.301  0.00  0.00    +0.027 A 
ATOM      9  C   LIG    1        8.415  -0.638   0.476  0.00  0.00    +0.047 A 
BRANCH   4  11
ATOM     10  C   LIG    1       10.787  -1.887   0.819  0.00  0.00    +0.277 C 
ATOM     11  O   LIG    1        9.633  -2.680   0.533  0.00  0.00    -0.495 OA
ENDBRANCH   4  11
ENDBRANCH   1   7
BRANCH   2  12
ATOM     12  C   LIG    1        2.443   0.016  -0.601  0.00  0.00    +0.037 A 
ATOM     13  C   LIG    1        1.443  -0.642  -1.318  0.00  0.00    +0.013 A 
ATOM     14  C   LIG    1        0.274   0.020  -1.633  0.00  0.00    +0.001 A 
ATOM     15  C   LIG    1        0.092   1.334  -1.240  0.00  0.00    +0.000 A 
ATOM     16  C   LIG    1        1.080   1.992  -0.528  0.00  0.00    +0.001 A 
ATOM     17  C   LIG    1        2.253   1.342  -0.206  0.00  0.00    +0.013 A 
ENDBRANCH   2  12
BRANCH   1  18
ATOM     18  C   LIG    1        4.832   1.469  -0.203  0.00  0.00    +0.234 C 
BRANCH  18  19
ATOM     19  C   LIG    1        4.871   2.026   1.196  0.00  0.00    +0.323 C 
ATOM     20  O   LIG    1        4.910   1.278   2.144  0.00  0.00    -0.249 OA
BRANCH  19  21
ATOM     21  O   LIG    1        4.864   3.355   1.390  0.00  0.00    -0.480 OA
ATOM     22  H   LIG    1        4.834   3.935   0.655  0.00  0.00    +0.295 HD
ENDBRANCH  19  21
ENDBRANCH  18  19
ENDBRANCH   1  18
TORSDOF 6
