REMARK  Name = ZINC35018256
REMARK                            x       y       z     vdW  Elec       q    Type
REMARK                         _______ _______ _______ _____ _____    ______ ____
ROOT
ATOM      1  C   LIG    1        0.718  -0.497  -1.257  0.00  0.00    +0.188 C 
ATOM      2  C   LIG    1        0.757  -2.005  -1.258  0.00  0.00    +0.008 A 
ATOM      3  C   LIG    1       -0.419  -2.712  -1.488  0.00  0.00    +0.035 A 
ATOM      4  C   LIG    1       -0.402  -4.099  -1.482  0.00  0.00    +0.071 A 
ATOM      5  C   LIG    1       -1.504  -5.067  -1.695  0.00  0.00    +0.093 A 
ATOM      6  C   LIG    1       -0.974  -6.363  -1.585  0.00  0.00    +0.000 A 
ATOM      7  C   LIG    1        0.498  -6.206  -1.296  0.00  0.00    +0.162 C 
ATOM      8  C   LIG    1       -1.765  -7.459  -1.735  0.00  0.00    +0.018 A 
ATOM      9  C   LIG    1       -3.134  -7.256  -2.004  0.00  0.00    +0.009 A 
ATOM     10  C   LIG    1       -4.022  -8.322  -2.172  0.00  0.00    +0.022 C 
ATOM     11  C   LIG    1       -5.360  -8.055  -2.435  0.00  0.00    +0.184 C 
ATOM     12  C   LIG    1       -5.829  -6.731  -2.533  0.00  0.00    +0.053 C 
ATOM     13  C   LIG    1       -4.999  -5.671  -2.377  0.00  0.00    +0.032 C 
ATOM     14  O   LIG    1       -6.215  -9.070  -2.596  0.00  0.00    -0.288 OA
ATOM     15  C   LIG    1       -3.631  -5.882  -2.108  0.00  0.00    +0.072 A 
ATOM     16  N   LIG    1       -2.789  -4.865  -1.949  0.00  0.00    -0.245 NA
ATOM     17  N   LIG    1        0.762  -4.761  -1.252  0.00  0.00    -0.306 N 
ATOM     18  C   LIG    1        1.908  -4.086  -1.032  0.00  0.00    +0.200 A 
ATOM     19  C   LIG    1        1.931  -2.696  -1.036  0.00  0.00    +0.056 A 
ATOM     20  C   LIG    1        3.244  -1.994  -0.813  0.00  0.00    +0.273 C 
ATOM     21  O   LIG    1        3.032  -0.619  -0.487  0.00  0.00    -0.457 OA
ATOM     22  C   LIG    1        2.137   0.024  -1.270  0.00  0.00    +0.344 C 
ATOM     23  O   LIG    1        2.457   0.972  -1.949  0.00  0.00    -0.247 OA
ENDROOT
BRANCH   1  25
ATOM     24  C   LIG    1       -0.019   1.526   0.010  0.00  0.00    +0.007 C 
ATOM     25  C   LIG    1        0.002  -0.004   0.002  0.00  0.00    +0.048 C 
ENDBRANCH   1  25
BRANCH   1  26
ATOM     26  O   LIG    1        0.025  -0.032  -2.416  0.00  0.00    -0.373 OA
ATOM     27  H   LIG    1       -0.031   0.932  -2.480  0.00  0.00    +0.211 HD
ENDBRANCH   1  26
BRANCH  18  28
ATOM     28  O   LIG    1        3.050  -4.769  -0.805  0.00  0.00    -0.493 OA
ATOM     29  H   LIG    1        3.822  -4.207  -0.658  0.00  0.00    +0.294 HD
ENDBRANCH  18  28
BRANCH  10  30
ATOM     30  C   LIG    1       -3.535  -9.744  -2.070  0.00  0.00    +0.123 C 
BRANCH  30  31
ATOM     31  N   LIG    1       -3.641 -10.199  -0.678  0.00  0.00    -0.304 NA
ATOM     32  C   LIG    1       -2.724  -9.452   0.193  0.00  0.00    +0.104 C 
ATOM     33  C   LIG    1       -3.402 -11.645  -0.577  0.00  0.00    +0.104 C 
ENDBRANCH  30  31
ENDBRANCH  10  30
TORSDOF 5
