REMARK  Name = ZINC13806045
REMARK                            x       y       z     vdW  Elec       q    Type
REMARK                         _______ _______ _______ _____ _____    ______ ____
ROOT
ATOM      1  C   LIG    1        1.155   3.167   0.008  0.00  0.00    -0.042 A 
ATOM      2  C   LIG    1        1.172   1.783   0.000  0.00  0.00    +0.005 A 
ATOM      3  C   LIG    1       -0.013   1.076   0.008  0.00  0.00    +0.016 A 
ATOM      4  C   LIG    1       -1.229   1.758   0.017  0.00  0.00    +0.061 A 
ATOM      5  C   LIG    1       -1.240   3.153   0.030  0.00  0.00    +0.016 A 
ATOM      6  C   LIG    1       -0.048   3.849   0.023  0.00  0.00    +0.005 A 
ENDROOT
BRANCH   4   7
ATOM      7  C   LIG    1       -2.504   1.005   0.019  0.00  0.00    +0.271 C 
ATOM      8  N   LIG    1       -2.553  -0.289   0.013  0.00  0.00    -0.272 N 
ATOM      9  H   LIG    1       -1.735  -0.910   0.006  0.00  0.00    +0.304 HD
ATOM     10  C   LIG    1       -3.955  -0.736   0.018  0.00  0.00    +0.276 C 
ATOM     11  C   LIG    1       -4.769   0.573   0.029  0.00  0.00    +0.268 C 
ATOM     12  N   LIG    1       -3.730   1.617   0.034  0.00  0.00    -0.233 N 
ATOM     13  H   LIG    1       -3.887   2.574   0.044  0.00  0.00    +0.291 HD
ENDBRANCH   4   7
BRANCH   1  15
ATOM     14  C   LIG    1        3.246   3.579  -1.259  0.00  0.00    +0.015 C 
ATOM     15  C   LIG    1        2.452   3.933  -0.000  0.00  0.00    -0.013 C 
ATOM     16  C   LIG    1        3.270   3.565   1.239  0.00  0.00    +0.015 C 
ATOM     17  C   LIG    1        2.158   5.435   0.011  0.00  0.00    +0.015 C 
ENDBRANCH   1  15
TORSDOF 2
