REMARK  Name = ZINC29341878
REMARK                            x       y       z     vdW  Elec       q    Type
REMARK                         _______ _______ _______ _____ _____    ______ ____
ROOT
ATOM      1  C   LIG    1        1.082   2.250   0.568  0.00  0.00    +0.384 C 
ATOM      2  N   LIG    1        1.066   3.510   0.013  0.00  0.00    -0.073 NA
ENDROOT
BRANCH   2   3
ATOM      3  C   LIG    1        2.255   4.238  -0.104  0.00  0.00    +0.143 A 
ATOM      4  C   LIG    1        2.238   5.622   0.011  0.00  0.00    +0.046 A 
ATOM      5  C   LIG    1        3.413   6.338  -0.105  0.00  0.00    +0.005 A 
ATOM      6  C   LIG    1        4.606   5.679  -0.337  0.00  0.00    +0.020 A 
ATOM      7  C   LIG    1        4.627   4.300  -0.452  0.00  0.00    +0.044 A 
ATOM      8 CL   LIG    1        6.128   3.477  -0.742  0.00  0.00    -0.083 Cl
ATOM      9  C   LIG    1        3.455   3.578  -0.331  0.00  0.00    +0.065 A 
ENDBRANCH   2   3
BRANCH   1  11
ATOM     10  C   LIG    1        2.199   0.439   1.674  0.00  0.00    +0.239 C 
ATOM     11  N   LIG    1        2.182   1.780   1.084  0.00  0.00    -0.278 N 
ATOM     12  H   LIG    1        3.098   2.389   1.076  0.00  0.00    +0.258 HD
ENDBRANCH   1  11
BRANCH   1  13
ATOM     13  N   LIG    1       -0.063   1.488   0.577  0.00  0.00    -0.289 N 
ATOM     14  H   LIG    1       -0.050   0.482   1.020  0.00  0.00    +0.255 HD
ATOM     15  H   LIG    1       -0.991   1.886   0.142  0.00  0.00    +0.255 HD
ENDBRANCH   1  13
TORSDOF 3
