REMARK  Name = ZINC14953365
REMARK                            x       y       z     vdW  Elec       q    Type
REMARK                         _______ _______ _______ _____ _____    ______ ____
ROOT
ATOM      1  C   LIG    1       -1.423  -4.789  -0.011  0.00  0.00    +0.169 A 
ATOM      2  N   LIG    1       -0.256  -4.153  -0.013  0.00  0.00    -0.191 NA
ATOM      3  C   LIG    1        0.889  -4.818  -0.028  0.00  0.00    +0.246 A 
ATOM      4  C   LIG    1        0.851  -6.227  -0.040  0.00  0.00    +0.192 A 
ATOM      5  N   LIG    1        1.791  -7.187  -0.056  0.00  0.00    -0.123 NA
ATOM      6  N   LIG    1        1.237  -8.350  -0.063  0.00  0.00    -0.066 NA
ATOM      7  N   LIG    1       -0.158  -8.201  -0.051  0.00  0.00    -0.240 N 
ATOM      8  H   LIG    1       -0.817  -8.913  -0.053  0.00  0.00    +0.192 HD
ATOM      9  C   LIG    1       -0.408  -6.856  -0.037  0.00  0.00    +0.183 A 
ATOM     10  N   LIG    1       -1.507  -6.110  -0.017  0.00  0.00    -0.206 NA
ENDROOT
BRANCH   1  16
ATOM     11  C   LIG    1       -2.615  -2.595   0.013  0.00  0.00    +0.131 A 
ATOM     12  C   LIG    1       -3.790  -1.859   0.022  0.00  0.00    +0.046 A 
ATOM     13  C   LIG    1       -5.011  -2.504   0.031  0.00  0.00    +0.004 A 
ATOM     14  C   LIG    1       -5.071  -3.887   0.030  0.00  0.00    +0.001 A 
ATOM     15  C   LIG    1       -3.911  -4.633   0.021  0.00  0.00    +0.015 A 
ATOM     16  C   LIG    1       -2.673  -3.993   0.006  0.00  0.00    +0.061 A 
BRANCH  11  17
ATOM     17  O   LIG    1       -1.414  -1.962   0.005  0.00  0.00    -0.491 OA
BRANCH  17  18
ATOM     18  C   LIG    1       -1.433  -0.534   0.013  0.00  0.00    +0.229 C 
BRANCH  18  20
ATOM     19  C   LIG    1       -0.019   1.526   0.010  0.00  0.00    +0.007 C 
ATOM     20  C   LIG    1        0.002  -0.004   0.002  0.00  0.00    +0.038 C 
ENDBRANCH  18  20
ENDBRANCH  17  18
ENDBRANCH  11  17
ENDBRANCH   1  16
BRANCH   3  21
ATOM     21  O   LIG    1        2.071  -4.159  -0.030  0.00  0.00    -0.491 OA
ATOM     22  H   LIG    1        2.086  -3.222  -0.021  0.00  0.00    +0.294 HD
ENDBRANCH   3  21
TORSDOF 5
