REMARK  Name = ZINC13981078
REMARK                            x       y       z     vdW  Elec       q    Type
REMARK                         _______ _______ _______ _____ _____    ______ ____
ROOT
ATOM      1  C   LIG    1        1.409  10.529  -1.248  0.00  0.00    +0.154 A 
ATOM      2  C   LIG    1        0.530   9.475  -1.548  0.00  0.00    +0.148 A 
ATOM      3  C   LIG    1        1.023   8.160  -1.480  0.00  0.00    +0.166 A 
ATOM      4  N   LIG    1       -0.027   7.345  -1.819  0.00  0.00    -0.315 N 
ATOM      5  C   LIG    1       -1.102   8.145  -2.070  0.00  0.00    +0.201 A 
ATOM      6  N   LIG    1        2.295   7.964  -1.148  0.00  0.00    -0.212 NA
ATOM      7  C   LIG    1        3.082   8.982  -0.875  0.00  0.00    +0.137 A 
ATOM      8  N   LIG    1       -0.773   9.394  -1.910  0.00  0.00    -0.231 NA
ATOM      9  N   LIG    1        2.663  10.234  -0.920  0.00  0.00    -0.215 NA
ENDROOT
BRANCH   7  10
ATOM     10  C   LIG    1        4.515   8.710  -0.496  0.00  0.00    +0.057 C 
ATOM     11  C   LIG    1        4.821   9.322   0.887  0.00  0.00    +0.011 C 
ATOM     12  C   LIG    1        6.274   9.843   0.758  0.00  0.00    +0.001 C 
ATOM     13  C   LIG    1        6.313  10.394  -0.689  0.00  0.00    +0.001 C 
ATOM     14  C   LIG    1        5.463   9.392  -1.498  0.00  0.00    +0.011 C 
ENDBRANCH   7  10
BRANCH   1  15
ATOM     15  N   LIG    1        0.979  11.845  -1.292  0.00  0.00    -0.298 N 
ATOM     16  H   LIG    1        0.274  11.892  -0.585  0.00  0.00    +0.154 HD
BRANCH  15  20
ATOM     17  C   LIG    1        3.705  14.946  -0.746  0.00  0.00    +0.011 A 
ATOM     18  C   LIG    1        4.089  13.801  -1.419  0.00  0.00    +0.013 A 
ATOM     19  C   LIG    1        3.188  12.770  -1.603  0.00  0.00    +0.024 A 
ATOM     20  C   LIG    1        1.894  12.885  -1.109  0.00  0.00    +0.032 A 
ATOM     21  C   LIG    1        1.510  14.039  -0.438  0.00  0.00    +0.024 A 
ATOM     22  C   LIG    1        2.418  15.063  -0.253  0.00  0.00    +0.013 A 
BRANCH  17  24
ATOM     23  C   LIG    1        4.001  17.885  -0.445  0.00  0.00    +0.085 C 
ATOM     24  P   LIG    1        4.892  16.296  -0.507  0.00  0.00    +0.111 P 
ATOM     25  C   LIG    1        5.794  16.043   1.058  0.00  0.00    +0.085 C 
ATOM     26  O   LIG    1        5.853  16.313  -1.633  0.00  0.00    -0.317 OA
ENDBRANCH  17  24
ENDBRANCH  15  20
ENDBRANCH   1  15
BRANCH   4  27
ATOM     27  C   LIG    1       -0.000   5.882  -1.892  0.00  0.00    +0.129 C 
BRANCH  27  28
ATOM     28  C   LIG    1       -0.250   5.297  -0.501  0.00  0.00    +0.057 C 
BRANCH  28  29
ATOM     29  C   LIG    1       -0.222   3.792  -0.576  0.00  0.00    -0.042 A 
ATOM     30  C   LIG    1        0.969   3.113  -0.395  0.00  0.00    +0.004 A 
ATOM     31  C   LIG    1        0.998   1.733  -0.463  0.00  0.00    +0.004 A 
ATOM     32  C   LIG    1       -0.164   1.028  -0.714  0.00  0.00    +0.045 A 
ATOM     33  C   LIG    1       -1.359   1.707  -0.901  0.00  0.00    +0.117 A 
ATOM     34  C   LIG    1       -1.386   3.092  -0.826  0.00  0.00    +0.049 A 
BRANCH  33  35
ATOM     35  O   LIG    1       -2.502   1.016  -1.153  0.00  0.00    -0.507 OA
ATOM     36  H   LIG    1       -2.995   0.769  -0.359  0.00  0.00    +0.292 HD
ENDBRANCH  33  35
ENDBRANCH  28  29
ENDBRANCH  27  28
ENDBRANCH   4  27
TORSDOF 8
