REMARK  Name = ZINC49034809
REMARK                            x       y       z     vdW  Elec       q    Type
REMARK                         _______ _______ _______ _____ _____    ______ ____
ROOT
ATOM      1  N   LIG    1        2.594  -3.789   4.276  0.00  0.00    -0.175 NA
ATOM      2  C   LIG    1        3.200  -4.385   5.285  0.00  0.00    +0.172 C 
ATOM      3  C   LIG    1        3.367  -5.837   5.505  0.00  0.00    +0.122 C 
ATOM      4  N   LIG    1        4.024  -5.988   6.623  0.00  0.00    -0.177 NA
ATOM      5  N   LIG    1        4.330  -4.757   7.201  0.00  0.00    -0.201 N 
ATOM      6  H   LIG    1        4.814  -4.641   8.034  0.00  0.00    +0.178 HD
ATOM      7  C   LIG    1        3.863  -3.751   6.435  0.00  0.00    +0.285 C 
ATOM      8  O   LIG    1        3.966  -2.556   6.653  0.00  0.00    -0.267 OA
ENDROOT
BRANCH   3   9
ATOM      9  C   LIG    1        2.878  -6.921   4.620  0.00  0.00    +0.022 A 
ATOM     10  C   LIG    1        3.100  -8.262   4.950  0.00  0.00    +0.013 A 
ATOM     11  C   LIG    1        2.623  -9.236   4.091  0.00  0.00    +0.020 A 
ATOM     12  C   LIG    1        1.948  -8.857   2.945  0.00  0.00    +0.111 A 
ATOM     13  N   LIG    1        1.754  -7.584   2.659  0.00  0.00    -0.263 NA
ATOM     14  C   LIG    1        2.184  -6.621   3.449  0.00  0.00    +0.120 A 
ENDBRANCH   3   9
BRANCH   1  15
ATOM     15  N   LIG    1        2.537  -2.501   4.227  0.00  0.00    -0.237 N 
ATOM     16  H   LIG    1        2.941  -1.971   4.932  0.00  0.00    +0.174 HD
BRANCH  15  20
ATOM     17  C   LIG    1        0.626  -0.619   1.042  0.00  0.00    +0.120 A 
ATOM     18  C   LIG    1        1.202   0.140   2.051  0.00  0.00    +0.047 A 
ATOM     19  C   LIG    1        1.836  -0.482   3.107  0.00  0.00    +0.028 A 
ATOM     20  C   LIG    1        1.896  -1.870   3.160  0.00  0.00    +0.049 A 
ATOM     21  C   LIG    1        1.319  -2.629   2.149  0.00  0.00    +0.028 A 
ATOM     22  C   LIG    1        0.681  -2.004   1.096  0.00  0.00    +0.047 A 
BRANCH  17  24
ATOM     23  C   LIG    1       -0.017   1.425   0.010  0.00  0.00    +0.277 C 
ATOM     24  O   LIG    1        0.002  -0.004   0.002  0.00  0.00    -0.495 OA
ENDBRANCH  17  24
ENDBRANCH  15  20
ENDBRANCH   1  15
TORSDOF 4
