REMARK  Name = ZINC13822447
REMARK                            x       y       z     vdW  Elec       q    Type
REMARK                         _______ _______ _______ _____ _____    ______ ____
ROOT
ATOM      1  C   LIG    1        0.625   3.154  -1.169  0.00  0.00    +0.133 C 
ATOM      2  N   LIG    1        0.943   1.881  -0.518  0.00  0.00    -0.290 N 
ATOM      3  C   LIG    1       -0.039   1.144   0.037  0.00  0.00    +0.247 C 
ATOM      4  O   LIG    1        0.207   0.043   0.488  0.00  0.00    -0.270 OA
ENDROOT
BRANCH   3   5
ATOM      5  C   LIG    1       -1.418   1.673   0.093  0.00  0.00    +0.037 A 
ATOM      6  C   LIG    1       -1.641   3.051   0.060  0.00  0.00    +0.016 A 
ATOM      7  C   LIG    1       -2.929   3.539   0.106  0.00  0.00    +0.039 A 
ATOM      8  C   LIG    1       -4.002   2.665   0.196  0.00  0.00    +0.123 A 
ATOM      9  F   LIG    1       -5.262   3.149   0.246  0.00  0.00    -0.205 F 
ATOM     10  C   LIG    1       -3.785   1.296   0.234  0.00  0.00    +0.039 A 
ATOM     11  C   LIG    1       -2.501   0.797   0.183  0.00  0.00    +0.016 A 
ENDBRANCH   3   5
BRANCH   2  12
ATOM     12  C   LIG    1        2.329   1.407  -0.471  0.00  0.00    +0.228 C 
BRANCH  12  13
ATOM     13  C   LIG    1        2.614   0.567  -1.690  0.00  0.00    +0.322 C 
ATOM     14  O   LIG    1        1.749   0.383  -2.512  0.00  0.00    -0.249 OA
BRANCH  13  15
ATOM     15  O   LIG    1        3.830   0.024  -1.860  0.00  0.00    -0.480 OA
ATOM     16  H   LIG    1        4.501   0.167  -1.222  0.00  0.00    +0.295 HD
ENDBRANCH  13  15
ENDBRANCH  12  13
ENDBRANCH   2  12
TORSDOF 4
