REMARK  Name = ZINC13840554
REMARK                            x       y       z     vdW  Elec       q    Type
REMARK                         _______ _______ _______ _____ _____    ______ ____
ROOT
ATOM      1  C   LIG    1       -0.018   1.479   0.010  0.00  0.00    -0.018 A 
ATOM      2  C   LIG    1       -1.234   2.161   0.020  0.00  0.00    +0.012 A 
ATOM      3  C   LIG    1       -1.249   3.540   0.032  0.00  0.00    +0.046 A 
ATOM      4  C   LIG    1       -0.056   4.249   0.024  0.00  0.00    +0.117 A 
ATOM      5  C   LIG    1        1.157   3.573   0.010  0.00  0.00    +0.046 A 
ATOM      6  C   LIG    1        1.179   2.194   0.003  0.00  0.00    +0.012 A 
ENDROOT
BRANCH   1   9
ATOM      7  C   LIG    1        1.231  -2.067  -0.021  0.00  0.00    +0.003 A 
ATOM      8  C   LIG    1        1.217  -0.687  -0.019  0.00  0.00    +0.009 A 
ATOM      9  C   LIG    1        0.002  -0.004   0.002  0.00  0.00    -0.015 A 
ATOM     10  C   LIG    1       -1.194  -0.719   0.010  0.00  0.00    +0.046 A 
ATOM     11  C   LIG    1       -1.169  -2.101   0.002  0.00  0.00    +0.124 A 
ATOM     12  F   LIG    1       -2.327  -2.797   0.009  0.00  0.00    -0.205 F 
ATOM     13  C   LIG    1        0.043  -2.774  -0.013  0.00  0.00    +0.038 A 
ENDBRANCH   1   9
BRANCH   4  14
ATOM     14  O   LIG    1       -0.074   5.608   0.031  0.00  0.00    -0.507 OA
ATOM     15  H   LIG    1       -0.088   6.005  -0.850  0.00  0.00    +0.292 HD
ENDBRANCH   4  14
TORSDOF 2
