REMARK  Name = ZINC15723528
REMARK                            x       y       z     vdW  Elec       q    Type
REMARK                         _______ _______ _______ _____ _____    ______ ____
ROOT
ATOM      1  C   LIG    1       -0.001  -0.018   0.173  0.00  0.00    +0.241 C 
ATOM      2  N   LIG    1       -1.156  -0.694   0.009  0.00  0.00    -0.282 N 
ATOM      3  H   LIG    1       -1.998  -0.213  -0.030  0.00  0.00    +0.155 HD
ATOM      4  O   LIG    1        1.044  -0.625   0.319  0.00  0.00    -0.270 OA
ENDROOT
BRANCH   2   5
ATOM      5  C   LIG    1       -1.140  -2.084  -0.103  0.00  0.00    +0.034 A 
ATOM      6  C   LIG    1       -0.072  -2.718  -0.730  0.00  0.00    +0.024 A 
ATOM      7  C   LIG    1       -0.051  -4.090  -0.838  0.00  0.00    +0.015 A 
ATOM      8  C   LIG    1       -1.109  -4.846  -0.328  0.00  0.00    +0.037 A 
ATOM      9  C   LIG    1       -2.183  -4.206   0.296  0.00  0.00    +0.015 A 
ATOM     10  C   LIG    1       -2.196  -2.834   0.405  0.00  0.00    +0.024 A 
BRANCH   8  11
ATOM     11  C   LIG    1       -1.092  -6.318  -0.446  0.00  0.00    +0.228 A 
ATOM     12  N   LIG    1       -0.137  -7.015  -1.010  0.00  0.00    -0.209 NA
ATOM     13  C   LIG    1       -0.457  -8.333  -0.936  0.00  0.00    +0.110 A 
ATOM     14  C   LIG    1        0.175  -9.504  -1.361  0.00  0.00    +0.031 A 
ATOM     15  C   LIG    1       -0.421 -10.723  -1.131  0.00  0.00    +0.002 A 
ATOM     16  C   LIG    1       -1.644 -10.796  -0.481  0.00  0.00    +0.004 A 
ATOM     17  C   LIG    1       -2.280  -9.648  -0.056  0.00  0.00    +0.048 A 
ATOM     18  C   LIG    1       -1.695  -8.411  -0.278  0.00  0.00    +0.156 A 
ATOM     19  O   LIG    1       -2.054  -7.141   0.014  0.00  0.00    -0.435 OA
ENDBRANCH   8  11
ENDBRANCH   2   5
BRANCH   1  21
ATOM     20  C   LIG    1        1.159   2.077   0.341  0.00  0.00    +0.051 C 
ATOM     21  C   LIG    1       -0.004   1.396   0.176  0.00  0.00    +0.071 C 
BRANCH  20  25
ATOM     22  C   LIG    1        0.453   5.571   0.249  0.00  0.00    +0.138 A 
ATOM     23  C   LIG    1        1.805   5.623   0.439  0.00  0.00    +0.050 A 
ATOM     24  C   LIG    1        2.263   4.305   0.500  0.00  0.00    +0.050 A 
ATOM     25  C   LIG    1        1.157   3.491   0.343  0.00  0.00    +0.129 A 
ATOM     26  O   LIG    1        0.075   4.282   0.187  0.00  0.00    -0.455 OA
BRANCH  22  31
ATOM     27  C   LIG    1       -1.233   8.852   0.946  0.00  0.00    +0.001 A 
ATOM     28  C   LIG    1       -2.127   8.925  -0.108  0.00  0.00    +0.002 A 
ATOM     29  C   LIG    1       -2.184   7.909  -1.046  0.00  0.00    +0.033 A 
ATOM     30  C   LIG    1       -1.345   6.819  -0.940  0.00  0.00    +0.132 A 
ATOM     31  C   LIG    1       -0.444   6.737   0.125  0.00  0.00    +0.047 A 
ATOM     32  C   LIG    1       -0.392   7.766   1.068  0.00  0.00    +0.014 A 
BRANCH  30  33
ATOM     33  N   LIG    1       -1.403   5.737  -1.948  0.00  0.00    +0.007 N 
ATOM     34  O   LIG    1       -2.188   5.811  -2.876  0.00  0.00    -0.130 OA
BRANCH  33  35
ATOM     35  O   LIG    1       -0.664   4.774  -1.850  0.00  0.00    -0.396 OA
ATOM     36  H   LIG    1       -0.060   4.717  -1.136  0.00  0.00    +0.329 HD
ENDBRANCH  33  35
ENDBRANCH  30  33
ENDBRANCH  22  31
ENDBRANCH  20  25
ENDBRANCH   1  21
TORSDOF 7
