REMARK  Name = ZINC25760037
REMARK                            x       y       z     vdW  Elec       q    Type
REMARK                         _______ _______ _______ _____ _____    ______ ____
ROOT
ATOM      1  N   LIG    1        4.337   3.617   1.345  0.00  0.00    +0.384 N 
ATOM      2  H   LIG    1        4.829   2.986   1.960  0.00  0.00    -0.081 HD
ATOM      3  C   LIG    1        2.950   3.760   1.803  0.00  0.00    -0.059 C 
ATOM      4  C   LIG    1        2.940   4.217   3.265  0.00  0.00    +0.086 C 
ATOM      5  N   LIG    1        3.745   5.444   3.375  0.00  0.00    -0.333 N 
ATOM      6  C   LIG    1        5.096   5.440   2.794  0.00  0.00    +0.086 C 
ATOM      7  C   LIG    1        5.004   4.925   1.354  0.00  0.00    -0.059 C 
ENDROOT
BRANCH   5   8
ATOM      8  C   LIG    1        3.240   6.580   4.014  0.00  0.00    +0.030 A 
ATOM      9  C   LIG    1        1.924   6.602   4.457  0.00  0.00    +0.024 A 
ATOM     10  C   LIG    1        1.428   7.725   5.088  0.00  0.00    +0.022 A 
ATOM     11  C   LIG    1        2.241   8.829   5.279  0.00  0.00    +0.041 A 
ATOM     12 CL   LIG    1        1.614  10.240   6.072  0.00  0.00    -0.084 Cl
ATOM     13  C   LIG    1        3.553   8.810   4.839  0.00  0.00    +0.022 A 
ATOM     14  C   LIG    1        4.056   7.686   4.212  0.00  0.00    +0.024 A 
ENDBRANCH   5   8
BRANCH   1  15
ATOM     15  C   LIG    1        4.347   3.073  -0.020  0.00  0.00    -0.041 C 
BRANCH  15  19
ATOM     16  C   LIG    1       -0.027   1.347   0.063  0.00  0.00    +0.020 A 
ATOM     17  C   LIG    1        1.164   2.049   0.041  0.00  0.00    +0.013 A 
ATOM     18  C   LIG    1        2.355   1.320   0.018  0.00  0.00    +0.020 A 
ATOM     19  C   LIG    1        3.774   1.679  -0.010  0.00  0.00    -0.037 A 
ATOM     20  C   LIG    1        4.467   0.530  -0.025  0.00  0.00    +0.086 A 
ATOM     21  N   LIG    1        3.605  -0.534  -0.009  0.00  0.00    -0.346 N 
ATOM     22  H   LIG    1        3.873  -1.466  -0.015  0.00  0.00    +0.167 HD
ATOM     23  C   LIG    1        2.306  -0.087   0.017  0.00  0.00    +0.138 A 
ATOM     24  N   LIG    1        1.133  -0.707   0.039  0.00  0.00    -0.237 NA
ATOM     25  C   LIG    1       -0.001  -0.039   0.061  0.00  0.00    +0.113 A 
ENDBRANCH  15  19
ENDBRANCH   1  15
TORSDOF 3
