REMARK  Name = ZINC37619334
REMARK                            x       y       z     vdW  Elec       q    Type
REMARK                         _______ _______ _______ _____ _____    ______ ____
ROOT
ATOM      1  C   LIG    1        1.699  -4.030  -2.610  0.00  0.00    +0.203 C 
ATOM      2  N   LIG    1        2.559  -4.589  -1.736  0.00  0.00    -0.287 N 
ATOM      3  H   LIG    1        3.140  -4.027  -1.199  0.00  0.00    +0.155 HD
ATOM      4  O   LIG    1        1.043  -4.732  -3.349  0.00  0.00    -0.277 OA
ENDROOT
BRANCH   2   5
ATOM      5  C   LIG    1        2.616  -5.976  -1.605  0.00  0.00    +0.034 A 
ATOM      6  C   LIG    1        1.462  -6.734  -1.761  0.00  0.00    +0.024 A 
ATOM      7  C   LIG    1        1.504  -8.110  -1.633  0.00  0.00    +0.015 A 
ATOM      8  C   LIG    1        2.708  -8.739  -1.347  0.00  0.00    +0.049 A 
ATOM      9  C   LIG    1        3.882  -7.973  -1.187  0.00  0.00    +0.051 A 
ATOM     10  C   LIG    1        4.960  -8.943  -0.895  0.00  0.00    +0.251 C 
ATOM     11  N   LIG    1        4.431 -10.180  -0.888  0.00  0.00    -0.248 N 
ATOM     12  H   LIG    1        4.936 -10.991  -0.720  0.00  0.00    +0.158 HD
ATOM     13  O   LIG    1        6.125  -8.668  -0.693  0.00  0.00    -0.270 OA
ATOM     14  C   LIG    1        3.112 -10.144  -1.146  0.00  0.00    +0.251 C 
ATOM     15  O   LIG    1        2.375 -11.108  -1.204  0.00  0.00    -0.270 OA
ATOM     16  C   LIG    1        3.832  -6.598  -1.322  0.00  0.00    +0.037 A 
ENDBRANCH   2   5
BRANCH   1  17
ATOM     17  C   LIG    1        1.552  -2.531  -2.668  0.00  0.00    +0.013 C 
BRANCH  17  18
ATOM     18  N   LIG    1        0.962  -2.146  -3.957  0.00  0.00    +0.386 N 
ATOM     19  H   LIG    1        0.055  -2.577  -4.053  0.00  0.00    -0.089 HD
ATOM     20  H   LIG    1        1.562  -2.455  -4.707  0.00  0.00    -0.089 HD
ATOM     21  H   LIG    1        0.864  -1.143  -3.996  0.00  0.00    -0.089 HD
ENDBRANCH  17  18
BRANCH  17  22
ATOM     22  C   LIG    1        0.642  -2.063  -1.530  0.00  0.00    -0.007 C 
BRANCH  22  23
ATOM     23  C   LIG    1        0.593  -0.534  -1.513  0.00  0.00    -0.001 C 
BRANCH  23  25
ATOM     24  C   LIG    1       -0.367   1.463  -0.357  0.00  0.00    +0.004 C 
ATOM     25  C   LIG    1       -0.318  -0.067  -0.375  0.00  0.00    -0.003 C 
ENDBRANCH  23  25
ENDBRANCH  22  23
ENDBRANCH  17  22
ENDBRANCH   1  17
TORSDOF 6
