REMARK  Name = ZINC18115268
REMARK                            x       y       z     vdW  Elec       q    Type
REMARK                         _______ _______ _______ _____ _____    ______ ____
ROOT
ATOM      1  C   LIG    1        1.509   0.426  -4.831  0.00  0.00    +0.106 C 
ENDROOT
BRANCH   1   2
ATOM      2  S   LIG    1        1.698  -0.122  -3.112  0.00  0.00    -0.151 S 
BRANCH   2   3
ATOM      3  C   LIG    1       -0.006  -0.331  -2.527  0.00  0.00    +0.124 C 
BRANCH   3   6
ATOM      4  C   LIG    1       -0.018   1.503   0.010  0.00  0.00    +0.067 C 
ATOM      5  C   LIG    1        0.002  -0.004   0.002  0.00  0.00    +0.060 A 
ATOM      6  C   LIG    1        0.008  -0.789  -1.092  0.00  0.00    +0.048 A 
ATOM      7  N   LIG    1        0.028  -2.085  -0.650  0.00  0.00    -0.347 N 
ATOM      8  C   LIG    1        0.034  -2.046   0.700  0.00  0.00    +0.196 A 
ATOM      9  H   LIG    1        0.037  -2.882  -1.202  0.00  0.00    +0.167 HD
ATOM     10  N   LIG    1        0.024  -0.798   1.083  0.00  0.00    -0.241 NA
ENDBRANCH   3   6
ENDBRANCH   2   3
ENDBRANCH   1   2
BRANCH   1  11
ATOM     11  C   LIG    1        2.890   0.642  -5.452  0.00  0.00    +0.206 C 
BRANCH  11  12
ATOM     12  N   LIG    1        2.737   1.084  -6.841  0.00  0.00    -0.274 N 
ATOM     13  H   LIG    1        1.851   1.194  -7.220  0.00  0.00    +0.258 HD
BRANCH  12  14
ATOM     14  C   LIG    1        3.842   1.341  -7.601  0.00  0.00    +0.397 C 
ATOM     15  N   LIG    1        3.704   1.740  -8.854  0.00  0.00    +0.010 NA
BRANCH  14  16
ATOM     16  N   LIG    1        5.090   1.187  -7.068  0.00  0.00    -0.278 N 
ATOM     17  H   LIG    1        5.191   0.894  -6.148  0.00  0.00    +0.258 HD
ATOM     18  C   LIG    1        6.275   1.463  -7.883  0.00  0.00    +0.239 C 
ENDBRANCH  14  16
BRANCH  15  19
ATOM     19  C   LIG    1        2.466   1.894  -9.383  0.00  0.00    +0.295 C 
ATOM     20  N   LIG    1        1.428   2.023  -9.827  0.00  0.00    -0.151 NA
ENDBRANCH  15  19
ENDBRANCH  12  14
ENDBRANCH  11  12
ENDBRANCH   1  11
TORSDOF 8
