REMARK  Name = ZINC14164617
REMARK                            x       y       z     vdW  Elec       q    Type
REMARK                         _______ _______ _______ _____ _____    ______ ____
ROOT
ATOM      1  C   LIG    1       -2.533   0.328   1.673  0.00  0.00    +0.021 C 
ATOM      2  C   LIG    1       -1.889   0.049   0.314  0.00  0.00    +0.003 C 
ATOM      3  C   LIG    1       -1.816  -1.462   0.084  0.00  0.00    +0.035 C 
ATOM      4  C   LIG    1       -1.173  -1.742  -1.275  0.00  0.00    +0.115 C 
ATOM      5  C   LIG    1        0.239  -1.153  -1.303  0.00  0.00    +0.032 C 
ATOM      6  C   LIG    1        0.167   0.360  -1.073  0.00  0.00    +0.010 C 
ATOM      7  C   LIG    1       -0.475   0.636   0.288  0.00  0.00    -0.026 C 
ATOM      8  C   LIG    1       -0.545   2.146   0.523  0.00  0.00    +0.012 C 
ATOM      9  C   LIG    1        0.363  -0.014   1.389  0.00  0.00    +0.001 C 
ATOM     10  C   LIG    1        1.798   0.499   1.324  0.00  0.00    +0.005 C 
ATOM     11  C   LIG    1        2.646  -0.061   2.478  0.00  0.00    +0.007 C 
ATOM     12  C   LIG    1        1.966   0.337   3.772  0.00  0.00    -0.026 C 
ATOM     13  C   LIG    1        1.765   1.853   3.806  0.00  0.00    +0.012 C 
ATOM     14  C   LIG    1        0.587  -0.376   3.811  0.00  0.00    +0.001 C 
ATOM     15  C   LIG    1        0.159  -0.143   5.264  0.00  0.00    +0.005 C 
ATOM     16  C   LIG    1        1.473  -0.382   6.056  0.00  0.00    +0.004 C 
ATOM     17  C   LIG    1        2.634  -0.123   5.064  0.00  0.00    -0.002 C 
ATOM     18  C   LIG    1       -0.281   0.279   2.753  0.00  0.00    +0.025 C 
ATOM     19  C   LIG    1       -1.691  -0.313   2.779  0.00  0.00    +0.122 C 
ENDROOT
BRANCH   1  21
ATOM     20  C   LIG    1       -4.634   0.124   3.010  0.00  0.00    +0.004 C 
ATOM     21  C   LIG    1       -3.943  -0.263   1.700  0.00  0.00    +0.003 C 
ENDBRANCH   1  21
BRANCH   4  22
ATOM     22  O   LIG    1       -1.105  -3.153  -1.488  0.00  0.00    -0.392 OA
ATOM     23  H   LIG    1       -0.707  -3.405  -2.333  0.00  0.00    +0.210 HD
ENDBRANCH   4  22
BRANCH  17  24
ATOM     24  C   LIG    1        3.558   0.972   5.602  0.00  0.00    -0.010 C 
ATOM     25  C   LIG    1        4.720   1.181   4.630  0.00  0.00    +0.008 C 
BRANCH  24  26
ATOM     26  C   LIG    1        4.104   0.552   6.968  0.00  0.00    +0.014 C 
BRANCH  26  27
ATOM     27  C   LIG    1        4.926   1.698   7.562  0.00  0.00    +0.121 C 
BRANCH  27  28
ATOM     28  C   LIG    1        5.465   1.285   8.907  0.00  0.00    +0.305 C 
ATOM     29  O   LIG    1        5.216   0.187   9.346  0.00  0.00    -0.251 OA
BRANCH  28  30
ATOM     30  O   LIG    1        6.221   2.136   9.618  0.00  0.00    -0.481 OA
ATOM     31  H   LIG    1        6.413   2.988   9.278  0.00  0.00    +0.295 HD
ENDBRANCH  28  30
ENDBRANCH  27  28
ENDBRANCH  26  27
ENDBRANCH  24  26
ENDBRANCH  17  24
BRANCH  19  32
ATOM     32  O   LIG    1       -1.619  -1.724   2.566  0.00  0.00    -0.391 OA
ATOM     33  H   LIG    1       -2.479  -2.166   2.570  0.00  0.00    +0.210 HD
ENDBRANCH  19  32
TORSDOF 8
