REMARK  Name = ZINC18098320
REMARK                            x       y       z     vdW  Elec       q    Type
REMARK                         _______ _______ _______ _____ _____    ______ ____
ROOT
ATOM      1  C   LIG    1       -0.011  -7.247  -4.131  0.00  0.00    +0.003 C 
ENDROOT
BRANCH   1   2
ATOM      2  C   LIG    1        0.439  -7.187  -5.592  0.00  0.00    +0.003 C 
BRANCH   2   3
ATOM      3  C   LIG    1        0.094  -8.506  -6.287  0.00  0.00    +0.037 C 
BRANCH   3   4
ATOM      4  C   LIG    1        0.544  -8.446  -7.748  0.00  0.00    +0.196 C 
BRANCH   4   5
ATOM      5  N   LIG    1        0.214  -9.709  -8.413  0.00  0.00    -0.276 N 
ATOM      6  H   LIG    1       -0.225 -10.418  -7.917  0.00  0.00    +0.258 HD
BRANCH   5   7
ATOM      7  C   LIG    1        0.525  -9.890  -9.740  0.00  0.00    +0.388 C 
ATOM      8  N   LIG    1        1.183  -8.969 -10.385  0.00  0.00    -0.129 NA
ATOM      9  H   LIG    1        1.339  -9.063 -11.338  0.00  0.00    +0.306 HD
BRANCH   7  10
ATOM     10  N   LIG    1        0.142 -11.046 -10.387  0.00  0.00    -0.186 N 
ATOM     11  H   LIG    1        0.425 -11.207 -11.301  0.00  0.00    +0.271 HD
BRANCH  10  12
ATOM     12  C   LIG    1       -0.643 -11.971  -9.737  0.00  0.00    +0.394 C 
ATOM     13  N   LIG    1       -1.072 -11.729  -8.521  0.00  0.00    -0.073 NA
BRANCH  13  14
ATOM     14  C   LIG    1       -1.853 -12.650  -7.873  0.00  0.00    +0.142 A 
ATOM     15  C   LIG    1       -3.042 -13.094  -8.456  0.00  0.00    +0.047 A 
ATOM     16  C   LIG    1       -3.824 -14.021  -7.799  0.00  0.00    +0.023 A 
ATOM     17  C   LIG    1       -3.432 -14.511  -6.565  0.00  0.00    +0.041 A 
ATOM     18 CL   LIG    1       -4.422 -15.678  -5.744  0.00  0.00    -0.084 Cl
ATOM     19  C   LIG    1       -2.255 -14.075  -5.982  0.00  0.00    +0.023 A 
ATOM     20  C   LIG    1       -1.461 -13.152  -6.631  0.00  0.00    +0.047 A 
ENDBRANCH  13  14
BRANCH  12  21
ATOM     21  N   LIG    1       -0.977 -13.147 -10.360  0.00  0.00    -0.288 N 
ATOM     22  H   LIG    1       -0.973 -13.201 -11.329  0.00  0.00    +0.255 HD
ATOM     23  H   LIG    1       -1.218 -13.925  -9.833  0.00  0.00    +0.255 HD
ENDBRANCH  12  21
ENDBRANCH  10  12
ENDBRANCH   7  10
ENDBRANCH   5   7
ENDBRANCH   4   5
ENDBRANCH   3   4
ENDBRANCH   2   3
ENDBRANCH   1   2
BRANCH   1  24
ATOM     24  C   LIG    1        0.334  -5.928  -3.437  0.00  0.00    +0.041 C 
BRANCH  24  25
ATOM     25  C   LIG    1       -0.117  -5.988  -1.976  0.00  0.00    +0.243 C 
BRANCH  25  27
ATOM     26  C   LIG    1       -0.738  -3.937  -0.900  0.00  0.00    +0.388 C 
ATOM     27  N   LIG    1        0.214  -4.725  -1.311  0.00  0.00    -0.113 NA
BRANCH  26  28
ATOM     28  N   LIG    1       -2.050  -4.335  -0.997  0.00  0.00    -0.289 N 
ATOM     29  H   LIG    1       -2.622  -4.318  -0.214  0.00  0.00    +0.255 HD
ATOM     30  H   LIG    1       -2.405  -4.633  -1.849  0.00  0.00    +0.255 HD
ENDBRANCH  26  28
BRANCH  26  31
ATOM     31  N   LIG    1       -0.429  -2.702  -0.367  0.00  0.00    -0.186 N 
ATOM     32  H   LIG    1        0.496  -2.460  -0.210  0.00  0.00    +0.271 HD
BRANCH  31  34
ATOM     33  N   LIG    1       -1.153  -0.690   0.554  0.00  0.00    -0.073 NA
ATOM     34  C   LIG    1       -1.436  -1.815  -0.059  0.00  0.00    +0.394 C 
BRANCH  33  41
ATOM     35  C   LIG    1        0.863   0.606   0.483  0.00  0.00    +0.047 A 
ATOM     36  C   LIG    1        2.144   0.837   0.940  0.00  0.00    +0.023 A 
ATOM     37  C   LIG    1        2.693   0.018   1.912  0.00  0.00    +0.041 A 
ATOM     38 CL   LIG    1        4.306   0.315   2.481  0.00  0.00    -0.084 Cl
ATOM     39  C   LIG    1        1.962  -1.036   2.432  0.00  0.00    +0.023 A 
ATOM     40  C   LIG    1        0.679  -1.276   1.984  0.00  0.00    +0.047 A 
ATOM     41  C   LIG    1        0.120  -0.455   1.004  0.00  0.00    +0.142 A 
ENDBRANCH  33  41
BRANCH  34  42
ATOM     42  N   LIG    1       -2.735  -2.107  -0.392  0.00  0.00    -0.288 N 
ATOM     43  H   LIG    1       -2.930  -2.568  -1.223  0.00  0.00    +0.255 HD
ATOM     44  H   LIG    1       -3.457  -1.851   0.202  0.00  0.00    +0.255 HD
ENDBRANCH  34  42
ENDBRANCH  31  34
ENDBRANCH  26  31
ENDBRANCH  25  27
ENDBRANCH  24  25
ENDBRANCH   1  24
TORSDOF 17
