REMARK  Name = ZINC53172833
REMARK                            x       y       z     vdW  Elec       q    Type
REMARK                         _______ _______ _______ _____ _____    ______ ____
ROOT
ATOM      1  C   LIG    1        6.766  -2.588  -2.026  0.00  0.00    +0.103 C 
ENDROOT
BRANCH   1   5
ATOM      2  N   LIG    1        3.620  -0.649  -0.036  0.00  0.00    -0.327 N 
ATOM      3  C   LIG    1        4.891   0.083  -0.149  0.00  0.00    +0.120 C 
ATOM      4  C   LIG    1        5.711  -0.538  -1.285  0.00  0.00    +0.103 C 
ATOM      5  N   LIG    1        5.844  -1.983  -1.055  0.00  0.00    -0.298 NA
ATOM      6  C   LIG    1        4.536  -2.651  -1.085  0.00  0.00    +0.103 C 
ATOM      7  C   LIG    1        3.668  -2.116   0.065  0.00  0.00    +0.120 C 
BRANCH   2  11
ATOM      8  C   LIG    1       -0.017   1.379   0.011  0.00  0.00    +0.000 A 
ATOM      9  C   LIG    1        0.002  -0.004  -0.011  0.00  0.00    +0.002 A 
ATOM     10  C   LIG    1        1.206  -0.680  -0.027  0.00  0.00    +0.023 A 
ATOM     11  C   LIG    1        2.400   0.031  -0.021  0.00  0.00    +0.030 A 
ATOM     12  C   LIG    1        2.377   1.420   0.002  0.00  0.00    +0.023 A 
ATOM     13  C   LIG    1        1.170   2.089   0.018  0.00  0.00    +0.002 A 
ENDBRANCH   2  11
ENDBRANCH   1   5
BRANCH   1  14
ATOM     14  C   LIG    1        7.073  -4.028  -1.609  0.00  0.00    +0.120 C 
BRANCH  14  15
ATOM     15  N   LIG    1        7.992  -4.631  -2.578  0.00  0.00    -0.310 N 
ATOM     16  H   LIG    1        8.303  -4.114  -3.337  0.00  0.00    +0.149 HD
ATOM     17  C   LIG    1        8.405  -5.903  -2.413  0.00  0.00    +0.244 C 
ATOM     18  O   LIG    1        8.014  -6.550  -1.461  0.00  0.00    -0.270 OA
BRANCH  17  19
ATOM     19  C   LIG    1        9.332  -6.511  -3.390  0.00  0.00    +0.037 A 
ATOM     20  C   LIG    1        9.786  -5.768  -4.481  0.00  0.00    +0.016 A 
ATOM     21  C   LIG    1       10.650  -6.340  -5.389  0.00  0.00    +0.039 A 
ATOM     22  C   LIG    1       11.069  -7.652  -5.221  0.00  0.00    +0.123 A 
ATOM     23  F   LIG    1       11.915  -8.208  -6.115  0.00  0.00    -0.205 F 
ATOM     24  C   LIG    1       10.621  -8.394  -4.139  0.00  0.00    +0.039 A 
ATOM     25  C   LIG    1        9.761  -7.829  -3.221  0.00  0.00    +0.016 A 
ENDBRANCH  17  19
ENDBRANCH  14  15
ENDBRANCH   1  14
TORSDOF 5
