REMARK  Name = ZINC40379914
REMARK                            x       y       z     vdW  Elec       q    Type
REMARK                         _______ _______ _______ _____ _____    ______ ____
ROOT
ATOM      1  C   LIG    1       -0.018   1.503   0.010  0.00  0.00    +0.046 C 
ATOM      2  C   LIG    1        0.002  -0.004   0.002  0.00  0.00    -0.026 A 
ATOM      3  C   LIG    1        0.006  -0.688  -1.194  0.00  0.00    +0.005 A 
ATOM      4  C   LIG    1        0.024  -2.076  -1.216  0.00  0.00    +0.001 A 
ATOM      5  C   LIG    1        0.039  -2.788  -0.050  0.00  0.00    +0.010 A 
ATOM      6  C   LIG    1        0.036  -2.115   1.177  0.00  0.00    +0.002 A 
ATOM      7  C   LIG    1        0.051  -2.859   2.438  0.00  0.00    +0.061 A 
ATOM      8  C   LIG    1        0.065  -2.163   3.605  0.00  0.00    +0.182 A 
ATOM      9  C   LIG    1        0.045  -0.702   3.575  0.00  0.00    +0.291 A 
ATOM     10  O   LIG    1        0.046  -0.079   4.622  0.00  0.00    -0.264 OA
ATOM     11  N   LIG    1        0.025  -0.036   2.407  0.00  0.00    -0.319 N 
ATOM     12  H   LIG    1        0.012   0.934   2.412  0.00  0.00    +0.169 HD
ATOM     13  C   LIG    1        0.023  -0.708   1.202  0.00  0.00    +0.052 A 
ENDROOT
BRANCH   8  14
ATOM     14  O   LIG    1        0.084  -2.823   4.794  0.00  0.00    -0.502 OA
ATOM     15  H   LIG    1        0.084  -2.241   5.567  0.00  0.00    +0.292 HD
ENDBRANCH   8  14
TORSDOF 1
