REMARK  Name = ZINC34375693
REMARK                            x       y       z     vdW  Elec       q    Type
REMARK                         _______ _______ _______ _____ _____    ______ ____
ROOT
ATOM      1  C   LIG    1       -2.806  -3.435   4.783  0.00  0.00    +0.063 C 
ATOM      2  C   LIG    1       -2.042  -3.624   3.498  0.00  0.00    +0.015 A 
ATOM      3  C   LIG    1       -2.548  -3.105   2.358  0.00  0.00    +0.044 A 
ATOM      4  C   LIG    1       -1.855  -3.265   1.137  0.00  0.00    +0.045 A 
ATOM      5  N   LIG    1       -2.339  -2.761  -0.002  0.00  0.00    -0.269 N 
ATOM      6  H   LIG    1       -1.813  -2.810  -0.815  0.00  0.00    +0.156 HD
ATOM      7  C   LIG    1       -3.546  -2.190  -0.020  0.00  0.00    +0.304 C 
ATOM      8  N   LIG    1       -4.654  -2.955   0.019  0.00  0.00    -0.301 N 
ATOM      9  H   LIG    1       -4.575  -3.921   0.060  0.00  0.00    +0.150 HD
ATOM     10  O   LIG    1       -3.645  -0.976  -0.072  0.00  0.00    -0.253 OA
ATOM     11  C   LIG    1       -0.583  -4.006   1.162  0.00  0.00    +0.020 A 
ATOM     12  C   LIG    1        0.165  -4.209   0.002  0.00  0.00    +0.012 A 
ATOM     13  C   LIG    1        1.341  -4.902   0.067  0.00  0.00    +0.001 A 
ATOM     14  C   LIG    1        1.797  -5.405   1.278  0.00  0.00    +0.002 A 
ATOM     15  C   LIG    1        1.074  -5.216   2.436  0.00  0.00    +0.026 A 
ATOM     16  C   LIG    1       -0.127  -4.513   2.392  0.00  0.00    +0.048 A 
ATOM     17  N   LIG    1       -0.870  -4.302   3.531  0.00  0.00    -0.358 N 
ATOM     18  H   LIG    1       -0.548  -4.651   4.377  0.00  0.00    +0.166 HD
ENDROOT
BRANCH   8  19
ATOM     19  C   LIG    1       -5.979  -2.329  -0.001  0.00  0.00    +0.087 C 
BRANCH  19  20
ATOM     20  C   LIG    1       -7.057  -3.413   0.052  0.00  0.00    -0.060 C 
BRANCH  20  21
ATOM     21  N   LIG    1       -8.384  -2.785   0.031  0.00  0.00    +0.381 N 
ATOM     22  H   LIG    1       -8.451  -2.117   0.784  0.00  0.00    -0.082 HD
ATOM     23  C   LIG    1       -8.578  -2.095  -1.250  0.00  0.00    -0.076 C 
ATOM     24  C   LIG    1       -9.926  -1.371  -1.244  0.00  0.00    +0.016 C 
ATOM     25  C   LIG    1      -11.048  -2.393  -1.039  0.00  0.00    +0.067 C 
ATOM     26  C   LIG    1      -10.795  -3.159   0.263  0.00  0.00    +0.016 C 
ATOM     27  C   LIG    1       -9.415  -3.816   0.202  0.00  0.00    -0.076 C 
BRANCH  25  28
ATOM     28  O   LIG    1      -11.066  -3.309  -2.135  0.00  0.00    -0.388 OA
ATOM     29  H   LIG    1      -11.754  -3.986  -2.071  0.00  0.00    +0.210 HD
ENDBRANCH  25  28
BRANCH  25  30
ATOM     30  C   LIG    1      -12.392  -1.668  -0.953  0.00  0.00    +0.069 C 
BRANCH  30  31
ATOM     31  C   LIG    1      -13.479  -2.660  -0.629  0.00  0.00    -0.045 A 
ATOM     32  C   LIG    1      -14.150  -3.308  -1.649  0.00  0.00    +0.004 A 
ATOM     33  C   LIG    1      -15.146  -4.219  -1.351  0.00  0.00    +0.000 A 
ATOM     34  C   LIG    1      -15.472  -4.481  -0.034  0.00  0.00    +0.000 A 
ATOM     35  C   LIG    1      -14.800  -3.833   0.986  0.00  0.00    +0.000 A 
ATOM     36  C   LIG    1      -13.801  -2.926   0.689  0.00  0.00    +0.004 A 
ENDBRANCH  30  31
ENDBRANCH  25  30
ENDBRANCH  20  21
ENDBRANCH  19  20
ENDBRANCH   8  19
TORSDOF 6
