REMARK  Name = ZINC28896422
REMARK                            x       y       z     vdW  Elec       q    Type
REMARK                         _______ _______ _______ _____ _____    ______ ____
ROOT
ATOM      1  C   LIG    1       -0.923   1.400   3.698  0.00  0.00    +0.000 C 
ATOM      2  C   LIG    1       -0.840   2.927   3.764  0.00  0.00    +0.000 C 
ATOM      3  C   LIG    1       -1.523   3.526   2.533  0.00  0.00    +0.005 C 
ATOM      4  C   LIG    1       -0.820   3.034   1.266  0.00  0.00    +0.010 C 
ATOM      5  C   LIG    1       -1.519   3.630   0.040  0.00  0.00    +0.111 C 
ATOM      6  N   LIG    1       -0.928   3.049  -1.173  0.00  0.00    -0.301 N 
ATOM      7  C   LIG    1       -0.448   3.842  -2.151  0.00  0.00    +0.222 C 
ATOM      8  O   LIG    1       -0.588   5.045  -2.080  0.00  0.00    -0.275 OA
ATOM      9  C   LIG    1       -0.871   1.587  -1.298  0.00  0.00    +0.108 C 
ATOM     10  C   LIG    1       -0.175   1.014  -0.059  0.00  0.00    +0.023 C 
ATOM     11  C   LIG    1       -0.893   1.507   1.200  0.00  0.00    -0.005 C 
ATOM     12  C   LIG    1       -0.215   0.908   2.434  0.00  0.00    +0.004 C 
ENDROOT
BRANCH   7  13
ATOM     13  C   LIG    1        0.263   3.235  -3.333  0.00  0.00    +0.048 C 
ATOM     14  C   LIG    1        1.462   2.420  -2.843  0.00  0.00    +0.019 C 
ATOM     15  C   LIG    1        2.183   1.803  -4.043  0.00  0.00    -0.009 C 
ATOM     16  C   LIG    1        2.669   2.916  -4.974  0.00  0.00    +0.007 C 
ATOM     17  C   LIG    1        1.470   3.731  -5.463  0.00  0.00    -0.009 C 
ATOM     18  C   LIG    1        0.507   2.816  -6.222  0.00  0.00    +0.007 C 
ATOM     19  C   LIG    1        0.021   1.703  -5.291  0.00  0.00    -0.009 C 
ATOM     20  C   LIG    1        1.220   0.888  -4.802  0.00  0.00    +0.007 C 
ATOM     21  C   LIG    1       -0.700   2.320  -4.091  0.00  0.00    +0.019 C 
ATOM     22  C   LIG    1        0.748   4.348  -4.263  0.00  0.00    +0.019 C 
ENDBRANCH   7  13
TORSDOF 1
