REMARK  Name = ZINC28956968
REMARK                            x       y       z     vdW  Elec       q    Type
REMARK                         _______ _______ _______ _____ _____    ______ ____
ROOT
ATOM      1  C   LIG    1        7.439  -0.363  -0.073  0.00  0.00    +0.066 C 
ATOM      2  C   LIG    1        5.977  -0.732  -0.061  0.00  0.00    +0.046 A 
ATOM      3  C   LIG    1        4.921   0.146  -0.045  0.00  0.00    +0.087 A 
ATOM      4  C   LIG    1        3.699  -0.671  -0.037  0.00  0.00    +0.107 A 
ATOM      5  N   LIG    1        4.076  -1.923  -0.048  0.00  0.00    -0.173 NA
ATOM      6  C   LIG    1        2.401   0.034  -0.021  0.00  0.00    +0.028 A 
ATOM      7  C   LIG    1        1.206  -0.679  -0.013  0.00  0.00    +0.032 A 
ATOM      8  C   LIG    1        0.002  -0.004   0.002  0.00  0.00    +0.042 A 
ATOM      9 CL   LIG    1       -1.490  -0.891   0.012  0.00  0.00    -0.084 Cl
ATOM     10  C   LIG    1       -0.017   1.382   0.010  0.00  0.00    +0.022 A 
ATOM     11  C   LIG    1        1.161   2.099   0.002  0.00  0.00    +0.028 A 
ATOM     12  C   LIG    1        2.385   1.436  -0.013  0.00  0.00    +0.051 A 
ATOM     13  N   LIG    1        3.561   2.171  -0.022  0.00  0.00    -0.321 N 
ATOM     14  H   LIG    1        3.523   3.271  -0.017  0.00  0.00    +0.169 HD
ATOM     15  C   LIG    1        4.781   1.606  -0.036  0.00  0.00    +0.260 A 
ATOM     16  O   LIG    1        5.774   2.310  -0.043  0.00  0.00    -0.267 OA
ATOM     17  N   LIG    1        5.475  -1.977  -0.063  0.00  0.00    -0.281 N 
ATOM     18  H   LIG    1        6.153  -2.844  -0.075  0.00  0.00    +0.189 HD
ENDROOT
TORSDOF 0
