REMARK  Name = ZINC40423330
REMARK                            x       y       z     vdW  Elec       q    Type
REMARK                         _______ _______ _______ _____ _____    ______ ____
ROOT
ATOM      1  N   LIG    1       -2.380  -0.860  -0.849  0.00  0.00    +0.384 N 
ATOM      2  H   LIG    1       -1.501  -1.209  -1.202  0.00  0.00    -0.081 HD
ATOM      3  C   LIG    1       -2.696   0.414  -1.506  0.00  0.00    -0.059 C 
ATOM      4  C   LIG    1       -2.694   0.219  -3.025  0.00  0.00    +0.089 C 
ATOM      5  N   LIG    1       -3.616  -0.879  -3.355  0.00  0.00    -0.301 N 
ATOM      6  C   LIG    1       -4.564  -0.728  -4.301  0.00  0.00    +0.246 C 
ATOM      7  O   LIG    1       -5.271  -1.667  -4.609  0.00  0.00    -0.270 OA
ATOM      8  C   LIG    1       -3.474  -2.147  -2.623  0.00  0.00    +0.089 C 
ATOM      9  C   LIG    1       -3.439  -1.840  -1.122  0.00  0.00    -0.059 C 
ENDROOT
BRANCH   6  10
ATOM     10  C   LIG    1       -4.744   0.581  -4.964  0.00  0.00    +0.037 A 
ATOM     11  C   LIG    1       -3.640   1.264  -5.478  0.00  0.00    +0.014 A 
ATOM     12  C   LIG    1       -3.814   2.484  -6.096  0.00  0.00    +0.021 A 
ATOM     13  C   LIG    1       -5.080   3.033  -6.207  0.00  0.00    +0.041 A 
ATOM     14 CL   LIG    1       -5.292   4.570  -6.986  0.00  0.00    -0.084 Cl
ATOM     15  C   LIG    1       -6.180   2.360  -5.699  0.00  0.00    +0.021 A 
ATOM     16  C   LIG    1       -6.019   1.136  -5.084  0.00  0.00    +0.014 A 
ENDBRANCH   6  10
BRANCH   1  17
ATOM     17  C   LIG    1       -2.273  -0.649   0.601  0.00  0.00    -0.043 C 
BRANCH  17  23
ATOM     18  C   LIG    1       -1.296   1.630   0.939  0.00  0.00    +0.004 A 
ATOM     19  C   LIG    1       -0.229   2.467   1.205  0.00  0.00    +0.026 A 
ATOM     20  C   LIG    1        1.033   1.932   1.425  0.00  0.00    +0.047 A 
ATOM     21  C   LIG    1        1.219   0.557   1.377  0.00  0.00    +0.026 A 
ATOM     22  C   LIG    1        0.149  -0.274   1.110  0.00  0.00    +0.004 A 
ATOM     23  C   LIG    1       -1.107   0.261   0.891  0.00  0.00    -0.064 A 
BRANCH  20  24
ATOM     24  N   LIG    1        2.117   2.779   1.694  0.00  0.00    -0.307 N 
ATOM     25  C   LIG    1        2.082   4.147   1.778  0.00  0.00    +0.110 A 
ATOM     26  C   LIG    1        3.336   4.553   2.053  0.00  0.00    +0.102 A 
ATOM     27  N   LIG    1        4.120   3.467   2.135  0.00  0.00    -0.352 N 
ATOM     28  H   LIG    1        5.071   3.475   2.324  0.00  0.00    +0.166 HD
ATOM     29  C   LIG    1        3.400   2.398   1.928  0.00  0.00    +0.178 A 
ENDBRANCH  20  24
ENDBRANCH  17  23
ENDBRANCH   1  17
TORSDOF 4
