REMARK  Name = ZINC22204865
REMARK                            x       y       z     vdW  Elec       q    Type
REMARK                         _______ _______ _______ _____ _____    ______ ____
ROOT
ATOM      1  N   LIG    1        4.643   2.029  -2.795  0.00  0.00    -0.224 N 
ATOM      2  C   LIG    1        5.008   3.040  -1.982  0.00  0.00    +0.244 C 
ATOM      3  C   LIG    1        4.168   2.889  -0.729  0.00  0.00    +0.169 C 
ATOM      4  C   LIG    1        5.062   2.634   0.490  0.00  0.00    +0.069 C 
ATOM      5  C   LIG    1        4.273   1.893   1.541  0.00  0.00    -0.015 A 
ATOM      6  C   LIG    1        4.573   1.789   2.957  0.00  0.00    +0.003 A 
ATOM      7  C   LIG    1        5.606   2.307   3.744  0.00  0.00    +0.010 A 
ATOM      8  C   LIG    1        5.579   2.000   5.083  0.00  0.00    +0.001 A 
ATOM      9  C   LIG    1        4.582   1.215   5.637  0.00  0.00    +0.002 A 
ATOM     10  C   LIG    1        3.548   0.691   4.881  0.00  0.00    +0.026 A 
ATOM     11  C   LIG    1        3.549   0.986   3.519  0.00  0.00    +0.047 A 
ATOM     12  N   LIG    1        2.700   0.643   2.507  0.00  0.00    -0.356 N 
ATOM     13  H   LIG    1        1.807   0.037   2.719  0.00  0.00    +0.166 HD
ATOM     14  C   LIG    1        3.174   1.171   1.331  0.00  0.00    +0.046 A 
ATOM     15  C   LIG    1        2.490   1.045  -0.016  0.00  0.00    +0.155 C 
ATOM     16  N   LIG    1        3.397   1.654  -0.996  0.00  0.00    -0.261 N 
ATOM     17  O   LIG    1        5.838   3.896  -2.206  0.00  0.00    -0.273 OA
ATOM     18  C   LIG    1        3.707   1.252  -2.231  0.00  0.00    +0.313 C 
ATOM     19  O   LIG    1        3.200   0.293  -2.779  0.00  0.00    -0.252 OA
ENDROOT
BRANCH  15  20
ATOM     20  C   LIG    1        1.176   1.783   0.000  0.00  0.00    -0.021 A 
ATOM     21  C   LIG    1       -0.010   1.083  -0.121  0.00  0.00    +0.009 A 
ATOM     22  C   LIG    1       -1.216   1.757  -0.112  0.00  0.00    +0.046 A 
ATOM     23  C   LIG    1       -1.237   3.137   0.031  0.00  0.00    +0.120 A 
ATOM     24  C   LIG    1       -0.045   3.837   0.152  0.00  0.00    +0.046 A 
ATOM     25  C   LIG    1        1.158   3.159   0.137  0.00  0.00    +0.009 A 
BRANCH  23  26
ATOM     26  O   LIG    1       -2.422   3.802   0.045  0.00  0.00    -0.495 OA
ATOM     27  C   LIG    1       -3.608   3.016  -0.085  0.00  0.00    +0.277 C 
ENDBRANCH  23  26
ENDBRANCH  15  20
BRANCH   1  28
ATOM     28  C   LIG    1        5.200   1.806  -4.131  0.00  0.00    +0.118 C 
BRANCH  28  29
ATOM     29  C   LIG    1        6.427   0.897  -4.027  0.00  0.00    +0.019 C 
BRANCH  29  31
ATOM     30  C   LIG    1        8.236  -0.243  -5.319  0.00  0.00    +0.004 C 
ATOM     31  C   LIG    1        7.009   0.665  -5.423  0.00  0.00    -0.002 C 
ENDBRANCH  29  31
ENDBRANCH  28  29
ENDBRANCH   1  28
TORSDOF 5
