REMARK  Name = ZINC24687750
REMARK                            x       y       z     vdW  Elec       q    Type
REMARK                         _______ _______ _______ _____ _____    ______ ____
ROOT
ATOM      1  C   LIG    1        7.152   4.061   2.964  0.00  0.00    -0.046 A 
ATOM      2  C   LIG    1        8.353   3.462   2.631  0.00  0.00    +0.007 A 
ATOM      3  C   LIG    1        9.520   4.201   2.635  0.00  0.00    +0.049 A 
ATOM      4  C   LIG    1        9.486   5.547   2.974  0.00  0.00    +0.119 A 
ATOM      5  C   LIG    1        8.278   6.146   3.308  0.00  0.00    +0.049 A 
ATOM      6  C   LIG    1        7.114   5.402   3.297  0.00  0.00    +0.007 A 
ENDROOT
BRANCH   4   7
ATOM      7  N   LIG    1       10.665   6.298   2.979  0.00  0.00    -0.203 N 
ATOM      8  H   LIG    1       10.819   6.955   3.677  0.00  0.00    +0.298 HD
BRANCH   7   9
ATOM      9  C   LIG    1       11.611   6.105   1.992  0.00  0.00    +0.280 C 
ATOM     10  N   LIG    1       11.355   5.308   0.988  0.00  0.00    -0.288 N 
ATOM     11  H   LIG    1       10.471   4.923   0.888  0.00  0.00    +0.301 HD
ATOM     12  H   LIG    1       12.050   5.102   0.344  0.00  0.00    +0.301 HD
BRANCH   9  13
ATOM     13  C   LIG    1       12.907   6.797   2.070  0.00  0.00    +0.099 A 
ATOM     14  C   LIG    1       14.141   6.394   1.590  0.00  0.00    +0.023 A 
ATOM     15  C   LIG    1       15.184   7.263   1.816  0.00  0.00    +0.008 A 
ATOM     16  C   LIG    1       14.943   8.423   2.473  0.00  0.00    +0.046 A 
ATOM     17  S   LIG    1       13.296   8.376   2.799  0.00  0.00    -0.089 S 
ENDBRANCH   9  13
ENDBRANCH   7   9
ENDBRANCH   4   7
BRANCH   1  18
ATOM     18  C   LIG    1        5.881   3.251   2.959  0.00  0.00    +0.050 C 
BRANCH  18  19
ATOM     19  C   LIG    1        5.242   3.315   1.571  0.00  0.00    +0.086 C 
BRANCH  19  20
ATOM     20  N   LIG    1        4.003   2.525   1.565  0.00  0.00    -0.312 NA
ATOM     21  H   LIG    1        3.370   2.841   2.285  0.00  0.00    +0.122 HD
BRANCH  20  22
ATOM     22  C   LIG    1        3.360   2.563   0.245  0.00  0.00    +0.116 C 
BRANCH  22  25
ATOM     23  C   LIG    1       -0.265   1.589   0.654  0.00  0.00    +0.002 A 
ATOM     24  C   LIG    1        0.896   2.339   0.623  0.00  0.00    +0.005 A 
ATOM     25  C   LIG    1        2.095   1.745   0.279  0.00  0.00    -0.032 A 
ATOM     26  C   LIG    1        2.135   0.399  -0.036  0.00  0.00    +0.025 A 
ATOM     27  C   LIG    1        0.974  -0.352  -0.006  0.00  0.00    +0.041 A 
ATOM     28 CL   LIG    1        1.022  -2.042  -0.402  0.00  0.00    -0.084 Cl
ATOM     29  C   LIG    1       -0.227   0.244   0.340  0.00  0.00    +0.020 A 
ENDBRANCH  22  25
ENDBRANCH  20  22
ENDBRANCH  19  20
ENDBRANCH  18  19
ENDBRANCH   1  18
TORSDOF 8
