REMARK  Name = ZINC00056555
REMARK                            x       y       z     vdW  Elec       q    Type
REMARK                         _______ _______ _______ _____ _____    ______ ____
ROOT
ATOM      1  C   LIG    1        1.595  -2.800   5.419  0.00  0.00    +0.053 A 
ATOM      2  C   LIG    1        1.387  -1.831   6.413  0.00  0.00    +0.007 A 
ATOM      3  C   LIG    1        2.081  -0.610   6.418  0.00  0.00    +0.059 A 
ATOM      4  C   LIG    1        1.840   0.298   7.407  0.00  0.00    +0.162 A 
ATOM      5  C   LIG    1        0.907   0.028   8.421  0.00  0.00    +0.162 A 
ATOM      6  C   LIG    1        0.216  -1.150   8.442  0.00  0.00    +0.058 A 
ATOM      7  C   LIG    1        0.443  -2.102   7.438  0.00  0.00    -0.011 A 
ATOM      8  C   LIG    1       -0.238  -3.332   7.407  0.00  0.00    +0.028 A 
ATOM      9  C   LIG    1        0.036  -4.206   6.399  0.00  0.00    +0.111 A 
ATOM     10  N   LIG    1        0.919  -3.925   5.450  0.00  0.00    -0.259 NA
ENDROOT
BRANCH   4  11
ATOM     11  O   LIG    1        2.512   1.479   7.412  0.00  0.00    -0.491 OA
ATOM     12  C   LIG    1        3.449   1.696   6.355  0.00  0.00    +0.277 C 
ENDBRANCH   4  11
BRANCH   5  13
ATOM     13  O   LIG    1        0.688   0.952   9.393  0.00  0.00    -0.491 OA
ATOM     14  C   LIG    1       -0.273   0.621  10.398  0.00  0.00    +0.277 C 
ENDBRANCH   5  13
BRANCH   1  15
ATOM     15  C   LIG    1        2.590  -2.548   4.315  0.00  0.00    +0.091 C 
BRANCH  15  19
ATOM     16  C   LIG    1        0.626  -0.619   1.042  0.00  0.00    +0.161 A 
ATOM     17  C   LIG    1        1.202   0.137   2.051  0.00  0.00    +0.049 A 
ATOM     18  C   LIG    1        1.836  -0.490   3.108  0.00  0.00    +0.008 A 
ATOM     19  C   LIG    1        1.897  -1.870   3.161  0.00  0.00    -0.038 A 
ATOM     20  C   LIG    1        1.325  -2.630   2.158  0.00  0.00    +0.053 A 
ATOM     21  C   LIG    1        0.683  -2.008   1.099  0.00  0.00    +0.162 A 
BRANCH  16  23
ATOM     22  C   LIG    1       -0.017   1.425   0.010  0.00  0.00    +0.277 C 
ATOM     23  O   LIG    1        0.002  -0.004   0.002  0.00  0.00    -0.491 OA
ENDBRANCH  16  23
BRANCH  21  24
ATOM     24  O   LIG    1        0.115  -2.754   0.114  0.00  0.00    -0.491 OA
ATOM     25  C   LIG    1        0.211  -4.174   0.238  0.00  0.00    +0.277 C 
ENDBRANCH  21  24
ENDBRANCH  15  19
ENDBRANCH   1  15
TORSDOF 6
