REMARK  Name = ZINC13780521
REMARK                            x       y       z     vdW  Elec       q    Type
REMARK                         _______ _______ _______ _____ _____    ______ ____
ROOT
ATOM      1  C   LIG    1        3.373   5.026   3.263  0.00  0.00    +0.120 A 
ATOM      2  C   LIG    1        3.318   3.655   3.471  0.00  0.00    +0.046 A 
ATOM      3  C   LIG    1        3.302   2.800   2.391  0.00  0.00    +0.008 A 
ATOM      4  C   LIG    1        3.340   3.297   1.094  0.00  0.00    -0.036 A 
ATOM      5  C   LIG    1        3.400   4.657   0.885  0.00  0.00    -0.040 A 
ATOM      6  C   LIG    1        3.459   5.264  -0.493  0.00  0.00    +0.036 C 
ATOM      7  C   LIG    1        3.007   4.253  -1.545  0.00  0.00    +0.014 C 
ATOM      8  C   LIG    1        3.793   2.953  -1.335  0.00  0.00    +0.031 C 
ATOM      9  C   LIG    1        3.313   2.304  -0.038  0.00  0.00    +0.057 C 
ATOM     10  C   LIG    1        3.413   5.521   1.971  0.00  0.00    +0.049 A 
ENDROOT
BRANCH   8  11
ATOM     11  C   LIG    1        3.547   2.019  -2.492  0.00  0.00    -0.043 A 
ATOM     12  C   LIG    1        4.585   1.261  -3.001  0.00  0.00    +0.004 A 
ATOM     13  C   LIG    1        4.358   0.401  -4.059  0.00  0.00    +0.000 A 
ATOM     14  C   LIG    1        3.096   0.306  -4.614  0.00  0.00    +0.000 A 
ATOM     15  C   LIG    1        2.059   1.068  -4.109  0.00  0.00    +0.000 A 
ATOM     16  C   LIG    1        2.284   1.925  -3.047  0.00  0.00    +0.004 A 
ENDBRANCH   8  11
BRANCH   9  17
ATOM     17  C   LIG    1        1.905   1.802  -0.226  0.00  0.00    -0.039 A 
ATOM     18  C   LIG    1        0.841   2.680  -0.131  0.00  0.00    +0.008 A 
ATOM     19  C   LIG    1       -0.452   2.223  -0.301  0.00  0.00    +0.046 A 
ATOM     20  C   LIG    1       -0.682   0.881  -0.568  0.00  0.00    +0.120 A 
ATOM     21  C   LIG    1        0.388   0.002  -0.662  0.00  0.00    +0.046 A 
ATOM     22  C   LIG    1        1.678   0.464  -0.491  0.00  0.00    +0.008 A 
BRANCH  20  23
ATOM     23  O   LIG    1       -1.952   0.428  -0.735  0.00  0.00    -0.494 OA
BRANCH  23  24
ATOM     24  C   LIG    1       -2.114  -0.965  -1.007  0.00  0.00    +0.210 C 
BRANCH  24  25
ATOM     25  C   LIG    1       -3.602  -1.285  -1.163  0.00  0.00    -0.037 C 
BRANCH  25  26
ATOM     26  N   LIG    1       -4.140  -0.594  -2.373  0.00  0.00    +0.382 N 
ATOM     27  H   LIG    1       -4.153   0.419  -2.204  0.00  0.00    -0.082 HD
ATOM     28  C   LIG    1       -5.494  -1.063  -2.670  0.00  0.00    -0.079 C 
ATOM     29  C   LIG    1       -5.631  -1.034  -4.204  0.00  0.00    -0.020 C 
ATOM     30  C   LIG    1       -4.256  -0.554  -4.723  0.00  0.00    -0.020 C 
ATOM     31  C   LIG    1       -3.305  -0.891  -3.547  0.00  0.00    -0.079 C 
ENDBRANCH  25  26
ENDBRANCH  24  25
ENDBRANCH  23  24
ENDBRANCH  20  23
ENDBRANCH   9  17
BRANCH   1  33
ATOM     32  C   LIG    1        3.343   5.293   5.625  0.00  0.00    +0.277 C 
ATOM     33  O   LIG    1        3.386   5.877   4.322  0.00  0.00    -0.495 OA
ENDBRANCH   1  33
TORSDOF 7
