REMARK  Name = ZINC49033748
REMARK                            x       y       z     vdW  Elec       q    Type
REMARK                         _______ _______ _______ _____ _____    ______ ____
ROOT
ATOM      1  C   LIG    1        3.683  -0.718  -0.077  0.00  0.00    +0.123 A 
ATOM      2  C   LIG    1        4.028  -1.911   0.707  0.00  0.00    +0.068 A 
ATOM      3  C   LIG    1        5.329  -2.198   0.436  0.00  0.00    +0.131 A 
ATOM      4  O   LIG    1        5.789  -1.290  -0.432  0.00  0.00    -0.360 OA
ATOM      5  N   LIG    1        4.755  -0.378  -0.748  0.00  0.00    -0.077 NA
ENDROOT
BRANCH   1   9
ATOM      6  C   LIG    1       -0.086   1.250  -0.164  0.00  0.00    +0.000 A 
ATOM      7  C   LIG    1        0.426   0.793   1.037  0.00  0.00    +0.001 A 
ATOM      8  C   LIG    1        1.648   0.154   1.071  0.00  0.00    +0.010 A 
ATOM      9  C   LIG    1        2.368  -0.032  -0.107  0.00  0.00    +0.004 A 
ATOM     10  C   LIG    1        1.848   0.430  -1.315  0.00  0.00    +0.010 A 
ATOM     11  C   LIG    1        0.625   1.068  -1.337  0.00  0.00    +0.001 A 
ENDBRANCH   1   9
BRANCH   2  12
ATOM     12  C   LIG    1        3.131  -2.658   1.617  0.00  0.00    +0.081 A 
ATOM     13  C   LIG    1        1.844  -3.020   1.207  0.00  0.00    +0.048 A 
ATOM     14  C   LIG    1        1.042  -3.717   2.092  0.00  0.00    +0.116 A 
ATOM     15  N   LIG    1        1.512  -4.019   3.293  0.00  0.00    -0.223 NA
ATOM     16  C   LIG    1        2.736  -3.664   3.655  0.00  0.00    +0.216 A 
ATOM     17  N   LIG    1        3.539  -3.001   2.838  0.00  0.00    -0.214 NA
BRANCH  16  18
ATOM     18  N   LIG    1        3.189  -3.999   4.920  0.00  0.00    -0.311 N 
ATOM     19  H   LIG    1        4.082  -3.745   5.198  0.00  0.00    +0.149 HD
BRANCH  18  20
ATOM     20  C   LIG    1        2.318  -4.737   5.838  0.00  0.00    +0.073 C 
ATOM     21  C   LIG    1        1.411  -3.755   6.582  0.00  0.00    +0.022 C 
ATOM     22  C   LIG    1        0.502  -4.526   7.541  0.00  0.00    +0.002 C 
ATOM     23  C   LIG    1        1.358  -5.295   8.549  0.00  0.00    +0.000 C 
ATOM     24  C   LIG    1        2.264  -6.277   7.804  0.00  0.00    +0.002 C 
ATOM     25  C   LIG    1        3.174  -5.506   6.846  0.00  0.00    +0.022 C 
ENDBRANCH  18  20
ENDBRANCH  16  18
ENDBRANCH   2  12
BRANCH   3  26
ATOM     26  C   LIG    1        6.119  -3.343   1.016  0.00  0.00    +0.000 C 
BRANCH  26  27
ATOM     27  N   LIG    1        5.979  -4.522   0.152  0.00  0.00    +0.384 N 
ATOM     28  H   LIG    1        6.252  -4.283  -0.789  0.00  0.00    -0.081 HD
ATOM     29  C   LIG    1        4.579  -4.965   0.154  0.00  0.00    -0.078 C 
ATOM     30  C   LIG    1        4.411  -6.143  -0.808  0.00  0.00    -0.019 C 
ATOM     31  C   LIG    1        5.313  -7.296  -0.356  0.00  0.00    -0.004 C 
ATOM     32  C   LIG    1        6.761  -6.802  -0.291  0.00  0.00    -0.019 C 
ATOM     33  C   LIG    1        6.842  -5.599   0.652  0.00  0.00    -0.078 C 
ENDBRANCH  26  27
ENDBRANCH   3  26
TORSDOF 6
