REMARK  Name = ZINC18098320
REMARK                            x       y       z     vdW  Elec       q    Type
REMARK                         _______ _______ _______ _____ _____    ______ ____
ROOT
ATOM      1  C   LIG    1        7.298  -8.599  -4.125  0.00  0.00    +0.003 C 
ENDROOT
BRANCH   1   2
ATOM      2  C   LIG    1        6.159  -7.990  -4.946  0.00  0.00    +0.003 C 
BRANCH   2   3
ATOM      3  C   LIG    1        4.828  -8.237  -4.234  0.00  0.00    +0.037 C 
BRANCH   3   4
ATOM      4  C   LIG    1        3.690  -7.628  -5.054  0.00  0.00    +0.196 C 
BRANCH   4   5
ATOM      5  N   LIG    1        2.415  -7.864  -4.372  0.00  0.00    -0.276 N 
ATOM      6  H   LIG    1        2.397  -8.345  -3.530  0.00  0.00    +0.258 HD
BRANCH   5   7
ATOM      7  C   LIG    1        1.244  -7.405  -4.926  0.00  0.00    +0.388 C 
ATOM      8  N   LIG    1        1.267  -6.759  -6.057  0.00  0.00    -0.129 NA
ATOM      9  H   LIG    1        0.461  -6.335  -6.390  0.00  0.00    +0.306 HD
BRANCH   7  10
ATOM     10  N   LIG    1        0.043  -7.628  -4.284  0.00  0.00    -0.186 N 
ATOM     11  H   LIG    1        0.033  -8.025  -3.399  0.00  0.00    +0.271 HD
BRANCH  10  12
ATOM     12  C   LIG    1       -1.141  -7.286  -4.899  0.00  0.00    +0.394 C 
ATOM     13  N   LIG    1       -2.178  -8.085  -4.814  0.00  0.00    -0.073 NA
BRANCH  13  14
ATOM     14  C   LIG    1       -2.072  -9.277  -4.146  0.00  0.00    +0.142 A 
ATOM     15  C   LIG    1       -1.093 -10.201  -4.512  0.00  0.00    +0.047 A 
ATOM     16  C   LIG    1       -0.991 -11.399  -3.834  0.00  0.00    +0.023 A 
ATOM     17  C   LIG    1       -1.859 -11.684  -2.793  0.00  0.00    +0.041 A 
ATOM     18 CL   LIG    1       -1.725 -13.194  -1.946  0.00  0.00    -0.084 Cl
ATOM     19  C   LIG    1       -2.833 -10.771  -2.426  0.00  0.00    +0.023 A 
ATOM     20  C   LIG    1       -2.940  -9.568  -3.092  0.00  0.00    +0.047 A 
ENDBRANCH  13  14
BRANCH  12  21
ATOM     21  N   LIG    1       -1.235  -6.110  -5.600  0.00  0.00    -0.288 N 
ATOM     22  H   LIG    1       -1.381  -6.128  -6.559  0.00  0.00    +0.255 HD
ATOM     23  H   LIG    1       -1.157  -5.262  -5.137  0.00  0.00    +0.255 HD
ENDBRANCH  12  21
ENDBRANCH  10  12
ENDBRANCH   7  10
ENDBRANCH   5   7
ENDBRANCH   4   5
ENDBRANCH   3   4
ENDBRANCH   2   3
ENDBRANCH   1   2
BRANCH   1  24
ATOM     24  C   LIG    1        8.639  -8.249  -4.774  0.00  0.00    +0.037 C 
BRANCH  24  25
ATOM     25  C   LIG    1        9.769  -8.956  -4.024  0.00  0.00    +0.196 C 
BRANCH  25  26
ATOM     26  N   LIG    1       11.059  -8.530  -4.570  0.00  0.00    -0.276 N 
ATOM     27  H   LIG    1       11.092  -7.860  -5.271  0.00  0.00    +0.258 HD
BRANCH  26  29
ATOM     28  N   LIG    1       13.384  -8.641  -4.534  0.00  0.00    -0.003 NA
ATOM     29  C   LIG    1       12.217  -9.076  -4.092  0.00  0.00    +0.390 C 
BRANCH  29  30
ATOM     30  N   LIG    1       12.169 -10.070  -3.156  0.00  0.00    -0.289 N 
ATOM     31  H   LIG    1       11.312 -10.389  -2.832  0.00  0.00    +0.255 HD
ATOM     32  H   LIG    1       12.991 -10.458  -2.817  0.00  0.00    +0.255 HD
ENDBRANCH  29  30
BRANCH  28  34
ATOM     33  N   LIG    1       13.125  -7.752  -6.648  0.00  0.00    -0.070 NA
ATOM     34  C   LIG    1       13.436  -7.593  -5.375  0.00  0.00    +0.430 C 
BRANCH  33  36
ATOM     35  C   LIG    1       11.679  -9.255  -7.827  0.00  0.00    +0.047 A 
ATOM     36  C   LIG    1       12.868  -9.003  -7.138  0.00  0.00    +0.142 A 
ATOM     37  C   LIG    1       13.793 -10.033  -6.952  0.00  0.00    +0.047 A 
ATOM     38  C   LIG    1       13.527 -11.292  -7.449  0.00  0.00    +0.023 A 
ATOM     39  C   LIG    1       12.347 -11.536  -8.131  0.00  0.00    +0.041 A 
ATOM     40 CL   LIG    1       12.021 -13.123  -8.754  0.00  0.00    -0.084 Cl
ATOM     41  C   LIG    1       11.426 -10.519  -8.319  0.00  0.00    +0.023 A 
ENDBRANCH  33  36
BRANCH  34  42
ATOM     42  N   LIG    1       13.815  -6.353  -4.908  0.00  0.00    -0.286 N 
ATOM     43  H   LIG    1       14.044  -6.236  -3.973  0.00  0.00    +0.255 HD
ATOM     44  H   LIG    1       13.853  -5.597  -5.515  0.00  0.00    +0.255 HD
ENDBRANCH  34  42
ENDBRANCH  28  34
ENDBRANCH  26  29
ENDBRANCH  25  26
ENDBRANCH  24  25
ENDBRANCH   1  24
TORSDOF 17
