REMARK  Name = ZINC64559527
REMARK                            x       y       z     vdW  Elec       q    Type
REMARK                         _______ _______ _______ _____ _____    ______ ____
ROOT
ATOM      1  C   LIG    1        5.744  -1.841   2.836  0.00  0.00    +0.241 C 
ATOM      2  N   LIG    1        6.883  -2.478   3.171  0.00  0.00    -0.297 N 
ATOM      3  C   LIG    1        7.801  -2.965   2.131  0.00  0.00    +0.126 C 
ATOM      4  C   LIG    1        9.193  -2.375   2.391  0.00  0.00    +0.124 C 
ATOM      5  N   LIG    1        9.540  -2.595   3.803  0.00  0.00    -0.327 N 
ATOM      6  C   LIG    1        8.621  -2.108   4.842  0.00  0.00    +0.124 C 
ATOM      7  C   LIG    1        7.233  -2.693   4.582  0.00  0.00    +0.126 C 
ATOM      8  O   LIG    1        4.996  -1.439   3.702  0.00  0.00    -0.273 OA
ENDROOT
BRANCH   5   9
ATOM      9  C   LIG    1       10.721  -3.256   4.150  0.00  0.00    +0.030 A 
ATOM     10  C   LIG    1       11.523  -3.812   3.162  0.00  0.00    +0.024 A 
ATOM     11  C   LIG    1       12.691  -4.464   3.508  0.00  0.00    +0.022 A 
ATOM     12  C   LIG    1       13.061  -4.563   4.838  0.00  0.00    +0.041 A 
ATOM     13 CL   LIG    1       14.528  -5.385   5.269  0.00  0.00    -0.084 Cl
ATOM     14  C   LIG    1       12.264  -4.010   5.824  0.00  0.00    +0.022 A 
ATOM     15  C   LIG    1       11.098  -3.352   5.483  0.00  0.00    +0.024 A 
ENDBRANCH   5   9
BRANCH   1  16
ATOM     16  C   LIG    1        5.398  -1.628   1.384  0.00  0.00    +0.256 C 
BRANCH  16  17
ATOM     17  O   LIG    1        4.152  -0.935   1.288  0.00  0.00    -0.366 OA
BRANCH  17  18
ATOM     18  C   LIG    1        3.730  -0.682  -0.054  0.00  0.00    +0.195 C 
BRANCH  18  22
ATOM     19  C   LIG    1       -0.005   1.390  -0.007  0.00  0.00    +0.000 A 
ATOM     20  C   LIG    1        1.180   2.102   0.002  0.00  0.00    +0.000 A 
ATOM     21  C   LIG    1        2.389   1.431  -0.013  0.00  0.00    +0.006 A 
ATOM     22  C   LIG    1        2.412   0.049  -0.036  0.00  0.00    -0.022 A 
ATOM     23  C   LIG    1        1.227  -0.662  -0.044  0.00  0.00    +0.006 A 
ATOM     24  C   LIG    1        0.018   0.008  -0.031  0.00  0.00    +0.000 A 
ENDBRANCH  18  22
ENDBRANCH  17  18
ENDBRANCH  16  17
ENDBRANCH   1  16
TORSDOF 5
