REMARK  Name = ZINC19405490
REMARK                            x       y       z     vdW  Elec       q    Type
REMARK                         _______ _______ _______ _____ _____    ______ ____
ROOT
ATOM      1  C   LIG    1       -1.260  -0.783   0.025  0.00  0.00    +0.066 A 
ATOM      2  N   LIG    1       -2.479  -0.284   0.025  0.00  0.00    -0.277 N 
ATOM      3  H   LIG    1       -2.627   0.806   0.029  0.00  0.00    +0.189 HD
ATOM      4  N   LIG    1       -3.386  -1.351   0.020  0.00  0.00    -0.178 NA
ATOM      5  C   LIG    1       -2.681  -2.503   0.016  0.00  0.00    +0.066 A 
ATOM      6  C   LIG    1       -1.367  -2.188   0.013  0.00  0.00    +0.053 A 
ENDROOT
BRANCH   5   7
ATOM      7  C   LIG    1       -3.258  -3.895   0.015  0.00  0.00    +0.036 C 
ATOM      8  C   LIG    1       -3.588  -4.312  -1.421  0.00  0.00    -0.010 C 
ATOM      9  C   LIG    1       -4.231  -5.700  -1.409  0.00  0.00    -0.082 C 
ATOM     10  N   LIG    1       -5.452  -5.670  -0.595  0.00  0.00    +0.379 N 
ATOM     11  H   LIG    1       -5.930  -6.661  -0.612  0.00  0.00    -0.086 HD
ATOM     12  H   LIG    1       -6.147  -4.921  -1.003  0.00  0.00    -0.086 HD
ATOM     13  C   LIG    1       -5.153  -5.319   0.799  0.00  0.00    -0.082 C 
ATOM     14  C   LIG    1       -4.539  -3.919   0.854  0.00  0.00    -0.010 C 
ENDBRANCH   5   7
BRANCH   1  20
ATOM     15  C   LIG    1       -0.017   1.393   0.039  0.00  0.00    +0.029 A 
ATOM     16  C   LIG    1        1.180   2.079   0.041  0.00  0.00    +0.111 A 
ATOM     17  N   LIG    1        2.331   1.433   0.030  0.00  0.00    -0.263 NA
ATOM     18  C   LIG    1        2.393   0.115   0.018  0.00  0.00    +0.111 A 
ATOM     19  C   LIG    1        1.243  -0.647   0.016  0.00  0.00    +0.029 A 
ATOM     20  C   LIG    1        0.002  -0.004   0.026  0.00  0.00    +0.003 A 
ENDBRANCH   1  20
TORSDOF 2
