REMARK  Name = ZINC27108894
REMARK                            x       y       z     vdW  Elec       q    Type
REMARK                         _______ _______ _______ _____ _____    ______ ____
ROOT
ATOM      1  C   LIG    1        4.364  -0.600   4.384  0.00  0.00    +0.001 A 
ATOM      2  C   LIG    1        4.076  -1.945   4.549  0.00  0.00    +0.001 A 
ATOM      3  C   LIG    1        3.084  -2.564   3.799  0.00  0.00    +0.015 A 
ATOM      4  C   LIG    1        2.417  -1.764   2.896  0.00  0.00    +0.020 A 
ATOM      5  C   LIG    1        2.689  -0.384   2.706  0.00  0.00    -0.007 A 
ATOM      6  C   LIG    1        1.875   0.286   1.705  0.00  0.00    -0.032 A 
ATOM      7  C   LIG    1        0.951  -0.468   1.063  0.00  0.00    -0.023 A 
ATOM      8  C   LIG    1        0.002  -0.004   0.002  0.00  0.00    -0.038 C 
ATOM      9  N   LIG    1       -0.018   1.470   0.010  0.00  0.00    +0.390 N 
ATOM     10  H   LIG    1       -0.533   1.825   0.915  0.00  0.00    -0.084 HD
ATOM     11  H   LIG    1       -0.550   1.835  -0.881  0.00  0.00    -0.084 HD
ATOM     12  C   LIG    1        1.351   2.006  -0.000  0.00  0.00    +0.021 C 
ATOM     13  C   LIG    1        2.019   1.765   1.356  0.00  0.00    +0.030 C 
ATOM     14  S   LIG    1        1.114  -2.094   1.752  0.00  0.00    -0.095 S 
ATOM     15  C   LIG    1        3.710   0.205   3.493  0.00  0.00    +0.009 A 
ENDROOT
BRANCH  12  16
ATOM     16  C   LIG    1        1.306   3.486  -0.280  0.00  0.00    +0.200 C 
ATOM     17  N   LIG    1        2.406   4.120  -0.733  0.00  0.00    -0.311 N 
ATOM     18  H   LIG    1        3.336   3.557  -0.898  0.00  0.00    +0.149 HD
ATOM     19  O   LIG    1        0.281   4.107  -0.097  0.00  0.00    -0.278 OA
BRANCH  17  20
ATOM     20  C   LIG    1        2.363   5.559  -1.005  0.00  0.00    +0.101 C 
ATOM     21  C   LIG    1        2.630   6.330   0.289  0.00  0.00    +0.025 C 
ATOM     22  C   LIG    1        2.585   7.833   0.005  0.00  0.00    +0.002 C 
ATOM     23  C   LIG    1        3.653   8.189  -1.031  0.00  0.00    +0.003 C 
ATOM     24  C   LIG    1        3.386   7.417  -2.325  0.00  0.00    +0.033 C 
ATOM     25  C   LIG    1        3.431   5.915  -2.041  0.00  0.00    +0.135 C 
BRANCH  25  26
ATOM     26  O   LIG    1        3.181   5.194  -3.249  0.00  0.00    -0.390 OA
ATOM     27  H   LIG    1        3.849   5.321  -4.114  0.00  0.00    +0.210 HD
ENDBRANCH  25  26
ENDBRANCH  17  20
ENDBRANCH  12  16
TORSDOF 3
