REMARK  Name = ZINC27194618
REMARK                            x       y       z     vdW  Elec       q    Type
REMARK                         _______ _______ _______ _____ _____    ______ ____
ROOT
ATOM      1  C   LIG    1        1.071   5.944   0.022  0.00  0.00    -0.002 A 
ATOM      2  C   LIG    1        2.289   5.271   0.007  0.00  0.00    +0.008 A 
ATOM      3  C   LIG    1        2.340   3.911  -0.000  0.00  0.00    +0.009 A 
ATOM      4  C   LIG    1        1.147   3.168   0.008  0.00  0.00    -0.014 A 
ATOM      5  C   LIG    1        1.163   1.762   0.000  0.00  0.00    +0.008 A 
ATOM      6  C   LIG    1       -0.013   1.076   0.008  0.00  0.00    +0.001 A 
ATOM      7  C   LIG    1       -1.234   1.746   0.017  0.00  0.00    +0.001 A 
ATOM      8  C   LIG    1       -1.288   3.106   0.030  0.00  0.00    +0.012 A 
ATOM      9  C   LIG    1       -0.096   3.848   0.023  0.00  0.00    +0.024 A 
ATOM     10  C   LIG    1       -0.111   5.258   0.030  0.00  0.00    +0.128 A 
ENDROOT
BRANCH  10  11
ATOM     11  O   LIG    1       -1.291   5.929   0.044  0.00  0.00    -0.506 OA
ATOM     12  H   LIG    1       -2.240   5.372   0.050  0.00  0.00    +0.292 HD
ENDBRANCH  10  11
BRANCH   1  13
ATOM     13  C   LIG    1        1.054   7.451   0.029  0.00  0.00    +0.065 C 
BRANCH  13  15
ATOM     14  C   LIG    1        1.824   8.785   1.924  0.00  0.00    +0.004 C 
ATOM     15  C   LIG    1        0.938   7.946   1.448  0.00  0.00    -0.030 C 
ENDBRANCH  13  15
ENDBRANCH   1  13
TORSDOF 3
