REMARK  Name = ZINC19167200
REMARK                            x       y       z     vdW  Elec       q    Type
REMARK                         _______ _______ _______ _____ _____    ______ ____
ROOT
ATOM      1  C   LIG    1       -0.070   5.347   0.031  0.00  0.00    -0.020 C 
ENDROOT
BRANCH   1   2
ATOM      2  C   LIG    1       -0.050   3.840   0.023  0.00  0.00    -0.062 A 
ATOM      3  C   LIG    1        1.156   3.165   0.008  0.00  0.00    +0.002 A 
ATOM      4  C   LIG    1        1.175   1.783   0.000  0.00  0.00    +0.000 A 
ATOM      5  C   LIG    1       -0.013   1.076   0.008  0.00  0.00    +0.000 A 
ATOM      6  C   LIG    1       -1.219   1.751   0.017  0.00  0.00    +0.000 A 
ATOM      7  C   LIG    1       -1.238   3.133   0.030  0.00  0.00    +0.002 A 
ENDBRANCH   1   2
BRANCH   1   9
ATOM      8  C   LIG    1       -0.230   7.306  -1.383  0.00  0.00    -0.070 C 
ATOM      9  N   LIG    1       -0.090   5.844  -1.351  0.00  0.00    +0.387 N 
ATOM     10  H   LIG    1       -0.960   5.405  -1.862  0.00  0.00    -0.057 HD
BRANCH   9  11
ATOM     11  N   LIG    1        1.097   5.418  -2.075  0.00  0.00    -0.379 NA
ATOM     12  H   LIG    1        1.936   5.711  -1.598  0.00  0.00    +0.099 HD
ATOM     13  H   LIG    1        1.083   5.760  -3.024  0.00  0.00    +0.099 HD
ENDBRANCH   9  11
ENDBRANCH   1   9
TORSDOF 3
