REMARK  Name = ZINC00002070
REMARK                            x       y       z     vdW  Elec       q    Type
REMARK                         _______ _______ _______ _____ _____    ______ ____
ROOT
ATOM      1  C   LIG    1       -0.017   1.380   0.010  0.00  0.00    +0.042 A 
ATOM      2  C   LIG    1        1.170   2.085   0.002  0.00  0.00    +0.049 A 
ATOM      3  C   LIG    1        2.385   1.410  -0.012  0.00  0.00    +0.126 A 
ATOM      4  C   LIG    1        2.403   0.025  -0.017  0.00  0.00    +0.029 A 
ATOM      5  C   LIG    1        3.699  -0.736  -0.023  0.00  0.00    +0.144 C 
ATOM      6  C   LIG    1        3.963  -1.340   1.337  0.00  0.00    +0.249 C 
ATOM      7  N   LIG    1        4.001  -2.674   1.137  0.00  0.00    -0.238 N 
ATOM      8  H   LIG    1        4.155  -3.326   1.839  0.00  0.00    +0.159 HD
ATOM      9  C   LIG    1        3.799  -2.986  -0.149  0.00  0.00    +0.307 C 
ATOM     10  O   LIG    1        3.788  -4.124  -0.574  0.00  0.00    -0.252 OA
ATOM     11  O   LIG    1        4.109  -0.750   2.386  0.00  0.00    -0.273 OA
ATOM     12  C   LIG    1        4.855   0.170  -0.437  0.00  0.00    +0.081 C 
ATOM     13  C   LIG    1        4.746   1.482   0.351  0.00  0.00    +0.232 C 
ATOM     14  N   LIG    1        3.610  -1.897  -0.918  0.00  0.00    -0.281 N 
ATOM     15  H   LIG    1        3.446  -1.882  -1.874  0.00  0.00    +0.152 HD
ATOM     16  C   LIG    1        1.210  -0.678  -0.011  0.00  0.00    +0.048 A 
ATOM     17  O   LIG    1        3.534   2.136  -0.025  0.00  0.00    -0.492 OA
ATOM     18  C   LIG    1        0.002  -0.004   0.002  0.00  0.00    +0.124 A 
ATOM     19  F   LIG    1       -1.158  -0.696   0.008  0.00  0.00    -0.205 F 
ENDROOT
TORSDOF 0
