REMARK  Name = ZINC13802650
REMARK                            x       y       z     vdW  Elec       q    Type
REMARK                         _______ _______ _______ _____ _____    ______ ____
ROOT
ATOM      1  N   LIG    1       -0.235  -4.137   0.568  0.00  0.00    -0.309 N 
ATOM      2  H   LIG    1        0.553  -4.413   0.075  0.00  0.00    +0.149 HD
ATOM      3  C   LIG    1       -1.156  -5.051   0.931  0.00  0.00    +0.246 C 
ATOM      4  O   LIG    1       -2.145  -4.706   1.550  0.00  0.00    -0.270 OA
ENDROOT
BRANCH   3   5
ATOM      5  C   LIG    1       -0.966  -6.470   0.579  0.00  0.00    +0.065 A 
ATOM      6  C   LIG    1        0.167  -6.873  -0.124  0.00  0.00    +0.035 A 
ATOM      7  C   LIG    1        0.347  -8.204  -0.455  0.00  0.00    +0.044 A 
ATOM      8 CL   LIG    1        1.766  -8.687  -1.331  0.00  0.00    -0.083 Cl
ATOM      9  C   LIG    1       -0.592  -9.153  -0.095  0.00  0.00    +0.047 A 
ATOM     10  C   LIG    1       -1.728  -8.777   0.606  0.00  0.00    +0.068 A 
ATOM     11  N   LIG    1       -2.822  -9.463   1.097  0.00  0.00    -0.344 N 
ATOM     12  H   LIG    1       -2.986 -10.416   1.023  0.00  0.00    +0.167 HD
ATOM     13  C   LIG    1       -3.619  -8.553   1.719  0.00  0.00    +0.197 A 
ATOM     14  N   LIG    1       -3.094  -7.364   1.627  0.00  0.00    -0.235 NA
ATOM     15  C   LIG    1       -1.926  -7.431   0.957  0.00  0.00    +0.101 A 
ENDBRANCH   3   5
BRANCH   1  23
ATOM     16  C   LIG    1       -0.018   1.465   0.010  0.00  0.00    -0.095 C 
ATOM     17  N   LIG    1        0.002  -0.004   0.002  0.00  0.00    +0.382 N 
ATOM     18  H   LIG    1        0.429  -0.349  -0.845  0.00  0.00    -0.081 HD
ATOM     19  C   LIG    1       -1.374  -0.547   0.157  0.00  0.00    -0.067 C 
ATOM     20  C   LIG    1       -1.682  -0.375   1.663  0.00  0.00    -0.017 C 
ATOM     21  C   LIG    1       -0.301  -0.360   2.350  0.00  0.00    -0.017 C 
ATOM     22  C   LIG    1       -1.308  -2.051  -0.154  0.00  0.00    +0.007 C 
ATOM     23  C   LIG    1       -0.424  -2.727   0.918  0.00  0.00    +0.070 C 
ATOM     24  C   LIG    1        0.938  -2.030   0.977  0.00  0.00    +0.007 C 
ATOM     25  C   LIG    1        0.717  -0.525   1.198  0.00  0.00    -0.067 C 
ENDBRANCH   1  23
TORSDOF 2
