REMARK  Name = ZINC40428662
REMARK                            x       y       z     vdW  Elec       q    Type
REMARK                         _______ _______ _______ _____ _____    ______ ____
ROOT
ATOM      1  N   LIG    1        4.152  -0.952   1.338  0.00  0.00    -0.317 N 
ATOM      2  C   LIG    1        4.939  -0.012   1.976  0.00  0.00    +0.056 A 
ATOM      3  C   LIG    1        5.304   1.153   1.307  0.00  0.00    +0.049 A 
ATOM      4  C   LIG    1        6.089   2.095   1.938  0.00  0.00    +0.078 A 
ATOM      5 CL   LIG    1        6.538   3.545   1.094  0.00  0.00    -0.081 Cl
ATOM      6  C   LIG    1        6.525   1.895   3.244  0.00  0.00    +0.142 A 
ATOM      7  F   LIG    1        7.293   2.827   3.847  0.00  0.00    -0.204 F 
ATOM      8  C   LIG    1        6.176   0.749   3.923  0.00  0.00    +0.053 A 
ATOM      9  C   LIG    1        5.378  -0.216   3.295  0.00  0.00    +0.044 A 
ATOM     10  C   LIG    1        5.000  -1.440   4.010  0.00  0.00    +0.144 A 
ATOM     11  C   LIG    1        4.207  -2.376   3.353  0.00  0.00    +0.149 A 
ATOM     12  C   LIG    1        3.663  -3.632   3.713  0.00  0.00    +0.373 A 
ATOM     13  O   LIG    1        3.797  -4.200   4.783  0.00  0.00    -0.242 OA
ATOM     14  O   LIG    1        2.958  -4.073   2.656  0.00  0.00    -0.310 OA
ATOM     15  N   LIG    1        3.041  -3.135   1.603  0.00  0.00    -0.055 NA
ATOM     16  C   LIG    1        3.768  -2.115   1.974  0.00  0.00    +0.192 A 
ENDROOT
BRANCH  10  17
ATOM     17  O   LIG    1        5.411  -1.654   5.277  0.00  0.00    -0.505 OA
ATOM     18  H   LIG    1        5.945  -1.016   5.710  0.00  0.00    +0.292 HD
ENDBRANCH  10  17
BRANCH   1  19
ATOM     19  C   LIG    1        3.711  -0.707  -0.038  0.00  0.00    +0.159 C 
BRANCH  19  23
ATOM     20  C   LIG    1       -0.017   1.378   0.010  0.00  0.00    +0.000 A 
ATOM     21  C   LIG    1        1.171   2.086   0.002  0.00  0.00    +0.000 A 
ATOM     22  C   LIG    1        2.377   1.411  -0.013  0.00  0.00    +0.005 A 
ATOM     23  C   LIG    1        2.396   0.029  -0.020  0.00  0.00    -0.028 A 
ATOM     24  C   LIG    1        1.208  -0.679  -0.012  0.00  0.00    +0.005 A 
ATOM     25  C   LIG    1        0.002  -0.004   0.002  0.00  0.00    +0.000 A 
ENDBRANCH  19  23
ENDBRANCH   1  19
TORSDOF 3
