REMARK  Name = ZINC29127585
REMARK                            x       y       z     vdW  Elec       q    Type
REMARK                         _______ _______ _______ _____ _____    ______ ____
ROOT
ATOM      1  C   LIG    1        2.875  -6.833  -0.065  0.00  0.00    +0.161 A 
ATOM      2  N   LIG    1        1.654  -6.318  -0.051  0.00  0.00    -0.133 NA
ATOM      3  N   LIG    1        1.456  -5.073  -0.041  0.00  0.00    -0.120 NA
ATOM      4  C   LIG    1        2.454  -4.204  -0.045  0.00  0.00    +0.219 A 
ATOM      5  S   LIG    1        3.846  -5.329  -0.072  0.00  0.00    -0.020 S 
ENDROOT
BRANCH   4   6
ATOM      6  N   LIG    1        2.429  -2.812  -0.037  0.00  0.00    -0.185 NA
ATOM      7  C   LIG    1        1.249  -2.160  -0.022  0.00  0.00    +0.222 C 
BRANCH   7   8
ATOM      8  C   LIG    1        1.222  -0.683  -0.013  0.00  0.00    +0.037 A 
ATOM      9  C   LIG    1        0.002  -0.004   0.002  0.00  0.00    +0.014 A 
ATOM     10  C   LIG    1       -0.017   1.375   0.010  0.00  0.00    +0.021 A 
ATOM     11  C   LIG    1        1.172   2.086   0.002  0.00  0.00    +0.041 A 
ATOM     12 CL   LIG    1        1.140   3.822   0.012  0.00  0.00    -0.084 Cl
ATOM     13  C   LIG    1        2.385   1.419  -0.013  0.00  0.00    +0.021 A 
ATOM     14  C   LIG    1        2.417   0.040  -0.021  0.00  0.00    +0.014 A 
ENDBRANCH   7   8
BRANCH   7  15
ATOM     15  O   LIG    1        0.208  -2.787  -0.016  0.00  0.00    -0.492 OA
ATOM     16  H   LIG    1        0.225  -3.724  -0.021  0.00  0.00    +0.294 HD
ENDBRANCH   7  15
ENDBRANCH   4   6
BRANCH   1  17
ATOM     17  S   LIG    1        3.394  -8.517  -0.080  0.00  0.00    -0.092 S 
BRANCH  17  18
ATOM     18  C   LIG    1        1.841  -9.455  -0.071  0.00  0.00    +0.111 C 
BRANCH  18  21
ATOM     19  C   LIG    1        2.574 -12.969   1.099  0.00  0.00    +0.002 A 
ATOM     20  C   LIG    1        2.296 -11.615   1.109  0.00  0.00    +0.004 A 
ATOM     21  C   LIG    1        2.145 -10.931  -0.083  0.00  0.00    -0.036 A 
ATOM     22  C   LIG    1        2.268 -11.602  -1.286  0.00  0.00    +0.024 A 
ATOM     23  C   LIG    1        2.552 -12.955  -1.296  0.00  0.00    +0.041 A 
ATOM     24 CL   LIG    1        2.713 -13.797  -2.806  0.00  0.00    -0.084 Cl
ATOM     25  C   LIG    1        2.702 -13.640  -0.103  0.00  0.00    +0.020 A 
ENDBRANCH  18  21
ENDBRANCH  17  18
ENDBRANCH   1  17
TORSDOF 6
