REMARK  Name = ZINC64491718
REMARK                            x       y       z     vdW  Elec       q    Type
REMARK                         _______ _______ _______ _____ _____    ______ ____
ROOT
ATOM      1  C   LIG    1        0.516  -2.044   1.256  0.00  0.00    +0.052 C 
ENDROOT
BRANCH   1   2
ATOM      2  C   LIG    1        1.238  -2.581   2.465  0.00  0.00    -0.046 A 
ATOM      3  C   LIG    1        2.558  -2.979   2.361  0.00  0.00    +0.003 A 
ATOM      4  C   LIG    1        3.220  -3.471   3.470  0.00  0.00    +0.000 A 
ATOM      5  C   LIG    1        2.563  -3.565   4.683  0.00  0.00    +0.000 A 
ATOM      6  C   LIG    1        1.244  -3.167   4.787  0.00  0.00    +0.000 A 
ATOM      7  C   LIG    1        0.583  -2.670   3.679  0.00  0.00    +0.003 A 
ENDBRANCH   1   2
BRANCH   1   8
ATOM      8  C   LIG    1        0.706  -0.527   1.180  0.00  0.00    +0.106 C 
BRANCH   8  10
ATOM      9  C   LIG    1       -0.018   1.465   0.010  0.00  0.00    +0.123 C 
ATOM     10  N   LIG    1        0.002  -0.004   0.002  0.00  0.00    -0.248 NA
BRANCH  10  11
ATOM     11  N   LIG    1        0.594  -0.510  -1.226  0.00  0.00    -0.268 NA
ATOM     12  H   LIG    1        0.110  -0.151  -2.035  0.00  0.00    +0.137 HD
ATOM     13  H   LIG    1        0.607  -1.519  -1.232  0.00  0.00    +0.137 HD
ENDBRANCH  10  11
ENDBRANCH   8  10
ENDBRANCH   1   8
TORSDOF 4
