REMARK  Name = ZINC13781235
REMARK                            x       y       z     vdW  Elec       q    Type
REMARK                         _______ _______ _______ _____ _____    ______ ____
ROOT
ATOM      1  C   LIG    1       -0.765   1.599  -1.226  0.00  0.00    +0.078 C 
ATOM      2  C   LIG    1       -0.013   1.086   0.008  0.00  0.00    +0.027 C 
ATOM      3  C   LIG    1       -0.738   1.584   1.256  0.00  0.00    +0.037 C 
ATOM      4  C   LIG    1       -2.208   1.257   1.180  0.00  0.00    -0.044 A 
ATOM      5  C   LIG    1       -2.941   1.296   2.359  0.00  0.00    +0.004 A 
ATOM      6  C   LIG    1       -4.292   1.019   2.353  0.00  0.00    +0.000 A 
ATOM      7  C   LIG    1       -4.922   0.699   1.165  0.00  0.00    +0.000 A 
ATOM      8  C   LIG    1       -4.195   0.657  -0.006  0.00  0.00    +0.004 A 
ATOM      9  C   LIG    1       -2.834   0.934  -0.003  0.00  0.00    -0.042 A 
ATOM     10  C   LIG    1       -2.100   0.864  -1.316  0.00  0.00    +0.057 C 
ENDROOT
BRANCH   1  12
ATOM     11  C   LIG    1       -0.145   2.098  -3.529  0.00  0.00    +0.213 C 
ATOM     12  N   LIG    1        0.027   1.336  -2.430  0.00  0.00    -0.312 N 
ATOM     13  H   LIG    1        0.674   0.614  -2.437  0.00  0.00    +0.149 HD
ATOM     14  O   LIG    1       -0.955   3.001  -3.520  0.00  0.00    -0.276 OA
BRANCH  11  16
ATOM     15  C   LIG    1        0.282   2.827  -5.860  0.00  0.00    +0.013 C 
ATOM     16  C   LIG    1        0.669   1.828  -4.768  0.00  0.00    +0.092 C 
ENDBRANCH  11  16
ENDBRANCH   1  12
TORSDOF 2
