REMARK  Name = ZINC34596664
REMARK                            x       y       z     vdW  Elec       q    Type
REMARK                         _______ _______ _______ _____ _____    ______ ____
ROOT
ATOM      1  C   LIG    1        1.383  -2.734  -2.392  0.00  0.00    +0.228 C 
ATOM      2  O   LIG    1        1.789  -2.122  -3.358  0.00  0.00    -0.284 OA
ENDROOT
BRANCH   1   3
ATOM      3  C   LIG    1        1.501  -4.203  -2.348  0.00  0.00    +0.025 A 
ATOM      4  C   LIG    1        0.912  -4.924  -1.303  0.00  0.00    +0.012 A 
ATOM      5  C   LIG    1        1.027  -6.298  -1.268  0.00  0.00    +0.001 A 
ATOM      6  C   LIG    1        1.723  -6.963  -2.264  0.00  0.00    +0.000 A 
ATOM      7  C   LIG    1        2.308  -6.256  -3.300  0.00  0.00    +0.001 A 
ATOM      8  C   LIG    1        2.197  -4.883  -3.353  0.00  0.00    +0.012 A 
ENDBRANCH   1   3
BRANCH   1   9
ATOM      9  C   LIG    1        0.765  -2.002  -1.252  0.00  0.00    +0.203 C 
ATOM     10  O   LIG    1        0.276  -2.616  -0.334  0.00  0.00    -0.289 OA
BRANCH   9  11
ATOM     11  C   LIG    1        0.750  -0.495  -1.244  0.00  0.00    +0.083 C 
BRANCH  11  13
ATOM     12  C   LIG    1        0.047   1.531   0.038  0.00  0.00    +0.004 C 
ATOM     13  C   LIG    1        0.062   0.001   0.030  0.00  0.00    +0.005 C 
ENDBRANCH  11  13
ENDBRANCH   9  11
ENDBRANCH   1   9
TORSDOF 4
