REMARK  Name = ZINC00039090
REMARK                            x       y       z     vdW  Elec       q    Type
REMARK                         _______ _______ _______ _____ _____    ______ ____
ROOT
ATOM      1  C   LIG    1        1.353  -2.522   2.463  0.00  0.00    -0.017 A 
ATOM      2  C   LIG    1        2.728  -2.532   2.605  0.00  0.00    +0.010 A 
ATOM      3  C   LIG    1        3.301  -2.991   3.777  0.00  0.00    +0.049 A 
ATOM      4  C   LIG    1        2.497  -3.441   4.812  0.00  0.00    +0.158 A 
ATOM      5  C   LIG    1        1.113  -3.430   4.668  0.00  0.00    +0.159 A 
ATOM      6  C   LIG    1        0.545  -2.964   3.493  0.00  0.00    +0.055 A 
ENDROOT
BRANCH   4   7
ATOM      7  O   LIG    1        3.059  -3.893   5.965  0.00  0.00    -0.503 OA
ATOM      8  H   LIG    1        3.194  -3.206   6.632  0.00  0.00    +0.292 HD
ENDBRANCH   4   7
BRANCH   5   9
ATOM      9  O   LIG    1        0.319  -3.870   5.681  0.00  0.00    -0.503 OA
ATOM     10  H   LIG    1        0.062  -3.180   6.308  0.00  0.00    +0.292 HD
ENDBRANCH   5   9
BRANCH   1  11
ATOM     11  C   LIG    1        0.733  -2.021   1.184  0.00  0.00    +0.128 C 
BRANCH  11  12
ATOM     12  O   LIG    1        1.502  -2.480   0.070  0.00  0.00    -0.389 OA
ATOM     13  H   LIG    1        2.422  -2.183   0.077  0.00  0.00    +0.210 HD
ENDBRANCH  11  12
BRANCH  11  14
ATOM     14  C   LIG    1        0.713  -0.491   1.192  0.00  0.00    -0.046 C 
BRANCH  14  16
ATOM     15  C   LIG    1       -0.018   1.465   0.010  0.00  0.00    -0.100 C 
ATOM     16  N   LIG    1        0.002  -0.004   0.002  0.00  0.00    +0.379 N 
ATOM     17  H   LIG    1        0.474  -0.330  -0.828  0.00  0.00    -0.086 HD
ATOM     18  H   LIG    1       -0.945  -0.353   0.009  0.00  0.00    -0.086 HD
ENDBRANCH  14  16
ENDBRANCH  11  14
ENDBRANCH   1  11
TORSDOF 6
