REMARK  Name = ZINC39058349
REMARK                            x       y       z     vdW  Elec       q    Type
REMARK                         _______ _______ _______ _____ _____    ______ ____
ROOT
ATOM      1  CA  LIG    1       -1.242  -1.947  -0.718  0.00  0.00    +0.076 C 
ENDROOT
BRANCH   1   2
ATOM      2  N   LIG    1       -0.380  -2.874   0.028  0.00  0.00    +0.389 N 
ATOM      3  H1  LIG    1        0.550  -2.490   0.093  0.00  0.00    -0.089 HD
ATOM      4  H2  LIG    1       -0.345  -3.761  -0.453  0.00  0.00    -0.089 HD
ATOM      5  H3  LIG    1       -0.754  -3.010   0.955  0.00  0.00    -0.089 HD
ENDBRANCH   1   2
BRANCH   1   6
ATOM      6  C   LIG    1       -0.683  -1.745  -2.103  0.00  0.00    +0.293 C 
ATOM      7  O   LIG    1        0.519  -1.826  -2.293  0.00  0.00    -0.253 OA
BRANCH   6   8
ATOM      8  OXT LIG    1       -1.432  -1.502  -3.033  0.00  0.00    -0.482 OA
ATOM      9  HXT LIG    1       -2.356  -1.440  -2.887  0.00  0.00    +0.295 HD
ENDBRANCH   6   8
ENDBRANCH   1   6
BRANCH   1  10
ATOM     10  C   LIG    1       -1.295  -0.603   0.011  0.00  0.00    +0.222 C 
BRANCH  10  12
ATOM     11  C   LIG    1       -0.017   1.425   0.010  0.00  0.00    +0.195 C 
ATOM     12  O   LIG    1        0.002  -0.004   0.002  0.00  0.00    -0.370 OA
ENDBRANCH  10  12
BRANCH  10  13
ATOM     13  C   LIG    1       -1.738  -0.821   1.435  0.00  0.00    +0.333 C 
ATOM     14  O   LIG    1       -0.981  -0.581   2.346  0.00  0.00    -0.248 OA
BRANCH  13  15
ATOM     15  O   LIG    1       -2.972  -1.282   1.691  0.00  0.00    -0.479 OA
ATOM     16  H   LIG    1       -3.164  -1.389   2.633  0.00  0.00    +0.295 HD
ENDBRANCH  13  15
ENDBRANCH  10  13
ENDBRANCH   1  10
TORSDOF 7
