REMARK  Name = ZINC00020220
REMARK                            x       y       z     vdW  Elec       q    Type
REMARK                         _______ _______ _______ _____ _____    ______ ____
ROOT
ATOM      1  C   LIG    1       -0.097   1.483  -0.291  0.00  0.00    +0.054 A 
ATOM      2  C   LIG    1        1.143   2.111  -0.046  0.00  0.00    +0.044 A 
ATOM      3  C   LIG    1        2.313   1.341   0.167  0.00  0.00    +0.055 A 
ATOM      4  N   LIG    1        3.517   1.972   0.406  0.00  0.00    -0.343 N 
ATOM      5  C   LIG    1        3.605   3.309   0.440  0.00  0.00    +0.105 A 
ATOM      6  C   LIG    1        2.492   4.108   0.239  0.00  0.00    +0.117 A 
ATOM      7  C   LIG    1        2.249  -0.037   0.137  0.00  0.00    +0.055 A 
ATOM      8  C   LIG    1        1.020  -0.675  -0.107  0.00  0.00    +0.075 A 
ATOM      9  N   LIG    1        0.949  -2.005  -0.138  0.00  0.00    -0.372 N 
ATOM     10  C   LIG    1        2.166  -2.825  -0.237  0.00  0.00    +0.097 C 
ATOM     11  C   LIG    1        2.123  -3.894   0.860  0.00  0.00    -0.061 C 
ATOM     12  N   LIG    1        0.871  -4.653   0.754  0.00  0.00    +0.381 N 
ATOM     13  H   LIG    1        0.877  -5.404   1.427  0.00  0.00    -0.086 HD
ATOM     14  H   LIG    1        0.790  -5.038  -0.175  0.00  0.00    -0.086 HD
ATOM     15  C   LIG    1       -0.273  -3.770   1.017  0.00  0.00    -0.061 C 
ATOM     16  C   LIG    1       -0.348  -2.696  -0.067  0.00  0.00    +0.097 C 
ATOM     17  C   LIG    1        1.232   3.513  -0.010  0.00  0.00    +0.141 A 
ATOM     18  C   LIG    1       -0.181   0.131  -0.325  0.00  0.00    +0.147 A 
ATOM     19  F   LIG    1       -1.368  -0.470  -0.559  0.00  0.00    -0.203 F 
ENDROOT
BRANCH   4  20
ATOM     20  C   LIG    1        4.721   1.166   0.625  0.00  0.00    +0.087 C 
ATOM     21  C   LIG    1        5.985   1.895   1.083  0.00  0.00    +0.027 C 
ATOM     22  C   LIG    1        5.887   1.359  -0.346  0.00  0.00    +0.027 C 
ENDBRANCH   4  20
BRANCH   6  23
ATOM     23  C   LIG    1        2.619   5.571   0.283  0.00  0.00    +0.342 C 
ATOM     24  O   LIG    1        3.725   6.087   0.381  0.00  0.00    -0.245 OA
BRANCH  23  25
ATOM     25  O   LIG    1        1.619   6.274   0.222  0.00  0.00    -0.477 OA
ATOM     26  H   LIG    1        0.773   5.879   0.147  0.00  0.00    +0.295 HD
ENDBRANCH  23  25
ENDBRANCH   6  23
BRANCH  17  27
ATOM     27  O   LIG    1        0.137   4.277  -0.209  0.00  0.00    -0.505 OA
ATOM     28  H   LIG    1        0.322   5.226  -0.249  0.00  0.00    +0.292 HD
ENDBRANCH  17  27
TORSDOF 4
