REMARK  Name = ZINC15659837
REMARK                            x       y       z     vdW  Elec       q    Type
REMARK                         _______ _______ _______ _____ _____    ______ ____
ROOT
ATOM      1  C   LIG    1        1.174   3.562   0.011  0.00  0.00    +0.138 A 
ATOM      2  C   LIG    1        0.443   4.366  -0.840  0.00  0.00    +0.050 A 
ATOM      3  C   LIG    1        0.718   5.687  -0.490  0.00  0.00    +0.050 A 
ATOM      4  C   LIG    1        1.621   5.643   0.564  0.00  0.00    +0.129 A 
ATOM      5  O   LIG    1        1.878   4.347   0.844  0.00  0.00    -0.455 OA
ENDROOT
BRANCH   4   6
ATOM      6  C   LIG    1        2.171   6.752   1.222  0.00  0.00    +0.064 C 
ATOM      7  C   LIG    1        3.069   6.565   2.267  0.00  0.00    +0.105 C 
ATOM      8  C   LIG    1        3.745   7.604   3.062  0.00  0.00    +0.266 C 
ATOM      9  N   LIG    1        4.516   6.966   3.963  0.00  0.00    -0.223 N 
ATOM     10  H   LIG    1        5.076   7.407   4.622  0.00  0.00    +0.174 HD
ATOM     11  N   LIG    1        4.404   5.584   3.812  0.00  0.00    -0.184 N 
ATOM     12  O   LIG    1        3.627   8.808   2.932  0.00  0.00    -0.268 OA
ATOM     13  C   LIG    1        3.552   5.287   2.813  0.00  0.00    +0.272 C 
ATOM     14  O   LIG    1        3.241   4.173   2.433  0.00  0.00    -0.268 OA
BRANCH  11  15
ATOM     15  C   LIG    1        5.082   4.640   4.589  0.00  0.00    +0.058 A 
ATOM     16  C   LIG    1        4.893   3.283   4.357  0.00  0.00    +0.025 A 
ATOM     17  C   LIG    1        5.568   2.353   5.122  0.00  0.00    +0.003 A 
ATOM     18  C   LIG    1        6.423   2.769   6.126  0.00  0.00    +0.020 A 
ATOM     19  C   LIG    1        6.609   4.120   6.364  0.00  0.00    +0.043 A 
ATOM     20 CL   LIG    1        7.683   4.638   7.626  0.00  0.00    -0.083 Cl
ATOM     21  C   LIG    1        5.941   5.056   5.598  0.00  0.00    +0.045 A 
ENDBRANCH  11  15
ENDBRANCH   4   6
BRANCH   1  25
ATOM     22  C   LIG    1       -1.294  -0.773   0.010  0.00  0.00    +0.044 C 
ATOM     23  C   LIG    1        0.002  -0.004   0.002  0.00  0.00    -0.047 A 
ATOM     24  C   LIG    1       -0.017   1.375   0.010  0.00  0.00    +0.017 A 
ATOM     25  C   LIG    1        1.186   2.087   0.002  0.00  0.00    +0.048 A 
ATOM     26  C   LIG    1        2.400   1.394  -0.013  0.00  0.00    +0.132 A 
ATOM     27  C   LIG    1        2.403   0.015  -0.020  0.00  0.00    +0.037 A 
ATOM     28  C   LIG    1        1.208  -0.683  -0.013  0.00  0.00    -0.045 A 
ATOM     29  C   LIG    1        1.220  -2.190  -0.021  0.00  0.00    +0.044 C 
BRANCH  26  30
ATOM     30  N   LIG    1        3.679   2.139  -0.022  0.00  0.00    +0.007 N 
ATOM     31  O   LIG    1        4.736   1.534  -0.035  0.00  0.00    -0.130 OA
BRANCH  30  32
ATOM     32  O   LIG    1        3.674   3.357  -0.016  0.00  0.00    -0.396 OA
ATOM     33  H   LIG    1        2.861   3.823  -0.006  0.00  0.00    +0.329 HD
ENDBRANCH  30  32
ENDBRANCH  26  30
ENDBRANCH   1  25
TORSDOF 5
