REMARK  Name = ZINC00021067
REMARK                            x       y       z     vdW  Elec       q    Type
REMARK                         _______ _______ _______ _____ _____    ______ ____
ROOT
ATOM      1  N   LIG    1       -2.314  -0.062   0.796  0.00  0.00    +0.384 N 
ATOM      2  H   LIG    1       -1.979  -0.403   1.705  0.00  0.00    -0.085 HD
ATOM      3  H   LIG    1       -2.324   0.965   0.798  0.00  0.00    -0.085 HD
ENDROOT
BRANCH   1   4
ATOM      4  C   LIG    1       -1.407  -0.537  -0.266  0.00  0.00    -0.037 C 
BRANCH   4  12
ATOM      5  C   LIG    1        3.564   3.478   0.004  0.00  0.00    +0.000 A 
ATOM      6  C   LIG    1        2.391   4.115   0.367  0.00  0.00    +0.004 A 
ATOM      7  C   LIG    1        1.200   3.418   0.366  0.00  0.00    +0.046 A 
ATOM      8  C   LIG    1        1.175   2.075   0.002  0.00  0.00    +0.124 A 
ATOM      9  C   LIG    1        2.350   1.440  -0.357  0.00  0.00    -0.006 A 
ATOM     10  C   LIG    1        2.368  -0.014  -0.754  0.00  0.00    +0.042 C 
ATOM     11  C   LIG    1        0.951  -0.469  -1.110  0.00  0.00    +0.047 C 
ATOM     12  C   LIG    1        0.002  -0.004   0.002  0.00  0.00    +0.157 C 
ATOM     13  O   LIG    1       -0.017   1.424   0.010  0.00  0.00    -0.490 OA
ATOM     14  C   LIG    1        3.543   2.145  -0.356  0.00  0.00    +0.007 A 
ENDBRANCH   4  12
ENDBRANCH   1   4
BRANCH   1  15
ATOM     15  C   LIG    1       -3.682  -0.561   0.562  0.00  0.00    -0.045 C 
BRANCH  15  16
ATOM     16  C   LIG    1       -4.584  -0.061   1.661  0.00  0.00    -0.046 A 
ATOM     17  C   LIG    1       -4.762  -0.806   2.814  0.00  0.00    +0.013 A 
ATOM     18  C   LIG    1       -5.605  -0.300   3.807  0.00  0.00    +0.000 A 
ATOM     19  C   LIG    1       -6.238   0.923   3.594  0.00  0.00    +0.119 A 
ATOM     20  N   LIG    1       -6.042   1.594   2.477  0.00  0.00    -0.262 NA
ATOM     21  C   LIG    1       -5.248   1.144   1.525  0.00  0.00    +0.112 A 
BRANCH  18  22
ATOM     22  C   LIG    1       -5.828  -1.055   5.064  0.00  0.00    -0.016 A 
ATOM     23  C   LIG    1       -5.195  -2.280   5.265  0.00  0.00    +0.011 A 
ATOM     24  C   LIG    1       -5.401  -2.977   6.438  0.00  0.00    +0.039 A 
ATOM     25  C   LIG    1       -6.244  -2.465   7.411  0.00  0.00    +0.123 A 
ATOM     26  F   LIG    1       -6.447  -3.152   8.556  0.00  0.00    -0.205 F 
ATOM     27  C   LIG    1       -6.880  -1.250   7.213  0.00  0.00    +0.039 A 
ATOM     28  C   LIG    1       -6.675  -0.544   6.045  0.00  0.00    +0.011 A 
ENDBRANCH  18  22
ENDBRANCH  15  16
ENDBRANCH   1  15
TORSDOF 5
