REMARK  Name = ZINC45368822
REMARK                            x       y       z     vdW  Elec       q    Type
REMARK                         _______ _______ _______ _____ _____    ______ ____
ROOT
ATOM      1  C   LIG    1       -1.295  -0.772   0.011  0.00  0.00    +0.158 C 
ENDROOT
BRANCH   1   7
ATOM      2  C   LIG    1       -0.017   1.379   0.010  0.00  0.00    +0.006 A 
ATOM      3  C   LIG    1        1.167   2.088   0.002  0.00  0.00    +0.019 A 
ATOM      4  C   LIG    1        2.385   1.407  -0.013  0.00  0.00    +0.052 A 
ATOM      5  C   LIG    1        2.397   0.011  -0.021  0.00  0.00    +0.019 A 
ATOM      6  C   LIG    1        1.206  -0.686  -0.013  0.00  0.00    +0.006 A 
ATOM      7  C   LIG    1        0.002  -0.004   0.002  0.00  0.00    -0.028 A 
BRANCH   4   8
ATOM      8  C   LIG    1        3.617   2.136  -0.021  0.00  0.00    +0.099 C 
ATOM      9  N   LIG    1        4.595   2.715  -0.028  0.00  0.00    -0.191 NA
ENDBRANCH   4   8
ENDBRANCH   1   7
BRANCH   1  10
ATOM     10  N   LIG    1       -1.729  -1.013  -1.367  0.00  0.00    -0.328 N 
ATOM     11  C   LIG    1       -2.590  -0.256  -2.081  0.00  0.00    +0.199 A 
ATOM     12  N   LIG    1       -2.730  -0.785  -3.265  0.00  0.00    -0.244 NA
ATOM     13  C   LIG    1       -1.972  -1.888  -3.350  0.00  0.00    +0.136 A 
ATOM     14  C   LIG    1       -1.333  -2.045  -2.175  0.00  0.00    +0.064 A 
BRANCH  14  15
ATOM     15  C   LIG    1       -0.369  -3.147  -1.817  0.00  0.00    +0.210 C 
BRANCH  15  16
ATOM     16  O   LIG    1       -0.218  -4.029  -2.931  0.00  0.00    -0.389 OA
ATOM     17  H   LIG    1        0.389  -4.764  -2.771  0.00  0.00    +0.210 HD
ENDBRANCH  15  16
ENDBRANCH  14  15
ENDBRANCH   1  10
TORSDOF 5
