REMARK  Name = ZINC13946936
REMARK                            x       y       z     vdW  Elec       q    Type
REMARK                         _______ _______ _______ _____ _____    ______ ____
ROOT
ATOM      1  C   LIG    1        0.235   1.501   0.424  0.00  0.00    +0.026 C 
ATOM      2  C   LIG    1        0.141  -0.011   0.209  0.00  0.00    +0.077 C 
ATOM      3  C   LIG    1       -1.320  -0.457   0.331  0.00  0.00    +0.020 C 
ATOM      4  C   LIG    1       -1.391  -1.984   0.253  0.00  0.00    +0.003 C 
ATOM      5  C   LIG    1       -0.601  -2.592   1.415  0.00  0.00    +0.020 C 
ATOM      6  C   LIG    1        0.867  -2.171   1.306  0.00  0.00    +0.077 C 
ATOM      7  C   LIG    1        1.635  -2.662   2.534  0.00  0.00    +0.026 C 
ATOM      8  N   LIG    1        0.937  -0.705   1.231  0.00  0.00    -0.176 NA
ENDROOT
BRANCH   8   9
ATOM      9  S   LIG    1        1.890   0.150   2.281  0.00  0.00    +0.029 S 
ATOM     10  C   LIG    1        3.491   0.299   1.442  0.00  0.00    +0.215 C 
ATOM     11  O   LIG    1        2.013  -0.687   3.423  0.00  0.00    -0.158 OA
ATOM     12  O   LIG    1        1.269   1.424   2.381  0.00  0.00    -0.158 OA
ENDBRANCH   8   9
TORSDOF 1
