REMARK  Name = ZINC49088955
REMARK                            x       y       z     vdW  Elec       q    Type
REMARK                         _______ _______ _______ _____ _____    ______ ____
ROOT
ATOM      1  N   LIG    1        3.163   4.812   1.179  0.00  0.00    +0.381 N 
ATOM      2  H   LIG    1        2.371   5.430   1.273  0.00  0.00    -0.086 HD
ATOM      3  H   LIG    1        3.643   5.009   0.314  0.00  0.00    -0.086 HD
ENDROOT
BRANCH   1   4
ATOM      4  C   LIG    1        4.083   5.020   2.306  0.00  0.00    -0.072 C 
ATOM      5  C   LIG    1        5.341   4.175   2.100  0.00  0.00    -0.016 C 
ATOM      6  C   LIG    1        6.299   4.392   3.274  0.00  0.00    -0.002 C 
ATOM      7  C   LIG    1        6.684   5.871   3.352  0.00  0.00    -0.000 C 
ATOM      8  C   LIG    1        5.425   6.715   3.558  0.00  0.00    -0.002 C 
ATOM      9  C   LIG    1        4.468   6.499   2.384  0.00  0.00    -0.016 C 
ENDBRANCH   1   4
BRANCH   1  10
ATOM     10  C   LIG    1        2.700   3.418   1.176  0.00  0.00    -0.076 C 
BRANCH  10  11
ATOM     11  C   LIG    1        1.743   3.202   0.003  0.00  0.00    +0.038 C 
BRANCH  11  13
ATOM     12  C   LIG    1       -0.017   1.365   0.009  0.00  0.00    +0.107 A 
ATOM     13  C   LIG    1        1.267   1.772  -0.001  0.00  0.00    +0.057 A 
ATOM     14  N   LIG    1        2.048   0.681  -0.014  0.00  0.00    -0.241 NA
ATOM     15  C   LIG    1        1.297  -0.386  -0.012  0.00  0.00    +0.196 A 
ATOM     16  N   LIG    1        0.002  -0.004   0.002  0.00  0.00    -0.351 N 
ATOM     17  H   LIG    1       -0.771  -0.590   0.006  0.00  0.00    +0.166 HD
ENDBRANCH  11  13
ENDBRANCH  10  11
ENDBRANCH   1  10
TORSDOF 4
