REMARK  Name = ZINC37866089
REMARK                            x       y       z     vdW  Elec       q    Type
REMARK                         _______ _______ _______ _____ _____    ______ ____
ROOT
ATOM      1  C   LIG    1        0.718  -0.497  -1.257  0.00  0.00    +0.188 C 
ATOM      2  C   LIG    1        0.754  -2.005  -1.260  0.00  0.00    +0.008 A 
ATOM      3  C   LIG    1       -0.435  -2.709  -1.492  0.00  0.00    +0.035 A 
ATOM      4  C   LIG    1       -0.436  -4.087  -1.493  0.00  0.00    +0.071 A 
ATOM      5  N   LIG    1        0.726  -4.767  -1.261  0.00  0.00    -0.302 N 
ATOM      6  C   LIG    1        0.446  -6.208  -1.315  0.00  0.00    +0.162 C 
ATOM      7  C   LIG    1       -1.026  -6.347  -1.607  0.00  0.00    +0.000 A 
ATOM      8  C   LIG    1       -1.837  -7.428  -1.766  0.00  0.00    +0.019 A 
ATOM      9  C   LIG    1       -3.199  -7.203  -2.035  0.00  0.00    +0.021 A 
ATOM     10  C   LIG    1       -4.098  -8.275  -2.210  0.00  0.00    +0.034 A 
ATOM     11  C   LIG    1       -5.426  -8.008  -2.472  0.00  0.00    +0.023 A 
ATOM     12  C   LIG    1       -5.881  -6.697  -2.564  0.00  0.00    +0.004 A 
ATOM     13  C   LIG    1       -5.034  -5.644  -2.400  0.00  0.00    +0.028 A 
ATOM     14  C   LIG    1       -3.672  -5.869  -2.131  0.00  0.00    +0.073 A 
ATOM     15  N   LIG    1       -2.829  -4.848  -1.967  0.00  0.00    -0.245 NA
ATOM     16  C   LIG    1        1.875  -4.102  -1.034  0.00  0.00    +0.259 A 
ATOM     17  O   LIG    1        2.901  -4.727  -0.820  0.00  0.00    -0.267 OA
ATOM     18  C   LIG    1       -1.545  -5.046  -1.712  0.00  0.00    +0.093 A 
ATOM     19  C   LIG    1        1.907  -2.692  -1.041  0.00  0.00    +0.061 A 
ATOM     20  C   LIG    1        3.227  -2.002  -0.822  0.00  0.00    +0.273 C 
ATOM     21  O   LIG    1        3.031  -0.627  -0.492  0.00  0.00    -0.457 OA
ATOM     22  C   LIG    1        2.137   0.025  -1.270  0.00  0.00    +0.344 C 
ATOM     23  O   LIG    1        2.456   0.977  -1.942  0.00  0.00    -0.247 OA
ENDROOT
BRANCH  10  24
ATOM     24  N   LIG    1       -3.650  -9.590  -2.120  0.00  0.00    -0.357 N 
ATOM     25  H   LIG    1       -2.715  -9.772  -1.936  0.00  0.00    +0.142 HD
ATOM     26  H   LIG    1       -4.272 -10.324  -2.241  0.00  0.00    +0.142 HD
ENDBRANCH  10  24
BRANCH   1  28
ATOM     27  C   LIG    1       -0.019   1.526   0.010  0.00  0.00    +0.007 C 
ATOM     28  C   LIG    1        0.002  -0.004   0.002  0.00  0.00    +0.048 C 
ENDBRANCH   1  28
BRANCH   1  29
ATOM     29  O   LIG    1        0.025  -0.030  -2.416  0.00  0.00    -0.373 OA
ATOM     30  H   LIG    1       -0.030   0.933  -2.479  0.00  0.00    +0.211 HD
ENDBRANCH   1  29
TORSDOF 3
