REMARK  Name = ZINC20289086
REMARK                            x       y       z     vdW  Elec       q    Type
REMARK                         _______ _______ _______ _____ _____    ______ ____
ROOT
ATOM      1  C   LIG    1       -1.105   3.452  -0.584  0.00  0.00    +0.114 C 
ENDROOT
BRANCH   1   2
ATOM      2  N   LIG    1       -2.193   4.430  -0.463  0.00  0.00    -0.290 NA
ATOM      3  C   LIG    1       -3.292   4.112  -1.385  0.00  0.00    +0.104 C 
ATOM      4  C   LIG    1       -4.437   5.106  -1.173  0.00  0.00    +0.120 C 
ATOM      5  N   LIG    1       -3.944   6.472  -1.396  0.00  0.00    -0.327 N 
ATOM      6  C   LIG    1       -2.846   6.790  -0.473  0.00  0.00    +0.120 C 
ATOM      7  C   LIG    1       -1.701   5.797  -0.686  0.00  0.00    +0.104 C 
BRANCH   5   8
ATOM      8  C   LIG    1       -4.981   7.403  -1.281  0.00  0.00    +0.030 A 
ATOM      9  C   LIG    1       -4.878   8.449  -0.373  0.00  0.00    +0.026 A 
ATOM     10  C   LIG    1       -5.902   9.371  -0.265  0.00  0.00    +0.040 A 
ATOM     11  C   LIG    1       -7.033   9.246  -1.053  0.00  0.00    +0.124 A 
ATOM     12  F   LIG    1       -8.035  10.146  -0.942  0.00  0.00    -0.205 F 
ATOM     13  C   LIG    1       -7.140   8.201  -1.955  0.00  0.00    +0.040 A 
ATOM     14  C   LIG    1       -6.117   7.280  -2.071  0.00  0.00    +0.026 A 
ENDBRANCH   5   8
ENDBRANCH   1   2
BRANCH   1  15
ATOM     15  C   LIG    1       -0.447   3.596  -1.932  0.00  0.00    +0.009 A 
ATOM     16  C   LIG    1        0.871   3.703  -2.232  0.00  0.00    +0.013 A 
ATOM     17  C   LIG    1        1.249   3.827  -3.555  0.00  0.00    +0.008 A 
ATOM     18  C   LIG    1        0.292   3.839  -4.514  0.00  0.00    +0.045 A 
ATOM     19  S   LIG    1       -1.200   3.664  -3.549  0.00  0.00    -0.100 S 
ENDBRANCH   1  15
BRANCH   1  21
ATOM     20  C   LIG    1       -2.339   1.891   0.927  0.00  0.00    +0.030 C 
ATOM     21  C   LIG    1       -1.671   2.038  -0.442  0.00  0.00    +0.092 C 
BRANCH  21  22
ATOM     22  N   LIG    1       -0.585   1.062  -0.562  0.00  0.00    -0.303 N 
ATOM     23  H   LIG    1        0.447   1.355  -0.320  0.00  0.00    +0.149 HD
ATOM     24  C   LIG    1       -0.851  -0.195  -0.970  0.00  0.00    +0.299 C 
ATOM     25  O   LIG    1       -1.990  -0.519  -1.233  0.00  0.00    -0.265 OA
BRANCH  24  26
ATOM     26  C   LIG    1        0.258  -1.188  -1.099  0.00  0.00    +0.299 C 
ATOM     27  N   LIG    1       -0.007  -2.445  -1.507  0.00  0.00    -0.303 N 
ATOM     28  H   LIG    1       -1.040  -2.740  -1.746  0.00  0.00    +0.149 HD
ATOM     29  O   LIG    1        1.397  -0.864  -0.836  0.00  0.00    -0.265 OA
BRANCH  27  30
ATOM     30  C   LIG    1        1.080  -3.419  -1.634  0.00  0.00    +0.141 C 
BRANCH  30  31
ATOM     31  C   LIG    1        0.520  -4.738  -2.103  0.00  0.00    -0.012 A 
ATOM     32  C   LIG    1        0.098  -5.688  -1.185  0.00  0.00    +0.008 A 
ATOM     33  C   LIG    1       -0.413  -6.885  -1.663  0.00  0.00    +0.020 A 
ATOM     34  C   LIG    1       -0.476  -7.093  -3.028  0.00  0.00    +0.111 A 
ATOM     35  N   LIG    1       -0.061  -6.169  -3.872  0.00  0.00    -0.263 NA
ATOM     36  C   LIG    1        0.427  -5.017  -3.453  0.00  0.00    +0.115 A 
ENDBRANCH  30  31
ENDBRANCH  27  30
ENDBRANCH  24  26
ENDBRANCH  21  22
ENDBRANCH   1  21
TORSDOF 8
