REMARK  Name = ZINC52716466
REMARK                            x       y       z     vdW  Elec       q    Type
REMARK                         _______ _______ _______ _____ _____    ______ ____
ROOT
ATOM      1  C   LIG    1        3.390  -1.328  -0.383  0.00  0.00    -0.042 C 
ATOM      2  C   LIG    1        4.155  -0.889   0.591  0.00  0.00    -0.008 C 
ATOM      3  C   LIG    1        5.581  -1.325   0.772  0.00  0.00    +0.112 C 
ATOM      4  N   LIG    1        5.839  -2.551   0.007  0.00  0.00    -0.291 NA
ATOM      5  C   LIG    1        5.397  -2.384  -1.388  0.00  0.00    +0.090 C 
ATOM      6  C   LIG    1        3.867  -2.321  -1.406  0.00  0.00    +0.051 C 
ENDROOT
BRANCH   1  10
ATOM      7  C   LIG    1       -0.599   0.108  -0.645  0.00  0.00    +0.000 A 
ATOM      8  C   LIG    1        0.460   0.979  -0.828  0.00  0.00    +0.001 A 
ATOM      9  C   LIG    1        1.758   0.519  -0.744  0.00  0.00    +0.008 A 
ATOM     10  C   LIG    1        2.002  -0.828  -0.474  0.00  0.00    -0.022 A 
ATOM     11  C   LIG    1        0.929  -1.702  -0.290  0.00  0.00    +0.008 A 
ATOM     12  C   LIG    1       -0.364  -1.229  -0.377  0.00  0.00    +0.001 A 
ENDBRANCH   1  10
BRANCH   4  13
ATOM     13  C   LIG    1        7.260  -2.921   0.068  0.00  0.00    +0.157 C 
BRANCH  13  14
ATOM     14  C   LIG    1        7.565  -3.518   1.417  0.00  0.00    +0.100 A 
ATOM     15  N   LIG    1        7.388  -4.790   1.738  0.00  0.00    -0.342 N 
ATOM     16  C   LIG    1        7.770  -4.967   3.037  0.00  0.00    +0.064 A 
ATOM     17  C   LIG    1        7.806  -6.064   3.895  0.00  0.00    +0.028 A 
ATOM     18  C   LIG    1        8.258  -5.909   5.186  0.00  0.00    +0.002 A 
ATOM     19  C   LIG    1        8.680  -4.667   5.640  0.00  0.00    +0.002 A 
ATOM     20  C   LIG    1        8.652  -3.571   4.807  0.00  0.00    +0.028 A 
ATOM     21  C   LIG    1        8.197  -3.709   3.498  0.00  0.00    +0.064 A 
ATOM     22  H   LIG    1        7.045  -5.480   1.149  0.00  0.00    +0.167 HD
ATOM     23  N   LIG    1        8.053  -2.847   2.447  0.00  0.00    -0.342 N 
ATOM     24  H   LIG    1        8.270  -1.902   2.456  0.00  0.00    +0.167 HD
ENDBRANCH  13  14
ENDBRANCH   4  13
TORSDOF 3
