REMARK  Name = ZINC19632706
REMARK                            x       y       z     vdW  Elec       q    Type
REMARK                         _______ _______ _______ _____ _____    ______ ____
ROOT
ATOM      1  C   LIG    1       -3.619   2.119  -2.360  0.00  0.00    +0.061 C 
ATOM      2  C   LIG    1       -2.830   1.023  -1.692  0.00  0.00    +0.016 C 
ATOM      3  C   LIG    1       -3.299  -0.236  -1.706  0.00  0.00    +0.065 C 
ATOM      4  C   LIG    1       -2.542  -1.362  -1.060  0.00  0.00    +0.098 C 
ATOM      5  C   LIG    1       -1.494  -0.830  -0.124  0.00  0.00    +0.065 C 
ATOM      6  C   LIG    1       -1.097   0.454  -0.173  0.00  0.00    +0.016 C 
ATOM      7  C   LIG    1       -0.036   0.942   0.779  0.00  0.00    +0.061 C 
ATOM      8  N   LIG    1       -1.641   1.321  -1.083  0.00  0.00    -0.321 N 
ATOM      9  H   LIG    1       -1.186   2.152  -1.293  0.00  0.00    +0.152 HD
ENDROOT
BRANCH   4  10
ATOM     10  C   LIG    1       -1.877  -2.191  -2.129  0.00  0.00    -0.005 A 
ATOM     11  C   LIG    1       -1.056  -1.586  -3.062  0.00  0.00    +0.007 A 
ATOM     12  C   LIG    1       -0.446  -2.346  -4.042  0.00  0.00    +0.000 A 
ATOM     13  C   LIG    1       -0.657  -3.712  -4.089  0.00  0.00    +0.002 A 
ATOM     14  C   LIG    1       -1.478  -4.316  -3.156  0.00  0.00    +0.033 A 
ATOM     15  C   LIG    1       -2.084  -3.557  -2.173  0.00  0.00    +0.126 A 
BRANCH  15  16
ATOM     16  N   LIG    1       -2.958  -4.205  -1.170  0.00  0.00    +0.006 N 
ATOM     17  O   LIG    1       -3.829  -4.963  -1.527  0.00  0.00    -0.130 OA
BRANCH  16  18
ATOM     18  O   LIG    1       -2.801  -3.977   0.007  0.00  0.00    -0.396 OA
ATOM     19  H   LIG    1       -2.126  -3.389   0.284  0.00  0.00    +0.329 HD
ENDBRANCH  16  18
ENDBRANCH  15  16
ENDBRANCH   4  10
BRANCH   3  20
ATOM     20  C   LIG    1       -4.532  -0.508  -2.343  0.00  0.00    +0.337 C 
ATOM     21  O   LIG    1       -5.156   0.394  -2.870  0.00  0.00    -0.245 OA
BRANCH  20  22
ATOM     22  O   LIG    1       -5.016  -1.767  -2.366  0.00  0.00    -0.465 OA
ATOM     23  C   LIG    1       -6.267  -1.969  -3.027  0.00  0.00    +0.280 C 
ENDBRANCH  20  22
ENDBRANCH   3  20
BRANCH   5  24
ATOM     24  C   LIG    1       -0.912  -1.698   0.829  0.00  0.00    +0.338 C 
ATOM     25  O   LIG    1       -1.513  -1.969   1.851  0.00  0.00    -0.245 OA
BRANCH  24  26
ATOM     26  O   LIG    1        0.309  -2.226   0.604  0.00  0.00    -0.461 OA
BRANCH  26  27
ATOM     27  C   LIG    1        0.836  -3.094   1.609  0.00  0.00    +0.235 C 
BRANCH  27  28
ATOM     28  C   LIG    1        2.218  -3.591   1.181  0.00  0.00    +0.020 C 
ATOM     29  C   LIG    1        2.083  -4.458  -0.073  0.00  0.00    +0.010 C 
ATOM     30  C   LIG    1        2.834  -4.420   2.310  0.00  0.00    +0.010 C 
ENDBRANCH  27  28
ENDBRANCH  26  27
ENDBRANCH  24  26
ENDBRANCH   5  24
TORSDOF 9
