REMARK  Name = ZINC18187616
REMARK                            x       y       z     vdW  Elec       q    Type
REMARK                         _______ _______ _______ _____ _____    ______ ____
ROOT
ATOM      1  C   LIG    1       -0.018   1.503   0.010  0.00  0.00    +0.042 C 
ATOM      2  C   LIG    1        1.264   1.869   0.000  0.00  0.00    +0.194 C 
ATOM      3  N   LIG    1        2.104   0.803  -0.053  0.00  0.00    -0.251 N 
ATOM      4  H   LIG    1        3.068   0.874   0.030  0.00  0.00    +0.310 HD
ATOM      5  C   LIG    1        1.487  -0.302  -0.225  0.00  0.00    +0.269 C 
ATOM      6  N   LIG    1        1.864  -1.577  -0.584  0.00  0.00    -0.152 N 
ATOM      7  H   LIG    1        2.619  -2.041  -0.191  0.00  0.00    +0.304 HD
ATOM      8  C   LIG    1        1.054  -2.127  -1.562  0.00  0.00    +0.397 C 
ATOM      9  N   LIG    1       -0.131  -1.616  -1.835  0.00  0.00    +0.001 NA
ATOM     10  C   LIG    1       -0.701  -0.598  -1.192  0.00  0.00    +0.329 C 
ATOM     11  O   LIG    1       -1.771  -0.156  -1.561  0.00  0.00    -0.253 OA
ATOM     12  C   LIG    1        0.002  -0.004   0.002  0.00  0.00    +0.232 C 
ENDROOT
BRANCH   8  13
ATOM     13  N   LIG    1        1.488  -3.216  -2.256  0.00  0.00    -0.246 N 
ATOM     14  H   LIG    1        2.372  -3.604  -2.060  0.00  0.00    +0.242 HD
ATOM     15  H   LIG    1        0.928  -3.608  -2.944  0.00  0.00    +0.242 HD
ENDBRANCH   8  13
TORSDOF 1
