REMARK  Name = ZINC36159909
REMARK                            x       y       z     vdW  Elec       q    Type
REMARK                         _______ _______ _______ _____ _____    ______ ____
ROOT
ATOM      1  C   LIG    1       -0.017   1.393   0.010  0.00  0.00    +0.008 A 
ATOM      2  C   LIG    1        1.170   2.095   0.002  0.00  0.00    +0.013 A 
ATOM      3  C   LIG    1        2.378   1.420  -0.013  0.00  0.00    +0.055 A 
ATOM      4  C   LIG    1        2.404   0.036  -0.021  0.00  0.00    +0.013 A 
ATOM      5  C   LIG    1        1.225  -0.679  -0.014  0.00  0.00    +0.008 A 
ATOM      6  C   LIG    1        0.002  -0.004   0.002  0.00  0.00    -0.025 A 
ENDROOT
BRANCH   3   7
ATOM      7  C   LIG    1        3.670   2.195  -0.021  0.00  0.00    +0.417 C 
ATOM      8  F   LIG    1        3.477   3.418  -0.672  0.00  0.00    -0.166 F 
ATOM      9  F   LIG    1        4.651   1.458  -0.694  0.00  0.00    -0.166 F 
ATOM     10  F   LIG    1        4.083   2.427   1.295  0.00  0.00    -0.166 F 
ENDBRANCH   3   7
BRANCH   6  11
ATOM     11  C   LIG    1       -1.262  -0.762   0.011  0.00  0.00    +0.008 C 
ATOM     12  C   LIG    1       -1.240  -2.104   0.003  0.00  0.00    +0.008 C 
BRANCH  12  13
ATOM     13  C   LIG    1       -2.504  -2.862   0.012  0.00  0.00    -0.022 A 
ATOM     14  C   LIG    1       -3.727  -2.186   0.021  0.00  0.00    +0.028 A 
ATOM     15  C   LIG    1       -4.908  -2.902   0.029  0.00  0.00    +0.043 A 
ATOM     16 CL   LIG    1       -6.428  -2.065   0.041  0.00  0.00    -0.083 Cl
ATOM     17  C   LIG    1       -4.881  -4.287   0.027  0.00  0.00    +0.040 A 
ATOM     18  C   LIG    1       -3.673  -4.963   0.017  0.00  0.00    +0.043 A 
ATOM     19 CL   LIG    1       -3.651  -6.698   0.015  0.00  0.00    -0.083 Cl
ATOM     20  C   LIG    1       -2.485  -4.259   0.004  0.00  0.00    +0.028 A 
ENDBRANCH  12  13
ENDBRANCH   6  11
TORSDOF 3
