REMARK  Name = ZINC20644062
REMARK                            x       y       z     vdW  Elec       q    Type
REMARK                         _______ _______ _______ _____ _____    ______ ____
ROOT
ATOM      1  N   LIG    1        2.360  -0.059  -0.020  0.00  0.00    -0.284 N 
ATOM      2  C   LIG    1        2.454   1.288  -0.013  0.00  0.00    +0.263 A 
ATOM      3  C   LIG    1        1.206   2.077   0.002  0.00  0.00    +0.063 A 
ATOM      4  C   LIG    1        1.223   3.470   0.009  0.00  0.00    +0.016 A 
ATOM      5  C   LIG    1        0.036   4.167   0.024  0.00  0.00    +0.014 A 
ATOM      6  C   LIG    1       -1.183   3.483   0.033  0.00  0.00    +0.039 A 
ATOM      7  C   LIG    1       -1.208   2.091   0.030  0.00  0.00    +0.039 A 
ATOM      8  C   LIG    1       -0.017   1.383   0.010  0.00  0.00    +0.054 A 
ATOM      9  N   LIG    1        0.002  -0.004   0.002  0.00  0.00    -0.335 N 
ATOM     10  H   LIG    1       -0.943  -0.567   0.008  0.00  0.00    +0.168 HD
ATOM     11  O   LIG    1        3.539   1.837  -0.021  0.00  0.00    -0.267 OA
ATOM     12  C   LIG    1        1.167  -0.674  -0.012  0.00  0.00    +0.161 A 
ATOM     13  S   LIG    1        1.127  -2.386  -0.021  0.00  0.00    -0.013 S 
ENDROOT
BRANCH   6  14
ATOM     14  C   LIG    1       -2.454   4.243   0.049  0.00  0.00    +0.244 C 
ATOM     15  N   LIG    1       -2.434   5.590   0.056  0.00  0.00    -0.311 N 
ATOM     16  H   LIG    1       -1.473   6.126   0.050  0.00  0.00    +0.149 HD
ATOM     17  O   LIG    1       -3.516   3.651   0.057  0.00  0.00    -0.270 OA
BRANCH  15  18
ATOM     18  C   LIG    1       -3.691   6.342   0.073  0.00  0.00    +0.102 C 
BRANCH  18  19
ATOM     19  C   LIG    1       -3.389   7.842   0.078  0.00  0.00    +0.000 C 
BRANCH  19  20
ATOM     20  C   LIG    1       -4.702   8.627   0.095  0.00  0.00    -0.077 C 
BRANCH  20  21
ATOM     21  N   LIG    1       -4.412  10.067   0.100  0.00  0.00    +0.380 N 
ATOM     22  H   LIG    1       -3.755  10.300  -0.751  0.00  0.00    -0.082 HD
ATOM     23  C   LIG    1       -3.644  10.449   1.306  0.00  0.00    -0.079 C 
ATOM     24  C   LIG    1       -3.558  11.939   1.495  0.00  0.00    -0.019 C 
ATOM     25  C   LIG    1       -4.706  12.382   2.426  0.00  0.00    -0.002 C 
ATOM     26  C   LIG    1       -5.982  12.465   1.725  0.00  0.00    -0.002 C 
ATOM     27  C   LIG    1       -6.417  11.103   1.143  0.00  0.00    -0.019 C 
ATOM     28  C   LIG    1       -5.643  10.857  -0.123  0.00  0.00    -0.079 C 
ENDBRANCH  20  21
ENDBRANCH  19  20
ENDBRANCH  18  19
ENDBRANCH  15  18
ENDBRANCH   6  14
BRANCH   1  29
ATOM     29  C   LIG    1        3.583  -0.865  -0.035  0.00  0.00    +0.162 C 
BRANCH  29  36
ATOM     30  C   LIG    1        3.523  -2.260  -2.112  0.00  0.00    +0.007 A 
ATOM     31  C   LIG    1        3.891  -2.505  -3.421  0.00  0.00    +0.020 A 
ATOM     32  C   LIG    1        4.737  -1.628  -4.077  0.00  0.00    +0.041 A 
ATOM     33 CL   LIG    1        5.205  -1.938  -5.720  0.00  0.00    -0.084 Cl
ATOM     34  C   LIG    1        5.209  -0.504  -3.423  0.00  0.00    +0.020 A 
ATOM     35  C   LIG    1        4.835  -0.258  -2.115  0.00  0.00    +0.007 A 
ATOM     36  C   LIG    1        3.990  -1.134  -1.461  0.00  0.00    -0.028 A 
ENDBRANCH  29  36
ENDBRANCH   1  29
TORSDOF 7
