REMARK  Name = ZINC28826085
REMARK                            x       y       z     vdW  Elec       q    Type
REMARK                         _______ _______ _______ _____ _____    ______ ____
ROOT
ATOM      1  C   LIG    1        0.870  -3.032  -5.207  0.00  0.00    +0.024 A 
ATOM      2  C   LIG    1        1.617  -4.170  -5.323  0.00  0.00    -0.015 A 
ATOM      3  C   LIG    1        2.619  -4.215  -6.281  0.00  0.00    -0.005 A 
ATOM      4  C   LIG    1        2.821  -3.118  -7.073  0.00  0.00    +0.054 A 
ATOM      5  S   LIG    1        1.574  -1.990  -6.474  0.00  0.00    -0.096 S 
ENDROOT
BRANCH   3   6
ATOM      6  C   LIG    1        3.457  -5.430  -6.444  0.00  0.00    +0.001 A 
ATOM      7  C   LIG    1        3.365  -6.193  -7.606  0.00  0.00    +0.010 A 
ATOM      8  C   LIG    1        4.146  -7.321  -7.752  0.00  0.00    +0.001 A 
ATOM      9  C   LIG    1        5.019  -7.696  -6.747  0.00  0.00    +0.001 A 
ATOM     10  C   LIG    1        5.116  -6.943  -5.591  0.00  0.00    +0.020 A 
ATOM     11  C   LIG    1        4.343  -5.809  -5.436  0.00  0.00    +0.049 A 
ATOM     12 CL   LIG    1        4.471  -4.860  -3.988  0.00  0.00    -0.083 Cl
ENDBRANCH   3   6
BRANCH   1  16
ATOM     13  C   LIG    1       -2.322  -2.193  -2.531  0.00  0.00    +0.121 A 
ATOM     14  C   LIG    1       -1.121  -2.690  -2.042  0.00  0.00    +0.046 A 
ATOM     15  C   LIG    1       -0.083  -2.964  -2.908  0.00  0.00    +0.012 A 
ATOM     16  C   LIG    1       -0.241  -2.741  -4.276  0.00  0.00    -0.011 A 
ATOM     17  C   LIG    1       -1.450  -2.241  -4.764  0.00  0.00    +0.012 A 
ATOM     18  C   LIG    1       -2.485  -1.976  -3.893  0.00  0.00    +0.046 A 
BRANCH  13  19
ATOM     19  O   LIG    1       -3.343  -1.925  -1.675  0.00  0.00    -0.492 OA
BRANCH  19  20
ATOM     20  C   LIG    1       -3.108  -2.172  -0.287  0.00  0.00    +0.229 C 
BRANCH  20  22
ATOM     21  C   LIG    1       -4.109  -2.078   2.000  0.00  0.00    +0.007 C 
ATOM     22  C   LIG    1       -4.361  -1.813   0.514  0.00  0.00    +0.038 C 
ENDBRANCH  20  22
ENDBRANCH  19  20
ENDBRANCH  13  19
ENDBRANCH   1  16
BRANCH   2  23
ATOM     23  C   LIG    1        1.357  -5.353  -4.427  0.00  0.00    +0.151 C 
BRANCH  23  24
ATOM     24  C   LIG    1        0.393  -6.293  -5.103  0.00  0.00    +0.280 C 
ATOM     25  N   LIG    1        0.098  -7.480  -4.535  0.00  0.00    -0.177 N 
ATOM     26  H   LIG    1        0.444  -7.695  -3.655  0.00  0.00    +0.254 HD
ATOM     27  O   LIG    1       -0.118  -5.983  -6.158  0.00  0.00    -0.257 OA
BRANCH  25  28
ATOM     28  C   LIG    1       -0.697  -8.389  -5.207  0.00  0.00    +0.342 C 
ATOM     29  N   LIG    1       -1.084  -9.479  -4.611  0.00  0.00    -0.280 N 
ATOM     30  H   LIG    1       -0.815  -9.654  -3.695  0.00  0.00    +0.258 HD
BRANCH  28  31
ATOM     31  N   LIG    1       -1.078  -8.142  -6.504  0.00  0.00    -0.293 N 
ATOM     32  H   LIG    1       -1.926  -8.479  -6.833  0.00  0.00    +0.254 HD
ATOM     33  H   LIG    1       -0.499  -7.630  -7.090  0.00  0.00    +0.254 HD
ENDBRANCH  28  31
BRANCH  29  34
ATOM     34  C   LIG    1       -1.927 -10.443  -5.323  0.00  0.00    +0.198 C 
BRANCH  34  35
ATOM     35  C   LIG    1       -2.238 -11.626  -4.404  0.00  0.00    +0.065 C 
BRANCH  35  36
ATOM     36  C   LIG    1       -3.118 -12.633  -5.147  0.00  0.00    +0.159 C 
BRANCH  36  37
ATOM     37  O   LIG    1       -3.408 -13.738  -4.289  0.00  0.00    -0.395 OA
ATOM     38  H   LIG    1       -3.963 -14.416  -4.695  0.00  0.00    +0.209 HD
ENDBRANCH  36  37
ENDBRANCH  35  36
ENDBRANCH  34  35
ENDBRANCH  29  34
ENDBRANCH  25  28
ENDBRANCH  23  24
ENDBRANCH   2  23
TORSDOF 13
