REMARK  Name = ZINC21956233
REMARK                            x       y       z     vdW  Elec       q    Type
REMARK                         _______ _______ _______ _____ _____    ______ ____
ROOT
ATOM      1  C   LIG    1       -4.738  -0.118  -0.996  0.00  0.00    +0.121 A 
ATOM      2  C   LIG    1       -4.460   1.071  -0.337  0.00  0.00    +0.046 A 
ATOM      3  C   LIG    1       -3.185   1.601  -0.379  0.00  0.00    +0.008 A 
ATOM      4  C   LIG    1       -2.186   0.947  -1.076  0.00  0.00    -0.033 A 
ATOM      5  C   LIG    1       -2.462  -0.235  -1.739  0.00  0.00    +0.008 A 
ATOM      6  C   LIG    1       -3.734  -0.772  -1.696  0.00  0.00    +0.046 A 
ENDROOT
BRANCH   1   7
ATOM      7  O   LIG    1       -5.991  -0.641  -0.957  0.00  0.00    -0.487 OA
BRANCH   7   8
ATOM      8  C   LIG    1       -6.205  -1.868  -1.658  0.00  0.00    +0.264 C 
BRANCH   8  12
ATOM      9  C   LIG    1      -10.280  -3.069  -1.218  0.00  0.00    +0.000 A 
ATOM     10  C   LIG    1       -9.909  -2.261  -2.276  0.00  0.00    +0.000 A 
ATOM     11  C   LIG    1       -8.590  -1.872  -2.418  0.00  0.00    +0.007 A 
ATOM     12  C   LIG    1       -7.643  -2.291  -1.503  0.00  0.00    -0.010 A 
ATOM     13  C   LIG    1       -8.014  -3.105  -0.448  0.00  0.00    +0.007 A 
ATOM     14  C   LIG    1       -9.334  -3.489  -0.303  0.00  0.00    +0.000 A 
ENDBRANCH   8  12
ENDBRANCH   7   8
ENDBRANCH   1   7
BRANCH   4  15
ATOM     15  C   LIG    1       -0.795   1.527  -1.120  0.00  0.00    +0.116 C 
BRANCH  15  16
ATOM     16  N   LIG    1       -0.012   1.005   0.008  0.00  0.00    -0.304 NA
ATOM     17  H   LIG    1       -0.497   1.287   0.954  0.00  0.00    +0.123 HD
BRANCH  16  18
ATOM     18  C   LIG    1        1.353   1.550  -0.003  0.00  0.00    +0.177 C 
BRANCH  18  19
ATOM     19  C   LIG    1        2.125   0.993   1.166  0.00  0.00    +0.224 C 
ATOM     20  N   LIG    1        3.408   1.356   1.360  0.00  0.00    -0.328 N 
ATOM     21  H   LIG    1        3.892   2.059   0.665  0.00  0.00    +0.145 HD
ATOM     22  H   LIG    1        3.972   0.949   2.212  0.00  0.00    +0.145 HD
ATOM     23  O   LIG    1        1.591   0.218   1.931  0.00  0.00    -0.275 OA
ENDBRANCH  18  19
ENDBRANCH  16  18
ENDBRANCH  15  16
ENDBRANCH   4  15
TORSDOF 7
