REMARK  Name = ZINC29063500
REMARK                            x       y       z     vdW  Elec       q    Type
REMARK                         _______ _______ _______ _____ _____    ______ ____
ROOT
ATOM      1  C   LIG    1        1.453   0.150   2.248  0.00  0.00    +0.012 A 
ATOM      2  C   LIG    1        1.833   0.155   3.668  0.00  0.00    -0.002 A 
ATOM      3  C   LIG    1        1.077  -0.505   4.636  0.00  0.00    +0.024 A 
ATOM      4  C   LIG    1        1.483  -0.466   5.954  0.00  0.00    +0.018 A 
ATOM      5 BR   LIG    1        0.464  -1.358   7.273  0.00  0.00    -0.050 Br
ATOM      6  C   LIG    1        2.633   0.223   6.322  0.00  0.00    +0.016 A 
ATOM      7  C   LIG    1        3.388   0.875   5.388  0.00  0.00    +0.015 A 
ATOM      8  C   LIG    1        3.001   0.852   4.048  0.00  0.00    +0.047 A 
ATOM      9  C   LIG    1        3.774   1.536   3.005  0.00  0.00    +0.259 A 
ATOM     10  N   LIG    1        3.358   1.477   1.725  0.00  0.00    -0.309 N 
ATOM     11  O   LIG    1        4.787   2.147   3.293  0.00  0.00    -0.267 OA
ATOM     12  C   LIG    1        2.230   0.810   1.353  0.00  0.00    +0.056 A 
ENDROOT
BRANCH   1  16
ATOM     13  C   LIG    1       -2.036  -1.909   0.960  0.00  0.00    +0.000 A 
ATOM     14  C   LIG    1       -0.932  -2.625   1.387  0.00  0.00    +0.001 A 
ATOM     15  C   LIG    1        0.204  -1.962   1.806  0.00  0.00    +0.008 A 
ATOM     16  C   LIG    1        0.237  -0.568   1.798  0.00  0.00    -0.016 A 
ATOM     17  C   LIG    1       -0.881   0.148   1.373  0.00  0.00    +0.008 A 
ATOM     18  C   LIG    1       -2.009  -0.526   0.951  0.00  0.00    +0.001 A 
ENDBRANCH   1  16
BRANCH  10  19
ATOM     19  C   LIG    1        4.145   2.160   0.696  0.00  0.00    +0.128 C 
BRANCH  19  20
ATOM     20  C   LIG    1        3.942   3.672   0.818  0.00  0.00    +0.009 C 
ATOM     21  C   LIG    1        2.482   4.016   0.517  0.00  0.00    +0.005 C 
ATOM     22  C   LIG    1        2.278   5.527   0.639  0.00  0.00    +0.000 C 
ATOM     23  C   LIG    1        3.187   6.247  -0.359  0.00  0.00    +0.000 C 
ATOM     24  C   LIG    1        4.648   5.903  -0.059  0.00  0.00    +0.000 C 
ATOM     25  C   LIG    1        4.851   4.391  -0.181  0.00  0.00    +0.005 C 
ENDBRANCH  19  20
ENDBRANCH  10  19
BRANCH  12  26
ATOM     26  C   LIG    1        1.835   0.800  -0.101  0.00  0.00    +0.209 C 
BRANCH  26  27
ATOM     27  O   LIG    1        2.634  -0.152  -0.805  0.00  0.00    -0.389 OA
ATOM     28  H   LIG    1        2.489  -0.300  -1.886  0.00  0.00    +0.210 HD
ENDBRANCH  26  27
ENDBRANCH  12  26
TORSDOF 5
