REMARK  Name = ZINC66138253
REMARK                            x       y       z     vdW  Elec       q    Type
REMARK                         _______ _______ _______ _____ _____    ______ ____
ROOT
ATOM      1  C   LIG    1        5.859   3.470  -0.037  0.00  0.00    +0.114 A 
ATOM      2  C   LIG    1        5.832   4.869  -0.024  0.00  0.00    +0.037 A 
ATOM      3  C   LIG    1        7.012   5.562  -0.031  0.00  0.00    +0.017 A 
ATOM      4  C   LIG    1        8.214   4.839  -0.052  0.00  0.00    +0.055 A 
ATOM      5  C   LIG    1        8.168   3.442  -0.064  0.00  0.00    +0.125 A 
ATOM      6  N   LIG    1        7.015   2.811  -0.051  0.00  0.00    -0.246 NA
ENDROOT
BRANCH   4   7
ATOM      7  C   LIG    1        9.511   5.544  -0.061  0.00  0.00    +0.246 C 
ATOM      8  N   LIG    1       10.660   4.840  -0.081  0.00  0.00    -0.308 N 
ATOM      9  H   LIG    1       10.635   3.871  -0.089  0.00  0.00    +0.149 HD
ATOM     10  O   LIG    1        9.542   6.759  -0.051  0.00  0.00    -0.270 OA
BRANCH   8  11
ATOM     11  C   LIG    1       11.947   5.540  -0.090  0.00  0.00    +0.073 C 
ATOM     12  C   LIG    1       12.675   5.474  -1.444  0.00  0.00    +0.022 C 
ATOM     13  C   LIG    1       13.975   5.282  -0.646  0.00  0.00    +0.004 C 
ATOM     14  C   LIG    1       13.105   4.707   0.484  0.00  0.00    +0.022 C 
ENDBRANCH   8  11
ENDBRANCH   4   7
BRANCH   1  16
ATOM     15  C   LIG    1        3.618   2.139  -0.021  0.00  0.00    -0.059 C 
ATOM     16  C   LIG    1        4.627   2.739  -0.028  0.00  0.00    -0.041 C 
BRANCH  15  19
ATOM     17  C   LIG    1       -0.017   1.379   0.010  0.00  0.00    +0.004 A 
ATOM     18  C   LIG    1        1.166   2.089   0.002  0.00  0.00    +0.017 A 
ATOM     19  C   LIG    1        2.387   1.408  -0.013  0.00  0.00    +0.028 A 
ATOM     20  C   LIG    1        2.400   0.011  -0.021  0.00  0.00    +0.055 A 
ATOM     21  C   LIG    1        1.208  -0.687  -0.013  0.00  0.00    +0.125 A 
ATOM     22  F   LIG    1        1.218  -2.038  -0.021  0.00  0.00    -0.205 F 
ATOM     23  C   LIG    1        0.002  -0.004   0.002  0.00  0.00    +0.038 A 
ENDBRANCH  15  19
ENDBRANCH   1  16
TORSDOF 4
