REMARK  Name = ZINC15923721
REMARK                            x       y       z     vdW  Elec       q    Type
REMARK                         _______ _______ _______ _____ _____    ______ ____
ROOT
ATOM      1  C   LIG    1       -0.017   1.384   0.010  0.00  0.00    +0.021 A 
ATOM      2  C   LIG    1        1.152   2.093   0.002  0.00  0.00    +0.018 A 
ATOM      3  C   LIG    1        2.373   1.419  -0.013  0.00  0.00    +0.084 A 
ATOM      4  C   LIG    1        2.397   0.015  -0.021  0.00  0.00    +0.172 A 
ATOM      5  O   LIG    1        3.692  -0.362  -0.036  0.00  0.00    -0.351 OA
ATOM      6  N   LIG    1        4.516   0.787  -0.038  0.00  0.00    -0.039 NA
ATOM      7  C   LIG    1        1.200  -0.689  -0.013  0.00  0.00    +0.069 A 
ATOM      8  C   LIG    1        3.775   1.858  -0.025  0.00  0.00    +0.260 A 
ATOM      9  C   LIG    1        0.002  -0.004   0.002  0.00  0.00    +0.045 A 
ATOM     10 CL   LIG    1       -1.494  -0.885   0.012  0.00  0.00    -0.083 Cl
ENDROOT
BRANCH   8  11
ATOM     11  O   LIG    1        4.216   3.140  -0.023  0.00  0.00    -0.490 OA
ATOM     12  H   LIG    1        3.601   3.847  -0.013  0.00  0.00    +0.294 HD
ENDBRANCH   8  11
TORSDOF 1
