REMARK  Name = ZINC26740955
REMARK                            x       y       z     vdW  Elec       q    Type
REMARK                         _______ _______ _______ _____ _____    ______ ____
ROOT
ATOM      1  C   LIG    1        1.970  -2.655  -1.282  0.00  0.00    +0.222 C 
ENDROOT
BRANCH   1   2
ATOM      2  P   LIG    1        1.078  -2.057  -2.755  0.00  0.00    +0.343 P 
ATOM      3  O   LIG    1       -0.367  -2.603  -2.739  0.00  0.00    -0.258 OA
BRANCH   2   4
ATOM      4  O   LIG    1        1.830  -2.569  -4.083  0.00  0.00    -0.323 OA
ATOM      5  H   LIG    1        1.410  -2.288  -4.907  0.00  0.00    +0.220 HD
ENDBRANCH   2   4
BRANCH   2   6
ATOM      6  O   LIG    1        1.045  -0.512  -2.746  0.00  0.00    -0.323 OA
ATOM      7  H   LIG    1        0.591  -0.203  -1.946  0.00  0.00    +0.220 HD
ENDBRANCH   2   6
ENDBRANCH   1   2
BRANCH   1   8
ATOM      8  P   LIG    1        2.009  -4.477  -1.294  0.00  0.00    +0.343 P 
ATOM      9  O   LIG    1        2.658  -4.994   0.035  0.00  0.00    -0.258 OA
BRANCH   8  10
ATOM     10  O   LIG    1        2.856  -4.973  -2.515  0.00  0.00    -0.323 OA
ATOM     11  H   LIG    1        3.760  -4.631  -2.442  0.00  0.00    +0.220 HD
ENDBRANCH   8  10
BRANCH   8  12
ATOM     12  O   LIG    1        0.548  -5.030  -1.411  0.00  0.00    -0.323 OA
ATOM     13  H   LIG    1        0.024  -4.723  -0.655  0.00  0.00    +0.220 HD
ENDBRANCH   8  12
ENDBRANCH   1   8
BRANCH   1  14
ATOM     14  C   LIG    1        1.255  -2.168  -0.021  0.00  0.00    +0.083 C 
BRANCH  14  19
ATOM     15  C   LIG    1        0.285   1.466   0.239  0.00  0.00    +0.003 A 
ATOM     16  C   LIG    1        1.546   2.043   0.204  0.00  0.00    +0.020 A 
ATOM     17  C   LIG    1        2.657   1.229   0.099  0.00  0.00    +0.111 A 
ATOM     18  N   LIG    1        2.529  -0.082   0.031  0.00  0.00    -0.260 NA
ATOM     19  C   LIG    1        1.346  -0.666   0.061  0.00  0.00    +0.043 A 
ATOM     20  C   LIG    1        0.190   0.085   0.166  0.00  0.00    +0.023 A 
ENDBRANCH  14  19
ENDBRANCH   1  14
TORSDOF 8
