REMARK  Name = ZINC13831234
REMARK                            x       y       z     vdW  Elec       q    Type
REMARK                         _______ _______ _______ _____ _____    ______ ____
ROOT
ATOM      1  C   LIG    1       -0.382   0.518   2.802  0.00  0.00    +0.001 A 
ATOM      2  C   LIG    1        0.724   1.340   2.920  0.00  0.00    +0.001 A 
ATOM      3  C   LIG    1        1.960   0.921   2.463  0.00  0.00    +0.012 A 
ATOM      4  C   LIG    1        2.094  -0.336   1.879  0.00  0.00    +0.033 A 
ATOM      5  C   LIG    1        0.970  -1.171   1.758  0.00  0.00    +0.033 A 
ATOM      6  C   LIG    1        1.103  -2.507   1.139  0.00  0.00    +0.196 C 
ATOM      7  C   LIG    1        2.413  -2.960   0.650  0.00  0.00    +0.056 A 
ATOM      8  C   LIG    1        2.552  -4.221   0.061  0.00  0.00    +0.045 A 
ATOM      9  C   LIG    1        3.804  -4.640  -0.400  0.00  0.00    +0.055 A 
ATOM     10  C   LIG    1        4.894  -3.830  -0.283  0.00  0.00    +0.140 A 
ATOM     11  C   LIG    1        4.783  -2.564   0.301  0.00  0.00    +0.064 A 
ATOM     12  C   LIG    1        3.542  -2.122   0.771  0.00  0.00    +0.057 A 
ATOM     13  O   LIG    1        0.130  -3.229   1.035  0.00  0.00    -0.287 OA
ATOM     14  C   LIG    1        3.411  -0.792   1.387  0.00  0.00    +0.196 C 
ATOM     15  O   LIG    1        4.384  -0.070   1.491  0.00  0.00    -0.287 OA
ATOM     16  C   LIG    1       -0.267  -0.733   2.224  0.00  0.00    +0.012 A 
ENDROOT
BRANCH  10  17
ATOM     17  S   LIG    1        6.460  -4.383  -0.873  0.00  0.00    +0.111 S 
ATOM     18  O   LIG    1        7.465  -3.853   0.035  0.00  0.00    -0.142 OA
ATOM     19  O   LIG    1        6.614  -3.857  -2.220  0.00  0.00    -0.142 OA
BRANCH  17  20
ATOM     20  O   LIG    1        6.427  -5.838  -0.858  0.00  0.00    -0.250 OA
ATOM     21  H   LIG    1        5.746  -6.152  -1.474  0.00  0.00    +0.245 HD
ENDBRANCH  17  20
ENDBRANCH  10  17
BRANCH  11  22
ATOM     22  N   LIG    1        5.900  -1.751   0.415  0.00  0.00    -0.356 N 
ATOM     23  H   LIG    1        5.957  -1.104   1.135  0.00  0.00    +0.142 HD
ATOM     24  H   LIG    1        6.624  -1.829  -0.226  0.00  0.00    +0.142 HD
ENDBRANCH  11  22
BRANCH   8  25
ATOM     25  N   LIG    1        1.451  -5.055  -0.063  0.00  0.00    -0.314 N 
ATOM     26  H   LIG    1        1.306  -5.766   0.580  0.00  0.00    +0.152 HD
BRANCH  25  27
ATOM     27  C   LIG    1        0.551  -4.871  -1.116  0.00  0.00    +0.031 A 
ATOM     28  C   LIG    1        0.775  -3.873  -2.057  0.00  0.00    +0.024 A 
ATOM     29  C   LIG    1       -0.116  -3.694  -3.097  0.00  0.00    +0.022 A 
ATOM     30  C   LIG    1       -1.231  -4.506  -3.201  0.00  0.00    +0.041 A 
ATOM     31 CL   LIG    1       -2.350  -4.277  -4.509  0.00  0.00    -0.084 Cl
ATOM     32  C   LIG    1       -1.458  -5.500  -2.265  0.00  0.00    +0.022 A 
ATOM     33  C   LIG    1       -0.567  -5.688  -1.227  0.00  0.00    +0.024 A 
ENDBRANCH  25  27
ENDBRANCH   8  25
TORSDOF 5
