REMARK  Name = ZINC19365774
REMARK                            x       y       z     vdW  Elec       q    Type
REMARK                         _______ _______ _______ _____ _____    ______ ____
ROOT
ATOM      1  C   LIG    1        2.898   0.446   1.414  0.00  0.00    -0.074 C 
ENDROOT
BRANCH   1   3
ATOM      2  C   LIG    1        3.996   2.499   0.750  0.00  0.00    -0.096 C 
ATOM      3  N   LIG    1        4.161   1.195   1.406  0.00  0.00    +0.379 N 
ATOM      4  H   LIG    1        4.894   0.615   0.825  0.00  0.00    -0.082 HD
BRANCH   3   5
ATOM      5  C   LIG    1        4.688   1.353   2.768  0.00  0.00    -0.064 C 
BRANCH   5   6
ATOM      6  C   LIG    1        6.111   1.911   2.703  0.00  0.00    +0.066 C 
BRANCH   6   7
ATOM      7  N   LIG    1        6.638   2.069   4.065  0.00  0.00    -0.304 NA
ATOM      8  C   LIG    1        6.505   0.808   4.837  0.00  0.00    +0.084 C 
ATOM      9  C   LIG    1        7.538   0.980   5.979  0.00  0.00    +0.017 C 
ATOM     10  C   LIG    1        8.709   1.707   5.279  0.00  0.00    +0.017 C 
ATOM     11  C   LIG    1        8.085   2.377   4.041  0.00  0.00    +0.084 C 
ENDBRANCH   6   7
ENDBRANCH   5   6
ENDBRANCH   3   5
ENDBRANCH   1   3
BRANCH   1  12
ATOM     12  C   LIG    1        2.510   0.085  -0.021  0.00  0.00    +0.018 C 
BRANCH  12  13
ATOM     13  C   LIG    1        1.213  -0.684  -0.013  0.00  0.00    -0.028 A 
ATOM     14  C   LIG    1        1.228  -2.065  -0.020  0.00  0.00    +0.005 A 
ATOM     15  C   LIG    1        0.040  -2.771  -0.012  0.00  0.00    +0.000 A 
ATOM     16  C   LIG    1       -1.168  -2.097   0.003  0.00  0.00    +0.002 A 
ATOM     17  C   LIG    1       -1.190  -0.717   0.015  0.00  0.00    +0.023 A 
ATOM     18  C   LIG    1        0.002  -0.004   0.002  0.00  0.00    +0.028 A 
BRANCH  18  19
ATOM     19  N   LIG    1       -0.017   1.393   0.010  0.00  0.00    -0.358 N 
ATOM     20  H   LIG    1        0.928   1.955   0.004  0.00  0.00    +0.142 HD
ATOM     21  H   LIG    1       -0.977   1.929   0.022  0.00  0.00    +0.142 HD
ENDBRANCH  18  19
ENDBRANCH  12  13
ENDBRANCH   1  12
TORSDOF 7
