REMARK  Name = ZINC29482863
REMARK                            x       y       z     vdW  Elec       q    Type
REMARK                         _______ _______ _______ _____ _____    ______ ____
ROOT
ATOM      1  C   LIG    1        0.383  -0.193  -2.822  0.00  0.00    +0.010 A 
ATOM      2  C   LIG    1        0.942  -0.405  -4.070  0.00  0.00    +0.049 A 
ATOM      3  C   LIG    1        1.016   0.635  -4.982  0.00  0.00    +0.159 A 
ATOM      4  C   LIG    1        0.527   1.894  -4.641  0.00  0.00    +0.164 A 
ATOM      5  C   LIG    1       -0.030   2.099  -3.393  0.00  0.00    +0.029 A 
ATOM      6  C   LIG    1       -0.636   3.313  -2.728  0.00  0.00    +0.200 C 
ATOM      7  O   LIG    1       -0.651   3.026  -1.318  0.00  0.00    -0.369 OA
ATOM      8  C   LIG    1       -0.753   1.593  -1.232  0.00  0.00    +0.132 C 
ATOM      9  C   LIG    1       -0.101   1.054  -2.484  0.00  0.00    -0.012 A 
ENDROOT
BRANCH   3  10
ATOM     10  O   LIG    1        1.565   0.427  -6.209  0.00  0.00    -0.503 OA
ATOM     11  H   LIG    1        1.623   1.254  -6.933  0.00  0.00    +0.292 HD
ENDBRANCH   3  10
BRANCH   4  12
ATOM     12  O   LIG    1        0.597   2.918  -5.533  0.00  0.00    -0.503 OA
ATOM     13  H   LIG    1        0.210   3.911  -5.262  0.00  0.00    +0.292 HD
ENDBRANCH   4  12
BRANCH   8  14
ATOM     14  C   LIG    1       -0.013   1.086   0.008  0.00  0.00    -0.050 C 
BRANCH  14  15
ATOM     15  N   LIG    1       -0.700   1.560   1.217  0.00  0.00    +0.380 N 
ATOM     16  H   LIG    1       -0.715   2.659   1.223  0.00  0.00    -0.090 HD
ATOM     17  H   LIG    1       -1.732   1.179   1.224  0.00  0.00    -0.090 HD
ATOM     18  H   LIG    1       -0.168   1.195   2.108  0.00  0.00    -0.090 HD
ENDBRANCH  14  15
ENDBRANCH   8  14
TORSDOF 4
