REMARK  Name = ZINC00001436
REMARK                            x       y       z     vdW  Elec       q    Type
REMARK                         _______ _______ _______ _____ _____    ______ ____
ROOT
ATOM      1  C   LIG    1        3.372  -1.250  -0.036  0.00  0.00    +0.403 C 
ATOM      2  N   LIG    1        4.643  -0.803  -0.049  0.00  0.00    -0.254 N 
ATOM      3  H   LIG    1        4.822   0.148  -0.120  0.00  0.00    +0.158 HD
ATOM      4  O   LIG    1        3.147  -2.447  -0.032  0.00  0.00    -0.230 OA
ENDROOT
BRANCH   1  11
ATOM      5  C   LIG    1       -0.018   1.461  -0.013  0.00  0.00    +0.229 C 
ATOM      6  N   LIG    1        0.002  -0.004  -0.009  0.00  0.00    -0.214 N 
ATOM      7  C   LIG    1       -1.160  -0.911  -0.003  0.00  0.00    +0.302 C 
ATOM      8  C   LIG    1       -0.531  -2.290  -0.002  0.00  0.00    +0.299 C 
ATOM      9  N   LIG    1        0.761  -2.110  -0.007  0.00  0.00    -0.037 NA
ATOM     10  C   LIG    1        1.103  -0.817  -0.017  0.00  0.00    +0.418 C 
ATOM     11  N   LIG    1        2.355  -0.377  -0.029  0.00  0.00    +0.016 NA
BRANCH   8  12
ATOM     12  O   LIG    1       -1.178  -3.466   0.002  0.00  0.00    -0.482 OA
ATOM     13  H   LIG    1       -2.114  -3.486   0.005  0.00  0.00    +0.295 HD
ENDBRANCH   8  12
ENDBRANCH   1  11
BRANCH   2  14
ATOM     14  C   LIG    1        5.704  -1.710   0.042  0.00  0.00    +0.038 A 
ATOM     15  C   LIG    1        6.858  -1.364   0.733  0.00  0.00    +0.023 A 
ATOM     16  C   LIG    1        7.904  -2.262   0.821  0.00  0.00    +0.003 A 
ATOM     17  C   LIG    1        7.804  -3.503   0.221  0.00  0.00    +0.020 A 
ATOM     18  C   LIG    1        6.656  -3.851  -0.469  0.00  0.00    +0.043 A 
ATOM     19 CL   LIG    1        6.535  -5.411  -1.221  0.00  0.00    -0.083 Cl
ATOM     20  C   LIG    1        5.604  -2.959  -0.555  0.00  0.00    +0.043 A 
ENDBRANCH   2  14
TORSDOF 3
