REMARK  Name = ZINC15606685
REMARK                            x       y       z     vdW  Elec       q    Type
REMARK                         _______ _______ _______ _____ _____    ______ ____
ROOT
ATOM      1  N   LIG    1        4.039   0.141  -1.704  0.00  0.00    -0.284 N 
ATOM      2  H   LIG    1        4.635  -0.101  -0.978  0.00  0.00    +0.155 HD
ATOM      3  C   LIG    1        2.882   0.782  -1.442  0.00  0.00    +0.222 C 
ATOM      4  O   LIG    1        2.187   1.176  -2.354  0.00  0.00    -0.275 OA
ENDROOT
BRANCH   1   6
ATOM      5  C   LIG    1        5.707  -0.353  -3.409  0.00  0.00    +0.117 A 
ATOM      6  C   LIG    1        4.380  -0.172  -3.020  0.00  0.00    +0.055 A 
ATOM      7  C   LIG    1        3.421  -0.313  -4.001  0.00  0.00    +0.032 A 
ATOM      8  C   LIG    1        3.807  -0.619  -5.265  0.00  0.00    +0.048 A 
ATOM      9  S   LIG    1        5.532  -0.725  -5.145  0.00  0.00    -0.088 S 
BRANCH   5  10
ATOM     10  C   LIG    1        6.884  -0.267  -2.629  0.00  0.00    +0.347 C 
ATOM     11  O   LIG    1        6.811  -0.002  -1.444  0.00  0.00    -0.244 OA
BRANCH  10  13
ATOM     12  C   LIG    1        9.235  -0.376  -2.353  0.00  0.00    +0.280 C 
ATOM     13  O   LIG    1        8.088  -0.479  -3.200  0.00  0.00    -0.464 OA
ENDBRANCH  10  13
ENDBRANCH   5  10
ENDBRANCH   1   6
BRANCH   3  14
ATOM     14  C   LIG    1        2.453   1.008  -0.015  0.00  0.00    +0.131 C 
BRANCH  14  15
ATOM     15  C   LIG    1        1.136   1.740   0.003  0.00  0.00    -0.038 A 
ATOM     16  C   LIG    1        1.125   3.133   0.021  0.00  0.00    +0.005 A 
ATOM     17  C   LIG    1       -0.047   3.825   0.037  0.00  0.00    +0.009 A 
ATOM     18  C   LIG    1       -1.266   3.126   0.037  0.00  0.00    -0.018 A 
ATOM     19  C   LIG    1       -2.497   3.806   0.054  0.00  0.00    +0.008 A 
ATOM     20  C   LIG    1       -3.658   3.096   0.053  0.00  0.00    +0.001 A 
ATOM     21  C   LIG    1       -3.647   1.702   0.035  0.00  0.00    +0.001 A 
ATOM     22  C   LIG    1       -2.475   1.011   0.018  0.00  0.00    +0.008 A 
ATOM     23  C   LIG    1       -1.256   1.709   0.013  0.00  0.00    -0.018 A 
ATOM     24  C   LIG    1       -0.025   1.030   0.002  0.00  0.00    +0.012 A 
ENDBRANCH  14  15
ENDBRANCH   3  14
TORSDOF 5
