REMARK  Name = ZINC72177927
REMARK                            x       y       z     vdW  Elec       q    Type
REMARK                         _______ _______ _______ _____ _____    ______ ____
ROOT
ATOM      1  C   LIG    1        3.745  -0.715   0.030  0.00  0.00    +0.279 C 
ATOM      2  N   LIG    1        3.753  -2.062  -0.002  0.00  0.00    -0.195 N 
ATOM      3  C   LIG    1        4.878  -2.852  -0.103  0.00  0.00    +0.079 A 
ATOM      4  C   LIG    1        6.238  -2.576  -0.199  0.00  0.00    +0.028 A 
ATOM      5  C   LIG    1        7.141  -3.613  -0.290  0.00  0.00    +0.002 A 
ATOM      6  C   LIG    1        6.705  -4.931  -0.288  0.00  0.00    +0.001 A 
ATOM      7  C   LIG    1        5.373  -5.222  -0.195  0.00  0.00    +0.012 A 
ATOM      8  C   LIG    1        4.442  -4.187  -0.102  0.00  0.00    +0.033 A 
ATOM      9  C   LIG    1        2.977  -4.143   0.009  0.00  0.00    +0.156 A 
ATOM     10  N   LIG    1        2.621  -2.881   0.070  0.00  0.00    -0.158 NA
ATOM     11  O   LIG    1        4.779  -0.097  -0.130  0.00  0.00    -0.265 OA
ENDROOT
BRANCH   1  15
ATOM     12  C   LIG    1        0.106   1.372   0.686  0.00  0.00    +0.000 A 
ATOM     13  C   LIG    1        1.301   2.069   0.643  0.00  0.00    +0.001 A 
ATOM     14  C   LIG    1        2.487   1.397   0.430  0.00  0.00    +0.013 A 
ATOM     15  C   LIG    1        2.479   0.011   0.259  0.00  0.00    +0.041 A 
ATOM     16  C   LIG    1        1.270  -0.685   0.304  0.00  0.00    +0.013 A 
ATOM     17  C   LIG    1        0.091  -0.001   0.517  0.00  0.00    +0.001 A 
ENDBRANCH   1  15
BRANCH   9  18
ATOM     18  C   LIG    1        2.070  -5.306   0.049  0.00  0.00    +0.269 C 
ATOM     19  N   LIG    1        0.739  -5.120   0.152  0.00  0.00    -0.280 N 
ATOM     20  H   LIG    1        0.371  -4.223   0.124  0.00  0.00    +0.155 HD
ATOM     21  O   LIG    1        2.524  -6.433  -0.011  0.00  0.00    -0.268 OA
BRANCH  19  22
ATOM     22  C   LIG    1       -0.111  -6.221   0.300  0.00  0.00    +0.034 A 
ATOM     23  C   LIG    1       -1.382  -6.198  -0.259  0.00  0.00    +0.023 A 
ATOM     24  C   LIG    1       -2.219  -7.286  -0.111  0.00  0.00    +0.002 A 
ATOM     25  C   LIG    1       -1.794  -8.397   0.594  0.00  0.00    +0.000 A 
ATOM     26  C   LIG    1       -0.529  -8.423   1.152  0.00  0.00    +0.002 A 
ATOM     27  C   LIG    1        0.316  -7.340   1.003  0.00  0.00    +0.023 A 
ENDBRANCH  19  22
ENDBRANCH   9  18
TORSDOF 3
