REMARK  Name = ZINC27736734
REMARK                            x       y       z     vdW  Elec       q    Type
REMARK                         _______ _______ _______ _____ _____    ______ ____
ROOT
ATOM      1  C   LIG    1       -2.507   0.982   0.019  0.00  0.00    +0.044 C 
ATOM      2  C   LIG    1       -1.213   1.754   0.017  0.00  0.00    -0.050 A 
ATOM      3  C   LIG    1       -1.240   3.142   0.030  0.00  0.00    +0.005 A 
ATOM      4  C   LIG    1       -0.072   3.871   0.022  0.00  0.00    +0.029 A 
ATOM      5  C   LIG    1        1.157   3.207   0.008  0.00  0.00    +0.082 A 
ATOM      6  C   LIG    1        1.181   1.794   0.000  0.00  0.00    +0.085 A 
ATOM      7  C   LIG    1        2.492   1.127  -0.015  0.00  0.00    +0.348 A 
ATOM      8  O   LIG    1        3.590   1.915  -0.021  0.00  0.00    -0.403 OA
ATOM      9  C   LIG    1        3.478   3.254  -0.013  0.00  0.00    +0.233 A 
ATOM     10  O   LIG    1        2.584  -0.085  -0.021  0.00  0.00    -0.244 OA
ATOM     11  N   LIG    1        2.332   3.881   0.001  0.00  0.00    -0.212 NA
ATOM     12  C   LIG    1       -0.013   1.076   0.008  0.00  0.00    +0.020 A 
ENDROOT
BRANCH   9  13
ATOM     13  C   LIG    1        4.716   4.059  -0.019  0.00  0.00    +0.050 A 
ATOM     14  C   LIG    1        5.962   3.430  -0.033  0.00  0.00    +0.014 A 
ATOM     15  C   LIG    1        7.114   4.188  -0.039  0.00  0.00    +0.001 A 
ATOM     16  C   LIG    1        7.037   5.570  -0.032  0.00  0.00    +0.001 A 
ATOM     17  C   LIG    1        5.807   6.200  -0.018  0.00  0.00    +0.015 A 
ATOM     18  C   LIG    1        4.645   5.454  -0.017  0.00  0.00    +0.026 A 
ATOM     19  I   LIG    1        2.782   6.412  -0.005  0.00  0.00    -0.043 I 
ENDBRANCH   9  13
TORSDOF 1
