REMARK  Name = ZINC14049704
REMARK                            x       y       z     vdW  Elec       q    Type
REMARK                         _______ _______ _______ _____ _____    ______ ____
ROOT
ATOM      1  N   LIG    1        0.532  -2.362   0.134  0.00  0.00    -0.324 N 
ATOM      2  C   LIG    1        0.958  -3.012   1.382  0.00  0.00    +0.124 C 
ATOM      3  C   LIG    1        0.850  -4.531   1.203  0.00  0.00    +0.127 C 
ATOM      4  N   LIG    1        1.516  -4.905  -0.053  0.00  0.00    -0.293 N 
ATOM      5  C   LIG    1        2.498  -5.827  -0.060  0.00  0.00    +0.267 C 
ATOM      6  O   LIG    1        2.929  -6.266   0.989  0.00  0.00    -0.268 OA
ATOM      7  C   LIG    1        1.090  -4.255  -1.300  0.00  0.00    +0.127 C 
ATOM      8  C   LIG    1        1.194  -2.739  -1.123  0.00  0.00    +0.124 C 
ENDROOT
BRANCH   1  14
ATOM      9  C   LIG    1       -0.180  -0.056   0.315  0.00  0.00    +0.141 A 
ATOM     10  C   LIG    1       -1.194   0.888   0.316  0.00  0.00    +0.047 A 
ATOM     11  C   LIG    1       -2.508   0.491   0.151  0.00  0.00    +0.004 A 
ATOM     12  C   LIG    1       -2.816  -0.846  -0.014  0.00  0.00    +0.002 A 
ATOM     13  C   LIG    1       -1.810  -1.794  -0.017  0.00  0.00    +0.027 A 
ATOM     14  C   LIG    1       -0.488  -1.404   0.142  0.00  0.00    +0.072 A 
BRANCH   9  16
ATOM     15  C   LIG    1        1.354   1.730   0.649  0.00  0.00    +0.277 C 
ATOM     16  O   LIG    1        1.113   0.332   0.477  0.00  0.00    -0.493 OA
ENDBRANCH   9  16
ENDBRANCH   1  14
BRANCH   5  17
ATOM     17  C   LIG    1        3.053  -6.306  -1.344  0.00  0.00    +0.148 A 
ATOM     18  C   LIG    1        4.170  -7.153  -1.508  0.00  0.00    +0.062 A 
ATOM     19  C   LIG    1        4.304  -7.320  -2.858  0.00  0.00    +0.066 A 
ATOM     20  N   LIG    1        3.307  -6.599  -3.446  0.00  0.00    -0.276 N 
ATOM     21  H   LIG    1        3.157  -6.533  -4.402  0.00  0.00    +0.189 HD
ATOM     22  N   LIG    1        2.592  -6.024  -2.547  0.00  0.00    -0.169 NA
BRANCH  19  23
ATOM     23  C   LIG    1        5.334  -8.127  -3.549  0.00  0.00    -0.000 A 
ATOM     24  C   LIG    1        6.294  -8.819  -2.810  0.00  0.00    +0.011 A 
ATOM     25  C   LIG    1        7.252  -9.570  -3.459  0.00  0.00    +0.020 A 
ATOM     26  C   LIG    1        7.262  -9.638  -4.842  0.00  0.00    +0.041 A 
ATOM     27 CL   LIG    1        8.470 -10.585  -5.653  0.00  0.00    -0.084 Cl
ATOM     28  C   LIG    1        6.312  -8.953  -5.581  0.00  0.00    +0.020 A 
ATOM     29  C   LIG    1        5.346  -8.204  -4.942  0.00  0.00    +0.011 A 
ENDBRANCH  19  23
ENDBRANCH   5  17
TORSDOF 4
