REMARK  Name = ZINC58538075
REMARK                            x       y       z     vdW  Elec       q    Type
REMARK                         _______ _______ _______ _____ _____    ______ ____
ROOT
ATOM      1  N   LIG    1        0.983  -0.024  -3.136  0.00  0.00    +0.384 N 
ATOM      2  H   LIG    1        1.603  -0.815  -3.053  0.00  0.00    -0.081 HD
ATOM      3  C   LIG    1        1.557   1.121  -2.418  0.00  0.00    -0.059 C 
ATOM      4  C   LIG    1        2.965   1.403  -2.951  0.00  0.00    +0.086 C 
ATOM      5  N   LIG    1        2.884   1.580  -4.410  0.00  0.00    -0.331 N 
ATOM      6  C   LIG    1        2.179   0.555  -5.194  0.00  0.00    +0.086 C 
ATOM      7  C   LIG    1        0.807   0.313  -4.554  0.00  0.00    -0.059 C 
ENDROOT
BRANCH   5   8
ATOM      8  C   LIG    1        3.463   2.691  -5.033  0.00  0.00    +0.072 A 
ATOM      9  C   LIG    1        4.776   2.634  -5.479  0.00  0.00    +0.027 A 
ATOM     10  C   LIG    1        5.345   3.733  -6.094  0.00  0.00    +0.002 A 
ATOM     11  C   LIG    1        4.609   4.890  -6.268  0.00  0.00    +0.004 A 
ATOM     12  C   LIG    1        3.300   4.955  -5.826  0.00  0.00    +0.047 A 
ATOM     13  C   LIG    1        2.721   3.857  -5.213  0.00  0.00    +0.141 A 
BRANCH  13  14
ATOM     14  O   LIG    1        1.432   3.917  -4.783  0.00  0.00    -0.493 OA
ATOM     15  C   LIG    1        0.732   5.144  -5.001  0.00  0.00    +0.277 C 
ENDBRANCH  13  14
ENDBRANCH   5   8
BRANCH   1  16
ATOM     16  C   LIG    1       -0.321  -0.363  -2.550  0.00  0.00    -0.039 C 
BRANCH  16  19
ATOM     17  C   LIG    1       -0.341   1.478   0.029  0.00  0.00    +0.068 C 
ATOM     18  C   LIG    1       -0.137  -0.015   0.010  0.00  0.00    +0.062 A 
ATOM     19  C   LIG    1       -0.128  -0.827  -1.129  0.00  0.00    -0.020 A 
ATOM     20  C   LIG    1        0.084  -2.102  -0.730  0.00  0.00    +0.043 A 
ATOM     21  C   LIG    1        0.170  -3.312  -1.625  0.00  0.00    +0.066 C 
ATOM     22  N   LIG    1        0.205  -2.097   0.617  0.00  0.00    -0.237 N 
ATOM     23  N   LIG    1        0.067  -0.774   1.056  0.00  0.00    -0.171 NA
BRANCH  22  24
ATOM     24  C   LIG    1        0.432  -3.217   1.429  0.00  0.00    +0.066 A 
ATOM     25  C   LIG    1        1.350  -4.183   1.041  0.00  0.00    +0.028 A 
ATOM     26  C   LIG    1        1.571  -5.285   1.843  0.00  0.00    +0.002 A 
ATOM     27  C   LIG    1        0.880  -5.427   3.032  0.00  0.00    +0.000 A 
ATOM     28  C   LIG    1       -0.035  -4.466   3.422  0.00  0.00    +0.002 A 
ATOM     29  C   LIG    1       -0.256  -3.359   2.627  0.00  0.00    +0.028 A 
ENDBRANCH  22  24
ENDBRANCH  16  19
ENDBRANCH   1  16
TORSDOF 5
