REMARK  Name = ZINC27980293
REMARK                            x       y       z     vdW  Elec       q    Type
REMARK                         _______ _______ _______ _____ _____    ______ ____
ROOT
ATOM      1  C   LIG    1       -0.017   1.380   0.010  0.00  0.00    +0.000 A 
ATOM      2  C   LIG    1        1.167   2.096   0.002  0.00  0.00    +0.001 A 
ATOM      3  C   LIG    1        2.378   1.433  -0.026  0.00  0.00    +0.010 A 
ATOM      4  C   LIG    1        2.400   0.043  -0.039  0.00  0.00    +0.006 A 
ATOM      5  C   LIG    1        1.206  -0.676  -0.009  0.00  0.00    -0.038 A 
ATOM      6  C   LIG    1        1.252  -2.178   0.046  0.00  0.00    +0.036 C 
ATOM      7  C   LIG    1        1.558  -2.772  -1.324  0.00  0.00    +0.009 C 
ATOM      8  C   LIG    1        2.688  -2.005  -2.008  0.00  0.00    +0.038 C 
ATOM      9  C   LIG    1        3.811  -1.727  -1.050  0.00  0.00    -0.016 A 
ATOM     10  C   LIG    1        4.983  -2.450  -1.077  0.00  0.00    +0.051 A 
ATOM     11  C   LIG    1        5.981  -2.098  -0.162  0.00  0.00    +0.142 A 
ATOM     12  N   LIG    1        5.778  -1.099   0.685  0.00  0.00    -0.134 NA
ATOM     13  N   LIG    1        4.680  -0.433   0.717  0.00  0.00    -0.147 NA
ATOM     14  C   LIG    1        3.677  -0.705  -0.102  0.00  0.00    +0.097 A 
ATOM     15  C   LIG    1        0.002  -0.004   0.002  0.00  0.00    +0.004 A 
ENDROOT
BRANCH  11  16
ATOM     16  N   LIG    1        7.184  -2.794  -0.142  0.00  0.00    -0.326 N 
ATOM     17  H   LIG    1        7.876  -2.549   0.492  0.00  0.00    +0.148 HD
BRANCH  16  18
ATOM     18  C   LIG    1        7.407  -3.897  -1.079  0.00  0.00    +0.118 C 
BRANCH  18  19
ATOM     19  C   LIG    1        8.799  -4.489  -0.849  0.00  0.00    +0.103 C 
BRANCH  19  20
ATOM     20  N   LIG    1        9.023  -5.596  -1.789  0.00  0.00    -0.297 NA
ATOM     21  C   LIG    1        8.121  -6.720  -1.502  0.00  0.00    +0.112 C 
ATOM     22  C   LIG    1        8.345  -7.825  -2.538  0.00  0.00    +0.175 C 
ATOM     23  O   LIG    1        9.721  -8.216  -2.520  0.00  0.00    -0.377 OA
ATOM     24  C   LIG    1       10.627  -7.144  -2.796  0.00  0.00    +0.175 C 
ATOM     25  C   LIG    1       10.426  -6.033  -1.762  0.00  0.00    +0.112 C 
ENDBRANCH  19  20
ENDBRANCH  18  19
ENDBRANCH  16  18
ENDBRANCH  11  16
TORSDOF 4
