REMARK  Name = ZINC17105141
REMARK                            x       y       z     vdW  Elec       q    Type
REMARK                         _______ _______ _______ _____ _____    ______ ____
ROOT
ATOM      1  C   LIG    1       -0.018   1.461   0.010  0.00  0.00    +0.155 C 
ATOM      2  N   LIG    1        0.002  -0.004   0.002  0.00  0.00    -0.280 N 
ATOM      3  C   LIG    1       -1.190  -0.712   0.004  0.00  0.00    +0.168 A 
ATOM      4  C   LIG    1       -1.143  -2.103  -0.004  0.00  0.00    +0.149 A 
ATOM      5  N   LIG    1       -2.454  -2.539   0.000  0.00  0.00    -0.332 N 
ATOM      6  C   LIG    1       -3.238  -1.426   0.011  0.00  0.00    +0.141 A 
ATOM      7  H   LIG    1       -2.757  -3.461  -0.003  0.00  0.00    +0.168 HD
ATOM      8  C   LIG    1        0.112  -2.748  -0.013  0.00  0.00    +0.282 A 
ATOM      9  N   LIG    1        1.236  -2.003  -0.015  0.00  0.00    -0.262 N 
ATOM     10  C   LIG    1        2.542  -2.667  -0.024  0.00  0.00    +0.157 C 
ATOM     11  O   LIG    1        0.179  -3.964  -0.021  0.00  0.00    -0.265 OA
ATOM     12  N   LIG    1       -2.473  -0.353   0.012  0.00  0.00    -0.210 NA
ATOM     13  C   LIG    1        1.177  -0.660  -0.013  0.00  0.00    +0.333 A 
ATOM     14  O   LIG    1        2.212  -0.022  -0.020  0.00  0.00    -0.246 OA
ENDROOT
BRANCH   6  15
ATOM     15  C   LIG    1       -4.716  -1.423   0.018  0.00  0.00    +0.017 A 
ATOM     16  C   LIG    1       -5.420  -2.628   0.020  0.00  0.00    +0.013 A 
ATOM     17  C   LIG    1       -6.799  -2.618   0.027  0.00  0.00    +0.021 A 
ATOM     18  C   LIG    1       -7.486  -1.415   0.030  0.00  0.00    +0.041 A 
ATOM     19 CL   LIG    1       -9.222  -1.411   0.038  0.00  0.00    -0.084 Cl
ATOM     20  C   LIG    1       -6.793  -0.216   0.028  0.00  0.00    +0.021 A 
ATOM     21  C   LIG    1       -5.414  -0.213   0.028  0.00  0.00    +0.013 A 
ENDBRANCH   6  15
TORSDOF 1
