REMARK  Name = ZINC16091931
REMARK                            x       y       z     vdW  Elec       q    Type
REMARK                         _______ _______ _______ _____ _____    ______ ____
ROOT
ATOM      1  N   LIG    1       -1.947  -1.146  -1.570  0.00  0.00    -0.174 NA
ATOM      2  C   LIG    1       -2.784  -0.164  -2.274  0.00  0.00    +0.126 C 
ATOM      3  C   LIG    1       -2.056   0.275  -3.550  0.00  0.00    +0.126 C 
ATOM      4  N   LIG    1       -1.610  -0.924  -4.273  0.00  0.00    -0.174 NA
ATOM      5  C   LIG    1       -0.773  -1.906  -3.569  0.00  0.00    +0.126 C 
ATOM      6  C   LIG    1       -1.496  -2.342  -2.295  0.00  0.00    +0.126 C 
ENDROOT
BRANCH   1   7
ATOM      7  S   LIG    1       -1.513  -0.904   0.010  0.00  0.00    +0.061 S 
ATOM      8  O   LIG    1       -2.493  -0.044   0.573  0.00  0.00    -0.153 OA
ATOM      9  O   LIG    1       -1.221  -2.185   0.551  0.00  0.00    -0.153 OA
BRANCH   7  19
ATOM     10  C   LIG    1       -0.017   1.378   0.010  0.00  0.00    +0.032 A 
ATOM     11  C   LIG    1        1.169   2.088   0.002  0.00  0.00    +0.051 A 
ATOM     12  C   LIG    1        2.382   1.415  -0.013  0.00  0.00    +0.162 A 
ATOM     13  C   LIG    1        2.401   0.025  -0.018  0.00  0.00    +0.164 A 
ATOM     14  O   LIG    1        3.579  -0.656  -0.024  0.00  0.00    -0.485 OA
ATOM     15  C   LIG    1        4.746   0.081  -0.406  0.00  0.00    +0.270 C 
ATOM     16  C   LIG    1        4.733   1.422   0.340  0.00  0.00    +0.270 C 
ATOM     17  C   LIG    1        1.207  -0.681  -0.011  0.00  0.00    +0.078 A 
ATOM     18  O   LIG    1        3.541   2.127  -0.024  0.00  0.00    -0.485 OA
ATOM     19  C   LIG    1        0.002  -0.004   0.002  0.00  0.00    +0.109 A 
ENDBRANCH   7  19
ENDBRANCH   1   7
BRANCH   4  20
ATOM     20  S   LIG    1       -2.044  -1.166  -5.853  0.00  0.00    +0.061 S 
ATOM     21  O   LIG    1       -3.235  -0.420  -6.066  0.00  0.00    -0.153 OA
ATOM     22  O   LIG    1       -1.971  -2.566  -6.085  0.00  0.00    -0.153 OA
BRANCH  20  23
ATOM     23  C   LIG    1       -0.799  -0.424  -6.855  0.00  0.00    +0.109 A 
ATOM     24  C   LIG    1       -0.916   0.900  -7.233  0.00  0.00    +0.032 A 
ATOM     25  C   LIG    1        0.059   1.485  -8.020  0.00  0.00    +0.051 A 
ATOM     26  C   LIG    1        1.156   0.744  -8.432  0.00  0.00    +0.162 A 
ATOM     27  C   LIG    1        1.275  -0.587  -8.049  0.00  0.00    +0.164 A 
ATOM     28  O   LIG    1        2.349  -1.329  -8.436  0.00  0.00    -0.485 OA
ATOM     29  C   LIG    1        3.121  -0.823  -9.530  0.00  0.00    +0.270 C 
ATOM     30  C   LIG    1        3.373   0.672  -9.289  0.00  0.00    +0.270 C 
ATOM     31  O   LIG    1        2.106   1.333  -9.210  0.00  0.00    -0.485 OA
ATOM     32  C   LIG    1        0.296  -1.166  -7.256  0.00  0.00    +0.078 A 
ENDBRANCH  20  23
ENDBRANCH   4  20
TORSDOF 4
