REMARK  Name = ZINC53219668
REMARK                            x       y       z     vdW  Elec       q    Type
REMARK                         _______ _______ _______ _____ _____    ______ ____
ROOT
ATOM      1  C   LIG    1       -0.039   1.421  -0.310  0.00  0.00    +0.175 C 
ATOM      2  N   LIG    1       -0.054  -0.043  -0.357  0.00  0.00    -0.241 N 
ATOM      3  C   LIG    1       -1.205  -0.750  -0.092  0.00  0.00    +0.213 A 
ATOM      4  S   LIG    1       -0.627  -2.428  -0.295  0.00  0.00    -0.007 S 
ATOM      5  C   LIG    1        1.069  -2.052  -0.708  0.00  0.00    +0.254 A 
ATOM      6  N   LIG    1       -2.400  -0.311   0.223  0.00  0.00    -0.098 NA
ATOM      7  N   LIG    1        1.082  -0.754  -0.672  0.00  0.00    -0.141 NA
ENDROOT
BRANCH   5   8
ATOM      8  S   LIG    1        2.388  -3.161  -1.076  0.00  0.00    +0.081 S 
ATOM      9  O   LIG    1        3.507  -2.358  -1.424  0.00  0.00    -0.151 OA
ATOM     10  O   LIG    1        1.857  -4.147  -1.950  0.00  0.00    -0.151 OA
BRANCH   8  11
ATOM     11  N   LIG    1        2.782  -3.938   0.332  0.00  0.00    -0.202 NA
ATOM     12  H   LIG    1        1.938  -4.413   0.653  0.00  0.00    +0.144 HD
ATOM     13  H   LIG    1        3.494  -4.597   0.340  0.00  0.00    +0.144 HD
ENDBRANCH   8  11
ENDBRANCH   5   8
BRANCH   6  14
ATOM     14  S   LIG    1       -2.737   1.308   0.135  0.00  0.00    +0.170 S 
ATOM     15  O   LIG    1       -2.576   1.638  -1.238  0.00  0.00    -0.143 OA
ATOM     16  O   LIG    1       -1.911   1.905   1.125  0.00  0.00    -0.143 OA
BRANCH  14  17
ATOM     17  C   LIG    1       -4.482   1.448   0.611  0.00  0.00    +0.542 C 
ATOM     18  F   LIG    1       -5.268   0.706  -0.278  0.00  0.00    -0.149 F 
ATOM     19  F   LIG    1       -4.871   2.791   0.568  0.00  0.00    -0.149 F 
ATOM     20  F   LIG    1       -4.652   0.953   1.908  0.00  0.00    -0.149 F 
ENDBRANCH  14  17
ENDBRANCH   6  14
TORSDOF 4
