REMARK  Name = ZINC13862833
REMARK                            x       y       z     vdW  Elec       q    Type
REMARK                         _______ _______ _______ _____ _____    ______ ____
ROOT
ATOM      1  C   LIG    1       -3.728   3.490   0.069  0.00  0.00    +0.034 A 
ATOM      2  C   LIG    1       -3.699   2.102   0.146  0.00  0.00    +0.024 A 
ATOM      3  C   LIG    1       -2.497   1.421   0.131  0.00  0.00    +0.011 A 
ATOM      4  C   LIG    1       -1.299   2.123   0.042  0.00  0.00    -0.006 A 
ATOM      5  C   LIG    1       -1.327   3.530  -0.042  0.00  0.00    +0.035 A 
ATOM      6  C   LIG    1       -0.049   4.270  -0.141  0.00  0.00    +0.234 C 
ATOM      7  C   LIG    1        1.171   3.559   0.388  0.00  0.00    +0.234 C 
ATOM      8  C   LIG    1        1.203   2.094   0.197  0.00  0.00    +0.033 A 
ATOM      9  C   LIG    1        2.413   1.402   0.186  0.00  0.00    +0.012 A 
ATOM     10  C   LIG    1        2.416   0.033   0.003  0.00  0.00    +0.001 A 
ATOM     11  C   LIG    1        1.225  -0.652  -0.171  0.00  0.00    +0.001 A 
ATOM     12  C   LIG    1        0.016   0.020  -0.162  0.00  0.00    +0.009 A 
ATOM     13  O   LIG    1        2.073   4.155   0.939  0.00  0.00    -0.283 OA
ATOM     14  O   LIG    1        0.013   5.383  -0.620  0.00  0.00    -0.283 OA
ATOM     15  C   LIG    1       -0.010   1.399   0.023  0.00  0.00    -0.006 A 
ATOM     16  C   LIG    1       -2.542   4.208  -0.025  0.00  0.00    +0.035 A 
ENDROOT
BRANCH   1  18
ATOM     17  C   LIG    1       -5.104   5.305  -0.616  0.00  0.00    +0.223 C 
ATOM     18  N   LIG    1       -4.952   4.164   0.086  0.00  0.00    -0.285 N 
ATOM     19  H   LIG    1       -5.693   3.811   0.604  0.00  0.00    +0.155 HD
ATOM     20  O   LIG    1       -4.211   5.696  -1.337  0.00  0.00    -0.275 OA
BRANCH  17  22
ATOM     21  C   LIG    1       -6.295   7.335  -1.395  0.00  0.00    +0.020 C 
ATOM     22  C   LIG    1       -6.382   6.095  -0.503  0.00  0.00    +0.039 C 
ATOM     23  C   LIG    1       -6.590   6.525   0.950  0.00  0.00    +0.020 C 
ATOM     24  C   LIG    1       -7.559   5.226  -0.951  0.00  0.00    +0.020 C 
ENDBRANCH  17  22
ENDBRANCH   1  18
TORSDOF 2
