REMARK  Name = ZINC15014954
REMARK                            x       y       z     vdW  Elec       q    Type
REMARK                         _______ _______ _______ _____ _____    ______ ____
ROOT
ATOM      1  C   LIG    1       -1.941   2.674   3.232  0.00  0.00    +0.060 A 
ATOM      2  C   LIG    1       -3.201   3.271   3.332  0.00  0.00    +0.047 A 
ATOM      3  C   LIG    1       -3.304   4.616   3.607  0.00  0.00    +0.122 A 
ATOM      4  C   LIG    1       -2.164   5.383   3.791  0.00  0.00    +0.034 A 
ATOM      5  C   LIG    1       -0.913   4.808   3.701  0.00  0.00    +0.026 A 
ATOM      6  C   LIG    1       -0.789   3.452   3.423  0.00  0.00    +0.042 A 
ENDROOT
BRANCH   1  11
ATOM      7  N   LIG    1       -4.404  -1.419   4.632  0.00  0.00    -0.327 N 
ATOM      8  C   LIG    1       -3.643  -1.768   3.425  0.00  0.00    +0.124 C 
ATOM      9  C   LIG    1       -2.260  -1.112   3.490  0.00  0.00    +0.127 C 
ATOM     10  N   LIG    1       -2.436   0.330   3.719  0.00  0.00    -0.294 N 
ATOM     11  C   LIG    1       -1.824   1.236   2.931  0.00  0.00    +0.249 C 
ATOM     12  O   LIG    1       -1.174   0.866   1.971  0.00  0.00    -0.270 OA
ATOM     13  C   LIG    1       -3.294   0.757   4.834  0.00  0.00    +0.127 C 
ATOM     14  C   LIG    1       -4.641   0.028   4.713  0.00  0.00    +0.124 C 
BRANCH   7  17
ATOM     15  C   LIG    1       -7.126  -3.719   3.734  0.00  0.00    +0.003 A 
ATOM     16  C   LIG    1       -5.938  -3.016   3.674  0.00  0.00    +0.023 A 
ATOM     17  C   LIG    1       -5.606  -2.128   4.689  0.00  0.00    +0.031 A 
ATOM     18  C   LIG    1       -6.474  -1.941   5.757  0.00  0.00    +0.043 A 
ATOM     19  C   LIG    1       -7.663  -2.644   5.809  0.00  0.00    +0.043 A 
ATOM     20 CL   LIG    1       -8.750  -2.412   7.143  0.00  0.00    -0.083 Cl
ATOM     21  C   LIG    1       -7.989  -3.532   4.798  0.00  0.00    +0.020 A 
ENDBRANCH   7  17
ENDBRANCH   1  11
BRANCH   6  22
ATOM     22  N   LIG    1        0.469   2.871   3.330  0.00  0.00    -0.325 N 
ATOM     23  C   LIG    1        1.522   3.896   3.307  0.00  0.00    +0.133 C 
ATOM     24  C   LIG    1        2.885   3.217   3.145  0.00  0.00    +0.178 C 
ATOM     25  O   LIG    1        3.070   2.273   4.203  0.00  0.00    -0.377 OA
ATOM     26  C   LIG    1        2.062   1.260   4.255  0.00  0.00    +0.178 C 
ATOM     27  C   LIG    1        0.692   1.919   4.429  0.00  0.00    +0.133 C 
ENDBRANCH   6  22
BRANCH   3  28
ATOM     28  N   LIG    1       -4.640   5.247   3.707  0.00  0.00    +0.006 N 
ATOM     29  O   LIG    1       -4.735   6.437   3.950  0.00  0.00    -0.130 OA
BRANCH  28  30
ATOM     30  O   LIG    1       -5.644   4.576   3.546  0.00  0.00    -0.396 OA
ATOM     31  H   LIG    1       -5.570   3.661   3.359  0.00  0.00    +0.329 HD
ENDBRANCH  28  30
ENDBRANCH   3  28
TORSDOF 5
