REMARK  Name = ZINC39054006
REMARK                            x       y       z     vdW  Elec       q    Type
REMARK                         _______ _______ _______ _____ _____    ______ ____
ROOT
ATOM      1  C   LIG    1       -0.018   1.461   0.010  0.00  0.00    +0.148 C 
ATOM      2  N   LIG    1        0.002  -0.004   0.002  0.00  0.00    -0.354 N 
ATOM      3  C   LIG    1        0.005  -0.660  -1.185  0.00  0.00    +0.089 A 
ATOM      4  C   LIG    1        0.024  -2.011  -1.226  0.00  0.00    +0.070 A 
ATOM      5  C   LIG    1        0.040  -2.739  -0.013  0.00  0.00    +0.208 A 
ATOM      6  C   LIG    1        0.036  -2.024   1.208  0.00  0.00    +0.167 A 
ATOM      7  O   LIG    1        0.058  -3.961  -0.020  0.00  0.00    -0.286 OA
ATOM      8  C   LIG    1        0.022  -0.673   1.181  0.00  0.00    +0.117 A 
ENDROOT
BRANCH   6   9
ATOM      9  S   LIG    1        0.056  -2.885   2.745  0.00  0.00    +0.061 S 
ATOM     10  O   LIG    1        0.139  -1.897   3.763  0.00  0.00    -0.153 OA
ATOM     11  O   LIG    1        1.013  -3.927   2.615  0.00  0.00    -0.153 OA
BRANCH   9  12
ATOM     12  N   LIG    1       -1.420  -3.617   2.915  0.00  0.00    -0.203 NA
ATOM     13  H   LIG    1       -2.209  -3.216   2.517  0.00  0.00    +0.144 HD
ATOM     14  H   LIG    1       -1.496  -4.446   3.412  0.00  0.00    +0.144 HD
ENDBRANCH   9  12
ENDBRANCH   6   9
TORSDOF 2
