REMARK  Name = ZINC72126941
REMARK                            x       y       z     vdW  Elec       q    Type
REMARK                         _______ _______ _______ _____ _____    ______ ____
ROOT
ATOM      1  C   LIG    1       -0.122  -0.121   2.567  0.00  0.00    +0.166 A 
ATOM      2  N   LIG    1       -0.331   1.190   2.650  0.00  0.00    -0.195 NA
ATOM      3  C   LIG    1       -0.398   1.778   3.840  0.00  0.00    +0.217 A 
ATOM      4  N   LIG    1       -0.256   1.057   4.947  0.00  0.00    -0.189 NA
ATOM      5  C   LIG    1       -0.047  -0.254   4.865  0.00  0.00    +0.193 A 
ATOM      6  N   LIG    1        0.015  -0.844   3.674  0.00  0.00    -0.202 NA
ENDROOT
BRANCH   1  13
ATOM      7  C   LIG    1        2.023  -1.979   2.004  0.00  0.00    +0.044 C 
ATOM      8  C   LIG    1        0.981  -1.674   0.958  0.00  0.00    -0.040 A 
ATOM      9  C   LIG    1        1.042  -2.287  -0.277  0.00  0.00    +0.004 A 
ATOM     10  C   LIG    1        0.086  -2.008  -1.238  0.00  0.00    +0.000 A 
ATOM     11  C   LIG    1       -0.934  -1.114  -0.967  0.00  0.00    +0.001 A 
ATOM     12  C   LIG    1       -1.005  -0.496   0.265  0.00  0.00    +0.012 A 
ATOM     13  C   LIG    1       -0.048  -0.778   1.239  0.00  0.00    +0.022 A 
ENDBRANCH   1  13
BRANCH   3  14
ATOM     14  N   LIG    1       -0.615   3.139   3.926  0.00  0.00    -0.327 N 
ATOM     15  H   LIG    1       -0.664   3.568   4.794  0.00  0.00    +0.145 HD
ATOM     16  H   LIG    1       -0.719   3.665   3.118  0.00  0.00    +0.145 HD
ENDBRANCH   3  14
BRANCH   5  17
ATOM     17  S   LIG    1        0.143  -1.209   6.333  0.00  0.00    -0.089 S 
ATOM     18  C   LIG    1       -0.020   0.004   7.671  0.00  0.00    +0.093 C 
ENDBRANCH   5  17
TORSDOF 3
