REMARK  Name = ZINC28219882
REMARK                            x       y       z     vdW  Elec       q    Type
REMARK                         _______ _______ _______ _____ _____    ______ ____
ROOT
ATOM      1  C   LIG    1       -0.737   1.583   1.261  0.00  0.00    +0.100 C 
ENDROOT
BRANCH   1   6
ATOM      2  C   LIG    1        0.725  -0.078  -2.535  0.00  0.00    +0.000 C 
ATOM      3  C   LIG    1        1.854   0.899  -2.349  0.00  0.00    +0.000 C 
ATOM      4  C   LIG    1        2.305   0.852  -0.875  0.00  0.00    +0.000 C 
ATOM      5  C   LIG    1        1.433   1.624  -0.003  0.00  0.00    +0.006 C 
ATOM      6  C   LIG    1       -0.013   1.086   0.008  0.00  0.00    +0.016 C 
ATOM      7  C   LIG    1       -0.719   1.589  -1.222  0.00  0.00    +0.006 C 
ATOM      8  C   LIG    1       -0.658   0.584  -2.389  0.00  0.00    +0.000 C 
ENDBRANCH   1   6
BRANCH   1   9
ATOM      9  O   LIG    1       -0.857   3.006   1.208  0.00  0.00    -0.393 OA
ATOM     10  H   LIG    1       -1.353   3.547   2.028  0.00  0.00    +0.210 HD
ENDBRANCH   1   9
BRANCH   1  11
ATOM     11  C   LIG    1       -2.131   0.956   1.327  0.00  0.00    -0.054 C 
BRANCH  11  12
ATOM     12  N   LIG    1       -2.826   1.433   2.530  0.00  0.00    +0.380 N 
ATOM     13  H   LIG    1       -2.252   1.147   3.423  0.00  0.00    -0.090 HD
ATOM     14  H   LIG    1       -2.918   2.529   2.490  0.00  0.00    -0.090 HD
ATOM     15  H   LIG    1       -3.828   0.982   2.578  0.00  0.00    -0.090 HD
ENDBRANCH  11  12
ENDBRANCH   1  11
TORSDOF 4
