REMARK  Name = ZINC22061901
REMARK                            x       y       z     vdW  Elec       q    Type
REMARK                         _______ _______ _______ _____ _____    ______ ____
ROOT
ATOM      1  C   LIG    1       -0.419   7.619   6.047  0.00  0.00    +0.185 C 
ATOM      2  C   LIG    1        0.635   8.467   6.710  0.00  0.00    +0.052 C 
ATOM      3  C   LIG    1        0.006   9.819   7.074  0.00  0.00    +0.012 C 
ATOM      4  C   LIG    1        1.044  10.705   7.766  0.00  0.00    +0.012 C 
ATOM      5  C   LIG    1       -0.451  10.473   5.795  0.00  0.00    -0.020 C 
ATOM      6  C   LIG    1       -0.876   9.749   4.776  0.00  0.00    -0.044 C 
ATOM      7  C   LIG    1       -1.210  10.425   3.501  0.00  0.00    -0.000 C 
ATOM      8  C   LIG    1       -1.317   9.716   2.391  0.00  0.00    -0.023 C 
ATOM      9  C   LIG    1       -1.137   8.230   2.323  0.00  0.00    +0.012 C 
ATOM     10  C   LIG    1       -2.513   7.562   2.281  0.00  0.00    +0.012 C 
ATOM     11  C   LIG    1       -0.361   7.699   3.529  0.00  0.00    +0.007 C 
ATOM     12  C   LIG    1       -0.998   8.255   4.805  0.00  0.00    +0.063 C 
ENDROOT
BRANCH   1  13
ATOM     13  O   LIG    1        0.180   6.345   5.691  0.00  0.00    -0.461 OA
BRANCH  13  14
ATOM     14  C   LIG    1        0.198   5.394   6.637  0.00  0.00    +0.310 C 
ATOM     15  O   LIG    1       -0.272   5.618   7.728  0.00  0.00    -0.251 OA
BRANCH  14  17
ATOM     16  C   LIG    1       -0.280   3.108   5.803  0.00  0.00    +0.019 C 
ATOM     17  C   LIG    1        0.803   4.046   6.340  0.00  0.00    +0.094 C 
BRANCH  17  18
ATOM     18  C   LIG    1        1.396   3.459   7.622  0.00  0.00    +0.011 C 
ATOM     19  C   LIG    1        2.119   2.151   7.298  0.00  0.00    +0.004 C 
ENDBRANCH  17  18
ENDBRANCH  14  17
ENDBRANCH  13  14
ENDBRANCH   1  13
BRANCH  11  20
ATOM     20  C   LIG    1       -0.424   6.171   3.548  0.00  0.00    +0.007 C 
BRANCH  20  21
ATOM     21  C   LIG    1       -0.270   5.637   2.122  0.00  0.00    +0.032 C 
BRANCH  21  22
ATOM     22  C   LIG    1       -0.179   4.110   2.156  0.00  0.00    +0.117 C 
BRANCH  22  23
ATOM     23  O   LIG    1       -1.423   3.568   2.606  0.00  0.00    -0.392 OA
ATOM     24  H   LIG    1       -1.548   2.479   2.695  0.00  0.00    +0.210 HD
ENDBRANCH  22  23
BRANCH  22  25
ATOM     25  C   LIG    1        0.129   3.585   0.752  0.00  0.00    +0.063 C 
BRANCH  25  26
ATOM     26  C   LIG    1        0.343   2.071   0.809  0.00  0.00    +0.128 C 
BRANCH  26  27
ATOM     27  O   LIG    1       -0.876   1.432   1.193  0.00  0.00    -0.391 OA
ATOM     28  H   LIG    1       -0.916   0.337   1.288  0.00  0.00    +0.210 HD
ENDBRANCH  26  27
BRANCH  26  29
ATOM     29  C   LIG    1        0.772   1.565  -0.570  0.00  0.00    +0.151 C 
BRANCH  29  30
ATOM     30  C   LIG    1        1.101   0.097  -0.486  0.00  0.00    +0.307 C 
ATOM     31  O   LIG    1        1.003  -0.485   0.569  0.00  0.00    -0.251 OA
BRANCH  30  32
ATOM     32  O   LIG    1        1.504  -0.564  -1.582  0.00  0.00    -0.481 OA
ATOM     33  H   LIG    1        1.580  -0.113  -2.400  0.00  0.00    +0.295 HD
ENDBRANCH  30  32
ENDBRANCH  29  30
ENDBRANCH  26  29
ENDBRANCH  25  26
ENDBRANCH  22  25
ENDBRANCH  21  22
ENDBRANCH  20  21
ENDBRANCH  11  20
TORSDOF 14
