REMARK  Name = ZINC18322617
REMARK                            x       y       z     vdW  Elec       q    Type
REMARK                         _______ _______ _______ _____ _____    ______ ____
ROOT
ATOM      1  N   LIG    1        5.537  -3.092   1.239  0.00  0.00    +0.390 N 
ATOM      2  H   LIG    1        5.325  -2.505   2.031  0.00  0.00    -0.081 HD
ATOM      3  C   LIG    1        4.799  -4.356   1.361  0.00  0.00    -0.059 C 
ATOM      4  C   LIG    1        5.133  -5.014   2.703  0.00  0.00    +0.086 C 
ATOM      5  N   LIG    1        6.594  -5.152   2.804  0.00  0.00    -0.333 N 
ATOM      6  C   LIG    1        7.423  -3.967   2.535  0.00  0.00    +0.086 C 
ATOM      7  C   LIG    1        6.980  -3.358   1.200  0.00  0.00    -0.059 C 
ENDROOT
BRANCH   1  11
ATOM      8  N   LIG    1        3.597  -0.661  -0.024  0.00  0.00    -0.212 N 
ATOM      9  C   LIG    1        4.777  -0.040  -0.149  0.00  0.00    +0.225 C 
ATOM     10  C   LIG    1        5.885  -1.071  -0.148  0.00  0.00    +0.090 C 
ATOM     11  C   LIG    1        5.133  -2.409   0.003  0.00  0.00    +0.029 C 
ATOM     12  O   LIG    1        4.932   1.158  -0.249  0.00  0.00    -0.275 OA
ATOM     13  C   LIG    1        3.680  -1.994   0.076  0.00  0.00    +0.213 C 
ATOM     14  O   LIG    1        2.739  -2.748   0.202  0.00  0.00    -0.277 OA
BRANCH   8  18
ATOM     15  C   LIG    1       -0.032   1.388   0.070  0.00  0.00    +0.000 A 
ATOM     16  C   LIG    1        0.316   0.553   1.116  0.00  0.00    +0.002 A 
ATOM     17  C   LIG    1        1.518  -0.127   1.088  0.00  0.00    +0.024 A 
ATOM     18  C   LIG    1        2.377   0.028   0.008  0.00  0.00    +0.044 A 
ATOM     19  C   LIG    1        2.024   0.867  -1.041  0.00  0.00    +0.024 A 
ATOM     20  C   LIG    1        0.821   1.545  -1.007  0.00  0.00    +0.002 A 
ENDBRANCH   8  18
ENDBRANCH   1  11
BRANCH   5  21
ATOM     21  C   LIG    1        7.179  -6.375   3.146  0.00  0.00    +0.030 A 
ATOM     22  C   LIG    1        8.548  -6.455   3.365  0.00  0.00    +0.026 A 
ATOM     23  C   LIG    1        9.123  -7.664   3.703  0.00  0.00    +0.040 A 
ATOM     24  C   LIG    1        8.336  -8.797   3.823  0.00  0.00    +0.124 A 
ATOM     25  F   LIG    1        8.901  -9.979   4.153  0.00  0.00    -0.205 F 
ATOM     26  C   LIG    1        6.971  -8.720   3.605  0.00  0.00    +0.040 A 
ATOM     27  C   LIG    1        6.391  -7.512   3.272  0.00  0.00    +0.026 A 
ENDBRANCH   5  21
TORSDOF 3
