REMARK  Name = ZINC28572121
REMARK                            x       y       z     vdW  Elec       q    Type
REMARK                         _______ _______ _______ _____ _____    ______ ____
ROOT
ATOM      1  C   LIG    1       -0.021   1.390  -0.097  0.00  0.00    +0.054 A 
ATOM      2  C   LIG    1        1.186   2.096  -0.051  0.00  0.00    +0.049 A 
ATOM      3  C   LIG    1        2.407   1.403  -0.067  0.00  0.00    +0.056 A 
ATOM      4  N   LIG    1        3.625   2.075  -0.025  0.00  0.00    -0.330 N 
ATOM      5  C   LIG    1        3.631   3.402   0.255  0.00  0.00    +0.114 A 
ATOM      6  C   LIG    1        2.473   4.209   0.294  0.00  0.00    +0.119 A 
ATOM      7  C   LIG    1        2.734   5.545   0.603  0.00  0.00    +0.268 A 
ATOM      8  N   LIG    1        4.024   5.872   0.819  0.00  0.00    -0.291 N 
ATOM      9  H   LIG    1        4.383   6.746   1.042  0.00  0.00    +0.177 HD
ATOM     10  O   LIG    1        1.841   6.373   0.676  0.00  0.00    -0.267 OA
ATOM     11  S   LIG    1        4.873   4.444   0.615  0.00  0.00    +0.008 S 
ATOM     12  C   LIG    1        2.401   0.013  -0.128  0.00  0.00    +0.052 A 
ATOM     13  C   LIG    1        1.198  -0.671  -0.172  0.00  0.00    +0.067 A 
ATOM     14  C   LIG    1        1.166   3.575   0.015  0.00  0.00    +0.203 A 
ATOM     15  O   LIG    1        0.146   4.223  -0.148  0.00  0.00    -0.286 OA
ATOM     16  C   LIG    1       -0.013   0.026  -0.156  0.00  0.00    +0.145 A 
ATOM     17  F   LIG    1       -1.180  -0.653  -0.200  0.00  0.00    -0.204 F 
ENDROOT
BRANCH  13  18
ATOM     18  N   LIG    1        1.195  -2.063  -0.232  0.00  0.00    -0.325 N 
ATOM     19  C   LIG    1        1.214  -2.763  -1.526  0.00  0.00    +0.120 C 
ATOM     20  C   LIG    1        0.079  -3.792  -1.540  0.00  0.00    +0.100 C 
ATOM     21  N   LIG    1        0.196  -4.661  -0.362  0.00  0.00    -0.313 NA
ATOM     22  H   LIG    1       -0.466  -5.421  -0.406  0.00  0.00    +0.122 HD
ATOM     23  C   LIG    1        0.038  -3.897   0.883  0.00  0.00    +0.100 C 
ATOM     24  C   LIG    1        1.177  -2.872   0.996  0.00  0.00    +0.120 C 
ENDBRANCH  13  18
BRANCH   4  25
ATOM     25  C   LIG    1        4.879   1.361  -0.278  0.00  0.00    +0.089 C 
ATOM     26  C   LIG    1        6.119   2.201  -0.590  0.00  0.00    +0.027 C 
ATOM     27  C   LIG    1        5.992   1.498   0.762  0.00  0.00    +0.027 C 
ENDBRANCH   4  25
TORSDOF 2
