REMARK  Name = ZINC15987659
REMARK                            x       y       z     vdW  Elec       q    Type
REMARK                         _______ _______ _______ _____ _____    ______ ____
ROOT
ATOM      1  C   LIG    1       -0.604  -4.688  -2.825  0.00  0.00    +0.196 C 
ENDROOT
BRANCH   1   2
ATOM      2  N   LIG    1       -0.616  -6.153  -2.820  0.00  0.00    -0.274 N 
ATOM      3  H   LIG    1       -0.740  -6.634  -1.987  0.00  0.00    +0.258 HD
BRANCH   2   4
ATOM      4  C   LIG    1       -0.456  -6.832  -3.974  0.00  0.00    +0.411 C 
ATOM      5  N   LIG    1       -0.467  -8.179  -3.969  0.00  0.00    +0.094 NA
BRANCH   4   6
ATOM      6  N   LIG    1       -0.283  -6.164  -5.132  0.00  0.00    -0.287 N 
ATOM      7  H   LIG    1       -0.076  -6.649  -5.946  0.00  0.00    +0.255 HD
ATOM      8  H   LIG    1       -0.367  -5.197  -5.151  0.00  0.00    +0.255 HD
ENDBRANCH   4   6
BRANCH   5   9
ATOM      9  N   LIG    1       -0.219  -8.830  -5.055  0.00  0.00    +0.176 N 
ATOM     10  O   LIG    1        1.009  -9.222  -5.322  0.00  0.00    -0.095 OA
BRANCH   9  11
ATOM     11  O   LIG    1       -1.195  -9.102  -5.896  0.00  0.00    -0.370 OA
ATOM     12  H   LIG    1       -2.069  -8.823  -5.706  0.00  0.00    +0.332 HD
ENDBRANCH   9  11
ENDBRANCH   5   9
ENDBRANCH   2   4
ENDBRANCH   1   2
BRANCH   1  13
ATOM     13  C   LIG    1       -0.805  -4.171  -1.399  0.00  0.00    +0.039 C 
BRANCH  13  14
ATOM     14  C   LIG    1       -0.792  -2.641  -1.404  0.00  0.00    +0.033 C 
BRANCH  14  15
ATOM     15  C   LIG    1       -0.994  -2.124   0.022  0.00  0.00    +0.161 C 
BRANCH  15  16
ATOM     16  N   LIG    1       -2.333  -2.500   0.494  0.00  0.00    -0.318 NA
ATOM     17  H   LIG    1       -3.049  -2.105  -0.097  0.00  0.00    +0.119 HD
ATOM     18  H   LIG    1       -2.467  -2.227   1.456  0.00  0.00    +0.119 HD
ENDBRANCH  15  16
BRANCH  15  19
ATOM     19  C   LIG    1       -0.859  -0.624   0.036  0.00  0.00    +0.324 C 
ATOM     20  O   LIG    1       -1.847   0.072   0.044  0.00  0.00    -0.249 OA
BRANCH  19  22
ATOM     21  C   LIG    1        0.413   1.369   0.053  0.00  0.00    +0.280 C 
ATOM     22  O   LIG    1        0.359  -0.059   0.039  0.00  0.00    -0.467 OA
ENDBRANCH  19  22
ENDBRANCH  15  19
ENDBRANCH  14  15
ENDBRANCH  13  14
ENDBRANCH   1  13
TORSDOF 11
