REMARK  Name = ZINC15834209
REMARK                            x       y       z     vdW  Elec       q    Type
REMARK                         _______ _______ _______ _____ _____    ______ ____
ROOT
ATOM      1  C   LIG    1        2.169   0.703   0.236  0.00  0.00    +0.069 A 
ATOM      2  C   LIG    1        1.399   1.778  -0.129  0.00  0.00    +0.089 A 
ATOM      3  C   LIG    1       -0.017   1.348   0.000  0.00  0.00    +0.082 A 
ATOM      4  N   LIG    1       -1.032   2.264  -0.313  0.00  0.00    -0.294 N 
ATOM      5  C   LIG    1       -2.447   1.900  -0.203  0.00  0.00    +0.154 C 
ATOM      6  C   LIG    1       -0.652   3.494  -0.722  0.00  0.00    +0.332 A 
ATOM      7  N   LIG    1        0.611   3.915  -0.849  0.00  0.00    -0.263 N 
ATOM      8  C   LIG    1        0.838   5.289  -1.303  0.00  0.00    +0.157 C 
ATOM      9  O   LIG    1       -1.532   4.287  -0.996  0.00  0.00    -0.246 OA
ATOM     10  C   LIG    1        0.006   0.092   0.421  0.00  0.00    +0.073 A 
ATOM     11  C   LIG    1       -1.147  -0.834   0.741  0.00  0.00    +0.150 C 
ATOM     12  N   LIG    1       -0.671  -2.218   0.594  0.00  0.00    -0.330 N 
ATOM     13  H   LIG    1       -1.253  -2.892   0.208  0.00  0.00    +0.147 HD
ATOM     14  C   LIG    1        0.619  -2.566   1.008  0.00  0.00    +0.052 A 
ATOM     15  C   LIG    1        0.892  -3.846   1.463  0.00  0.00    +0.025 A 
ATOM     16  C   LIG    1        2.176  -4.182   1.849  0.00  0.00    +0.002 A 
ATOM     17  C   LIG    1        3.194  -3.247   1.783  0.00  0.00    +0.002 A 
ATOM     18  C   LIG    1        2.931  -1.964   1.339  0.00  0.00    +0.028 A 
ATOM     19  C   LIG    1        1.647  -1.619   0.962  0.00  0.00    +0.068 A 
ATOM     20  C   LIG    1        1.694   3.142  -0.581  0.00  0.00    +0.266 A 
ATOM     21  O   LIG    1        2.833   3.553  -0.706  0.00  0.00    -0.267 OA
ATOM     22  N   LIG    1        1.326  -0.315   0.558  0.00  0.00    -0.306 N 
ENDROOT
BRANCH   1  28
ATOM     23  C   LIG    1        6.500   2.502   1.937  0.00  0.00    +0.044 C 
ATOM     24  C   LIG    1        5.732   1.521   1.089  0.00  0.00    -0.050 A 
ATOM     25  C   LIG    1        6.411   0.575   0.341  0.00  0.00    +0.003 A 
ATOM     26  C   LIG    1        5.715  -0.329  -0.441  0.00  0.00    +0.001 A 
ATOM     27  C   LIG    1        4.336  -0.293  -0.480  0.00  0.00    +0.010 A 
ATOM     28  C   LIG    1        3.644   0.658   0.273  0.00  0.00    -0.000 A 
ATOM     29  C   LIG    1        4.354   1.571   1.056  0.00  0.00    +0.013 A 
ENDBRANCH   1  28
BRANCH  11  30
ATOM     30  C   LIG    1       -1.611  -0.602   2.156  0.00  0.00    -0.018 A 
ATOM     31  C   LIG    1       -0.916  -1.165   3.211  0.00  0.00    +0.006 A 
ATOM     32  C   LIG    1       -1.338  -0.954   4.510  0.00  0.00    +0.004 A 
ATOM     33  C   LIG    1       -2.455  -0.179   4.758  0.00  0.00    +0.045 A 
ATOM     34  C   LIG    1       -3.154   0.386   3.701  0.00  0.00    +0.120 A 
ATOM     35  C   LIG    1       -2.725   0.177   2.398  0.00  0.00    +0.051 A 
BRANCH  34  36
ATOM     36  O   LIG    1       -4.252   1.149   3.942  0.00  0.00    -0.495 OA
ATOM     37  C   LIG    1       -4.632   1.327   5.308  0.00  0.00    +0.277 C 
ENDBRANCH  34  36
ENDBRANCH  11  30
TORSDOF 3
