REMARK  Name = ZINC18119348
REMARK                            x       y       z     vdW  Elec       q    Type
REMARK                         _______ _______ _______ _____ _____    ______ ____
ROOT
ATOM      1  C   LIG    1       -3.034  -1.853  -1.420  0.00  0.00    +0.126 C 
ATOM      2  C   LIG    1       -2.772  -3.233  -0.848  0.00  0.00    +0.236 C 
ATOM      3  O   LIG    1       -1.966  -3.982  -1.357  0.00  0.00    -0.274 OA
ATOM      4  N   LIG    1       -3.468  -3.596   0.251  0.00  0.00    -0.239 N 
ATOM      5  H   LIG    1       -3.317  -4.473   0.635  0.00  0.00    +0.159 HD
ATOM      6  C   LIG    1       -4.362  -2.781   0.824  0.00  0.00    +0.312 C 
ATOM      7  O   LIG    1       -4.944  -3.189   1.809  0.00  0.00    -0.252 OA
ATOM      8  N   LIG    1       -4.660  -1.551   0.392  0.00  0.00    -0.239 N 
ATOM      9  H   LIG    1       -5.322  -1.031   0.873  0.00  0.00    +0.159 HD
ATOM     10  C   LIG    1       -4.066  -1.011  -0.694  0.00  0.00    +0.236 C 
ATOM     11  O   LIG    1       -4.345   0.106  -1.073  0.00  0.00    -0.274 OA
ENDROOT
BRANCH   1  12
ATOM     12  C   LIG    1       -3.494  -2.023  -2.870  0.00  0.00    +0.013 C 
ATOM     13  C   LIG    1       -4.729  -2.926  -2.910  0.00  0.00    +0.005 C 
ATOM     14  C   LIG    1       -5.189  -3.096  -4.359  0.00  0.00    +0.000 C 
ATOM     15  C   LIG    1       -4.065  -3.732  -5.180  0.00  0.00    +0.000 C 
ATOM     16  C   LIG    1       -2.830  -2.830  -5.139  0.00  0.00    +0.000 C 
ATOM     17  C   LIG    1       -2.370  -2.659  -3.690  0.00  0.00    +0.005 C 
ENDBRANCH   1  12
BRANCH   1  18
ATOM     18  C   LIG    1       -1.712  -1.083  -1.431  0.00  0.00    +0.030 C 
BRANCH  18  19
ATOM     19  C   LIG    1       -1.261  -0.824   0.008  0.00  0.00    +0.037 C 
BRANCH  19  25
ATOM     20  C   LIG    1        0.054   1.321  -0.006  0.00  0.00    +0.023 A 
ATOM     21  C   LIG    1        1.268   1.983  -0.015  0.00  0.00    +0.111 A 
ATOM     22  N   LIG    1        2.402   1.311  -0.022  0.00  0.00    -0.263 NA
ATOM     23  C   LIG    1        2.427  -0.007  -0.020  0.00  0.00    +0.111 A 
ATOM     24  C   LIG    1        1.254  -0.737  -0.010  0.00  0.00    +0.023 A 
ATOM     25  C   LIG    1        0.041  -0.065  -0.003  0.00  0.00    -0.044 A 
ENDBRANCH  19  25
ENDBRANCH  18  19
ENDBRANCH   1  18
TORSDOF 4
