REMARK  Name = ZINC26983012
REMARK                            x       y       z     vdW  Elec       q    Type
REMARK                         _______ _______ _______ _____ _____    ______ ____
ROOT
ATOM      1  P   LIG    1        0.153   0.975   2.744  0.00  0.00    +0.202 P 
ATOM      2  O   LIG    1        0.279  -0.498   2.675  0.00  0.00    -0.291 OA
ENDROOT
BRANCH   1   3
ATOM      3  O   LIG    1        1.619   1.637   2.801  0.00  0.00    -0.344 OA
ATOM      4  H   LIG    1        2.116   1.391   2.005  0.00  0.00    +0.218 HD
ENDBRANCH   1   3
BRANCH   1   5
ATOM      5  C   LIG    1       -0.729   1.579   1.267  0.00  0.00    +0.097 C 
BRANCH   5   6
ATOM      6  C   LIG    1       -0.013   1.086   0.008  0.00  0.00    +0.010 C 
BRANCH   6   7
ATOM      7  C   LIG    1       -0.753   1.593  -1.232  0.00  0.00    +0.000 C 
BRANCH   7   8
ATOM      8  C   LIG    1       -0.037   1.099  -2.490  0.00  0.00    -0.000 C 
BRANCH   8  10
ATOM      9  C   LIG    1       -0.060   1.113  -4.989  0.00  0.00    +0.004 C 
ATOM     10  C   LIG    1       -0.777   1.606  -3.730  0.00  0.00    -0.003 C 
ENDBRANCH   8  10
ENDBRANCH   7   8
ENDBRANCH   6   7
ENDBRANCH   5   6
ENDBRANCH   1   5
BRANCH   1  11
ATOM     11  C   LIG    1       -0.781   1.437   4.240  0.00  0.00    +0.095 C 
BRANCH  11  12
ATOM     12  C   LIG    1       -0.108   0.824   5.470  0.00  0.00    -0.010 C 
BRANCH  12  13
ATOM     13  C   LIG    1       -0.892   1.211   6.726  0.00  0.00    -0.086 C 
BRANCH  13  14
ATOM     14  N   LIG    1       -0.246   0.623   7.907  0.00  0.00    +0.378 N 
ATOM     15  H   LIG    1       -0.230  -0.472   7.808  0.00  0.00    -0.090 HD
ATOM     16  H   LIG    1        0.784   1.000   7.987  0.00  0.00    -0.090 HD
ATOM     17  H   LIG    1       -0.810   0.902   8.810  0.00  0.00    -0.090 HD
ENDBRANCH  13  14
ENDBRANCH  12  13
ENDBRANCH  11  12
ENDBRANCH   1  11
TORSDOF 10
