REMARK  Name = ZINC29126828
REMARK                            x       y       z     vdW  Elec       q    Type
REMARK                         _______ _______ _______ _____ _____    ______ ____
ROOT
ATOM      1  N   LIG    1        2.024  -2.318   0.184  0.00  0.00    -0.188 N 
ATOM      2  C   LIG    1        1.669  -1.022   0.059  0.00  0.00    +0.263 C 
ATOM      3  C   LIG    1        2.736  -0.005   0.052  0.00  0.00    +0.098 C 
ATOM      4  C   LIG    1        4.124  -0.487   0.177  0.00  0.00    +0.218 C 
ATOM      5  N   LIG    1        4.329  -1.815   0.299  0.00  0.00    -0.127 NA
ATOM      6  C   LIG    1        2.447   1.346  -0.074  0.00  0.00    +0.043 C 
ATOM      7  O   LIG    1        0.499  -0.702  -0.045  0.00  0.00    -0.269 OA
ATOM      8  C   LIG    1        3.308  -2.684   0.298  0.00  0.00    +0.340 C 
ATOM      9  O   LIG    1        3.561  -3.868   0.407  0.00  0.00    -0.250 OA
ENDROOT
BRANCH   6  10
ATOM     10  C   LIG    1        1.220   1.852   0.402  0.00  0.00    +0.041 A 
ATOM     11  C   LIG    1        0.699   3.095   0.114  0.00  0.00    +0.035 A 
ATOM     12  C   LIG    1       -0.539   3.203   0.786  0.00  0.00    +0.000 A 
ATOM     13  C   LIG    1       -1.504   4.219   0.865  0.00  0.00    +0.010 A 
ATOM     14  C   LIG    1       -2.629   4.030   1.612  0.00  0.00    +0.001 A 
ATOM     15  C   LIG    1       -2.831   2.838   2.298  0.00  0.00    +0.002 A 
ATOM     16  C   LIG    1       -1.899   1.826   2.237  0.00  0.00    +0.026 A 
ATOM     17  C   LIG    1       -0.745   1.991   1.477  0.00  0.00    +0.047 A 
ATOM     18  N   LIG    1        0.341   1.182   1.235  0.00  0.00    -0.355 N 
ATOM     19  H   LIG    1        0.580   0.167   1.584  0.00  0.00    +0.166 HD
ENDBRANCH   6  10
BRANCH   1  23
ATOM     20  C   LIG    1       -0.940  -5.248   0.213  0.00  0.00    +0.000 A 
ATOM     21  C   LIG    1        0.081  -5.308  -0.718  0.00  0.00    +0.002 A 
ATOM     22  C   LIG    1        1.064  -4.338  -0.730  0.00  0.00    +0.024 A 
ATOM     23  C   LIG    1        1.028  -3.303   0.194  0.00  0.00    +0.046 A 
ATOM     24  C   LIG    1        0.005  -3.248   1.131  0.00  0.00    +0.024 A 
ATOM     25  C   LIG    1       -0.979  -4.218   1.135  0.00  0.00    +0.002 A 
ENDBRANCH   1  23
BRANCH   4  26
ATOM     26  O   LIG    1        5.059   0.291   0.174  0.00  0.00    -0.493 OA
ATOM     27  H   LIG    1        4.902   1.211   0.088  0.00  0.00    +0.294 HD
ENDBRANCH   4  26
TORSDOF 3
