REMARK  Name = ZINC19808142
REMARK                            x       y       z     vdW  Elec       q    Type
REMARK                         _______ _______ _______ _____ _____    ______ ____
ROOT
ATOM      1  C   LIG    1       -0.013   1.076   0.008  0.00  0.00    +0.002 A 
ATOM      2  C   LIG    1       -1.221   1.746   0.017  0.00  0.00    +0.001 A 
ATOM      3  C   LIG    1       -1.247   3.131   0.031  0.00  0.00    +0.017 A 
ATOM      4  C   LIG    1       -0.059   3.838   0.024  0.00  0.00    +0.034 A 
ATOM      5  C   LIG    1        1.165   3.166   0.008  0.00  0.00    +0.048 A 
ATOM      6  N   LIG    1        2.366   3.884  -0.002  0.00  0.00    -0.298 N 
ATOM      7  C   LIG    1        2.508   5.075  -0.721  0.00  0.00    +0.048 A 
ATOM      8  C   LIG    1        3.699   5.364  -1.368  0.00  0.00    +0.024 A 
ATOM      9  C   LIG    1        3.832   6.545  -2.078  0.00  0.00    +0.002 A 
ATOM     10  C   LIG    1        2.784   7.442  -2.147  0.00  0.00    +0.001 A 
ATOM     11  C   LIG    1        1.589   7.164  -1.503  0.00  0.00    +0.017 A 
ATOM     12  C   LIG    1        1.451   5.986  -0.794  0.00  0.00    +0.034 A 
ATOM     13  S   LIG    1       -0.060   5.603   0.036  0.00  0.00    -0.086 S 
ATOM     14  C   LIG    1        1.179   1.779   0.000  0.00  0.00    +0.024 A 
ENDROOT
BRANCH   6  15
ATOM     15  C   LIG    1        3.507   3.373   0.762  0.00  0.00    +0.109 C 
BRANCH  15  16
ATOM     16  C   LIG    1        4.341   2.447  -0.125  0.00  0.00    -0.000 C 
BRANCH  16  17
ATOM     17  C   LIG    1        5.533   1.914   0.672  0.00  0.00    -0.085 C 
BRANCH  17  18
ATOM     18  N   LIG    1        6.335   1.025  -0.179  0.00  0.00    +0.378 N 
ATOM     19  H   LIG    1        5.713   0.183  -0.518  0.00  0.00    -0.090 HD
ATOM     20  H   LIG    1        6.699   1.585  -1.053  0.00  0.00    -0.090 HD
ATOM     21  H   LIG    1        7.191   0.641   0.394  0.00  0.00    -0.090 HD
ENDBRANCH  17  18
ENDBRANCH  16  17
ENDBRANCH  15  16
ENDBRANCH   6  15
TORSDOF 4
