REMARK  Name = ZINC20668191
REMARK                            x       y       z     vdW  Elec       q    Type
REMARK                         _______ _______ _______ _____ _____    ______ ____
ROOT
ATOM      1  N   LIG    1        3.810   8.102  -3.634  0.00  0.00    -0.325 N 
ATOM      2  C   LIG    1        2.746   8.810  -2.909  0.00  0.00    +0.120 C 
ATOM      3  C   LIG    1        2.709   8.323  -1.459  0.00  0.00    +0.103 C 
ATOM      4  N   LIG    1        2.481   6.872  -1.437  0.00  0.00    -0.294 NA
ATOM      5  C   LIG    1        3.545   6.164  -2.162  0.00  0.00    +0.103 C 
ATOM      6  C   LIG    1        3.582   6.650  -3.613  0.00  0.00    +0.120 C 
ENDROOT
BRANCH   1  12
ATOM      7  C   LIG    1        4.352   9.876  -5.188  0.00  0.00    +0.141 A 
ATOM      8  C   LIG    1        4.460  10.336  -6.490  0.00  0.00    +0.047 A 
ATOM      9  C   LIG    1        4.142   9.504  -7.547  0.00  0.00    +0.004 A 
ATOM     10  C   LIG    1        3.716   8.210  -7.309  0.00  0.00    +0.002 A 
ATOM     11  C   LIG    1        3.610   7.741  -6.013  0.00  0.00    +0.027 A 
ATOM     12  C   LIG    1        3.921   8.573  -4.947  0.00  0.00    +0.072 A 
BRANCH   7  14
ATOM     13  C   LIG    1        5.098  12.016  -4.469  0.00  0.00    +0.277 C 
ATOM     14  O   LIG    1        4.665  10.694  -4.147  0.00  0.00    -0.493 OA
ENDBRANCH   7  14
ENDBRANCH   1  12
BRANCH   4  15
ATOM     15  C   LIG    1        2.364   6.378  -0.059  0.00  0.00    +0.139 C 
BRANCH  15  16
ATOM     16  C   LIG    1        1.890   4.947  -0.077  0.00  0.00    +0.048 A 
ATOM     17  C   LIG    1        2.682   3.854  -0.025  0.00  0.00    +0.115 A 
ATOM     18  N   LIG    1        1.863   2.759  -0.064  0.00  0.00    -0.308 N 
ATOM     19  C   LIG    1        2.113   1.417  -0.042  0.00  0.00    +0.092 A 
ATOM     20  C   LIG    1        1.099   0.528  -0.094  0.00  0.00    +0.018 A 
ATOM     21  C   LIG    1       -0.231   0.974  -0.178  0.00  0.00    +0.005 A 
ATOM     22  C   LIG    1       -0.494   2.308  -0.195  0.00  0.00    +0.045 A 
ATOM     23  C   LIG    1        0.576   3.224  -0.140  0.00  0.00    +0.115 A 
ATOM     24  N   LIG    1        0.618   4.549  -0.146  0.00  0.00    -0.342 N 
ATOM     25  H   LIG    1       -0.190   5.294  -0.197  0.00  0.00    +0.167 HD
ENDBRANCH  15  16
ENDBRANCH   4  15
TORSDOF 4
