REMARK  Name = ZINC16889962
REMARK                            x       y       z     vdW  Elec       q    Type
REMARK                         _______ _______ _______ _____ _____    ______ ____
ROOT
ATOM      1  C   LIG    1       -0.016   1.329   0.009  0.00  0.00    +0.246 A 
ATOM      2  N   LIG    1       -1.256   1.740   0.018  0.00  0.00    -0.160 NA
ATOM      3  N   LIG    1       -2.068   0.595   0.015  0.00  0.00    -0.247 N 
ATOM      4  H   LIG    1       -3.037   0.569   0.020  0.00  0.00    +0.192 HD
ATOM      5  C   LIG    1       -1.231  -0.464   0.006  0.00  0.00    +0.208 A 
ATOM      6  N   LIG    1        0.002  -0.004   0.002  0.00  0.00    -0.202 NA
ENDROOT
BRANCH   5   7
ATOM      7  N   LIG    1       -1.603  -1.797  -0.001  0.00  0.00    -0.328 N 
ATOM      8  H   LIG    1       -0.924  -2.490  -0.008  0.00  0.00    +0.145 HD
ATOM      9  H   LIG    1       -2.542  -2.038   0.002  0.00  0.00    +0.145 HD
ENDBRANCH   5   7
TORSDOF 1
