REMARK  Name = ZINC13801446
REMARK                            x       y       z     vdW  Elec       q    Type
REMARK                         _______ _______ _______ _____ _____    ______ ____
ROOT
ATOM      1  C   LIG    1       -0.017   1.376   0.010  0.00  0.00    +0.015 A 
ATOM      2  C   LIG    1        0.002  -0.004   0.002  0.00  0.00    +0.005 A 
ATOM      3  C   LIG    1        1.208  -0.689  -0.015  0.00  0.00    -0.041 A 
ATOM      4  C   LIG    1        2.395   0.012  -0.025  0.00  0.00    -0.029 A 
ATOM      5  C   LIG    1        3.730  -0.686  -0.050  0.00  0.00    +0.117 C 
ATOM      6  N   LIG    1        3.583  -2.088   0.353  0.00  0.00    -0.307 NA
ATOM      7  H   LIG    1        4.537  -2.614   0.201  0.00  0.00    +0.123 HD
ATOM      8  CA  LIG    1        2.539  -2.743  -0.452  0.00  0.00    +0.084 C 
ATOM      9  C   LIG    1        2.376   1.399  -0.015  0.00  0.00    +0.020 A 
ATOM     10  C   LIG    1        1.179  -2.195  -0.019  0.00  0.00    +0.056 C 
ATOM     11  C   LIG    1        1.174   2.080   0.002  0.00  0.00    +0.018 A 
ATOM     12 BR   LIG    1        1.157   3.971   0.015  0.00  0.00    -0.050 Br
ENDROOT
BRANCH   8  13
ATOM     13  C   LIG    1        2.583  -4.254  -0.219  0.00  0.00    +0.174 C 
BRANCH  13  14
ATOM     14  O   LIG    1        3.809  -4.779  -0.731  0.00  0.00    -0.393 OA
ATOM     15  H   LIG    1        4.021  -5.856  -0.654  0.00  0.00    +0.209 HD
ENDBRANCH  13  14
ENDBRANCH   8  13
TORSDOF 2
