REMARK  Name = ZINC43009243
REMARK                            x       y       z     vdW  Elec       q    Type
REMARK                         _______ _______ _______ _____ _____    ______ ____
ROOT
ATOM      1  C   LIG    1       -4.947  -3.926  -0.074  0.00  0.00    +0.201 A 
ATOM      2  N   LIG    1       -3.904  -4.718  -0.085  0.00  0.00    -0.214 NA
ATOM      3  C   LIG    1       -4.316  -6.010  -0.193  0.00  0.00    +0.092 A 
ATOM      4  C   LIG    1       -3.640  -7.227  -0.251  0.00  0.00    +0.043 A 
ATOM      5  C   LIG    1       -4.366  -8.410  -0.365  0.00  0.00    +0.039 A 
ATOM      6  C   LIG    1       -5.765  -8.374  -0.423  0.00  0.00    +0.015 A 
ATOM      7  C   LIG    1       -6.429  -7.182  -0.367  0.00  0.00    +0.029 A 
ATOM      8  C   LIG    1       -5.721  -5.993  -0.252  0.00  0.00    +0.070 A 
ATOM      9  N   LIG    1       -6.093  -4.664  -0.169  0.00  0.00    -0.307 N 
ENDROOT
BRANCH   5  10
ATOM     10  C   LIG    1       -3.659  -9.705  -0.427  0.00  0.00    +0.242 C 
ATOM     11  N   LIG    1       -4.360 -10.850  -0.537  0.00  0.00    -0.325 N 
ATOM     12  H   LIG    1       -3.896 -11.701  -0.578  0.00  0.00    +0.145 HD
ATOM     13  H   LIG    1       -5.329 -10.824  -0.577  0.00  0.00    +0.145 HD
ATOM     14  O   LIG    1       -2.445  -9.737  -0.377  0.00  0.00    -0.270 OA
ENDBRANCH   5  10
BRANCH   1  15
ATOM     15  N   LIG    1       -4.896  -2.551   0.025  0.00  0.00    -0.285 N 
ATOM     16  H   LIG    1       -5.716  -2.041   0.115  0.00  0.00    +0.155 HD
BRANCH  15  20
ATOM     17  C   LIG    1       -1.217  -0.590  -0.067  0.00  0.00    +0.155 A 
ATOM     18  C   LIG    1       -1.357  -1.830  -0.670  0.00  0.00    +0.050 A 
ATOM     19  C   LIG    1       -2.575  -2.480  -0.640  0.00  0.00    +0.027 A 
ATOM     20  C   LIG    1       -3.661  -1.892  -0.005  0.00  0.00    +0.036 A 
ATOM     21  C   LIG    1       -3.522  -0.650   0.599  0.00  0.00    +0.065 A 
ATOM     22  C   LIG    1       -2.300  -0.002   0.574  0.00  0.00    +0.167 A 
ATOM     23  F   LIG    1       -2.162   1.204   1.166  0.00  0.00    -0.202 F 
BRANCH  17  25
ATOM     24  C   LIG    1        1.055  -0.613  -0.772  0.00  0.00    +0.277 C 
ATOM     25  O   LIG    1       -0.016   0.050  -0.097  0.00  0.00    -0.492 OA
ENDBRANCH  17  25
ENDBRANCH  15  20
ENDBRANCH   1  15
BRANCH   9  26
ATOM     26  C   LIG    1       -7.462  -4.144  -0.183  0.00  0.00    +0.160 C 
BRANCH  26  27
ATOM     27  C   LIG    1       -7.922  -3.980  -1.608  0.00  0.00    -0.016 A 
ATOM     28  C   LIG    1       -7.043  -4.212  -2.650  0.00  0.00    +0.006 A 
ATOM     29  C   LIG    1       -7.465  -4.061  -3.957  0.00  0.00    +0.000 A 
ATOM     30  C   LIG    1       -8.767  -3.680  -4.224  0.00  0.00    +0.001 A 
ATOM     31  C   LIG    1       -9.646  -3.449  -3.183  0.00  0.00    +0.013 A 
ATOM     32  C   LIG    1       -9.225  -3.603  -1.875  0.00  0.00    +0.060 A 
BRANCH  32  33
ATOM     33  C   LIG    1      -10.185  -3.356  -0.740  0.00  0.00    +0.418 C 
ATOM     34  F   LIG    1       -9.749  -2.258   0.009  0.00  0.00    -0.166 F 
ATOM     35  F   LIG    1      -10.239  -4.488   0.081  0.00  0.00    -0.166 F 
ATOM     36  F   LIG    1      -11.459  -3.093  -1.255  0.00  0.00    -0.166 F 
ENDBRANCH  32  33
ENDBRANCH  26  27
ENDBRANCH   9  26
TORSDOF 7
