REMARK  Name = ZINC37868615
REMARK                            x       y       z     vdW  Elec       q    Type
REMARK                         _______ _______ _______ _____ _____    ______ ____
ROOT
ATOM      1  C   LIG    1        1.492  -2.540   2.454  0.00  0.00    +0.046 A 
ATOM      2  C   LIG    1        0.867  -3.421   3.282  0.00  0.00    +0.032 A 
ATOM      3  C   LIG    1        1.552  -3.885   4.421  0.00  0.00    -0.011 A 
ATOM      4  C   LIG    1        0.976  -4.793   5.321  0.00  0.00    +0.009 A 
ATOM      5  C   LIG    1        1.689  -5.205   6.406  0.00  0.00    +0.001 A 
ATOM      6  C   LIG    1        2.981  -4.738   6.635  0.00  0.00    +0.001 A 
ATOM      7  C   LIG    1        3.571  -3.854   5.781  0.00  0.00    +0.014 A 
ATOM      8  C   LIG    1        2.867  -3.409   4.654  0.00  0.00    +0.044 A 
ATOM      9  C   LIG    1        3.426  -2.496   3.734  0.00  0.00    +0.223 A 
ATOM     10  N   LIG    1        2.725  -2.112   2.687  0.00  0.00    -0.217 NA
ENDROOT
BRANCH   1  11
ATOM     11  C   LIG    1        0.763  -2.041   1.233  0.00  0.00    +0.055 C 
BRANCH  11  12
ATOM     12  C   LIG    1        0.742  -0.511   1.242  0.00  0.00    +0.006 C 
BRANCH  12  14
ATOM     13  C   LIG    1       -0.019   1.526   0.010  0.00  0.00    +0.004 C 
ATOM     14  C   LIG    1        0.002  -0.004   0.002  0.00  0.00    -0.003 C 
ENDBRANCH  12  14
ENDBRANCH  11  12
ENDBRANCH   1  11
BRANCH   9  15
ATOM     15  O   LIG    1        4.681  -2.021   3.925  0.00  0.00    -0.478 OA
BRANCH  15  16
ATOM     16  C   LIG    1        5.180  -1.101   2.953  0.00  0.00    +0.212 C 
BRANCH  16  17
ATOM     17  C   LIG    1        6.601  -0.678   3.334  0.00  0.00    -0.038 C 
BRANCH  17  18
ATOM     18  N   LIG    1        7.494  -1.842   3.262  0.00  0.00    +0.378 N 
ATOM     19  H   LIG    1        7.127  -2.584   3.839  0.00  0.00    -0.082 HD
ATOM     20  C   LIG    1        8.830  -1.464   3.742  0.00  0.00    -0.096 C 
ATOM     21  C   LIG    1        7.586  -2.303   1.870  0.00  0.00    -0.096 C 
ENDBRANCH  17  18
ENDBRANCH  16  17
ENDBRANCH  15  16
ENDBRANCH   9  15
TORSDOF 7
