REMARK  Name = ZINC18825325
REMARK                            x       y       z     vdW  Elec       q    Type
REMARK                         _______ _______ _______ _____ _____    ______ ____
ROOT
ATOM      1  C   LIG    1       -0.748  -4.123   0.896  0.00  0.00    +0.043 A 
ATOM      2  C   LIG    1       -0.203  -4.696  -0.243  0.00  0.00    +0.127 A 
ATOM      3  C   LIG    1       -0.010  -6.071  -0.323  0.00  0.00    +0.092 A 
ATOM      4  C   LIG    1       -0.362  -6.884   0.739  0.00  0.00    +0.135 A 
ATOM      5  C   LIG    1       -0.912  -6.312   1.893  0.00  0.00    +0.106 A 
ATOM      6  C   LIG    1       -1.300  -7.140   3.047  0.00  0.00    +0.197 A 
ATOM      7  O   LIG    1       -1.155  -8.352   3.035  0.00  0.00    -0.287 OA
ATOM      8  C   LIG    1       -1.833  -6.474   4.177  0.00  0.00    +0.098 A 
ATOM      9  C   LIG    1       -1.980  -5.123   4.151  0.00  0.00    +0.141 A 
ATOM     10  O   LIG    1       -1.627  -4.379   3.091  0.00  0.00    -0.454 OA
ATOM     11  C   LIG    1       -1.101  -4.921   1.972  0.00  0.00    +0.150 A 
ENDROOT
BRANCH   1  17
ATOM     12  C   LIG    1       -2.309   1.081   2.555  0.00  0.00    -0.096 C 
ATOM     13  N   LIG    1       -2.049  -0.353   2.378  0.00  0.00    +0.380 N 
ATOM     14  H   LIG    1       -2.459  -0.865   3.145  0.00  0.00    -0.082 HD
ATOM     15  C   LIG    1       -0.600  -0.588   2.356  0.00  0.00    -0.078 C 
ATOM     16  C   LIG    1       -0.324  -2.089   2.253  0.00  0.00    -0.008 C 
ATOM     17  C   LIG    1       -0.950  -2.631   0.966  0.00  0.00    +0.051 C 
ATOM     18  C   LIG    1       -2.449  -2.316   0.966  0.00  0.00    +0.106 C 
ATOM     19  C   LIG    1       -2.646  -0.806   1.116  0.00  0.00    -0.047 C 
BRANCH  18  20
ATOM     20  O   LIG    1       -3.078  -2.991   2.057  0.00  0.00    -0.393 OA
ATOM     21  H   LIG    1       -4.031  -2.836   2.118  0.00  0.00    +0.210 HD
ENDBRANCH  18  20
ENDBRANCH   1  17
BRANCH   9  22
ATOM     22  C   LIG    1       -2.548  -4.448   5.335  0.00  0.00    +0.036 A 
ATOM     23  C   LIG    1       -1.764  -3.567   6.084  0.00  0.00    +0.013 A 
ATOM     24  C   LIG    1       -2.301  -2.940   7.188  0.00  0.00    +0.001 A 
ATOM     25  C   LIG    1       -3.614  -3.180   7.555  0.00  0.00    +0.001 A 
ATOM     26  C   LIG    1       -4.397  -4.050   6.819  0.00  0.00    +0.021 A 
ATOM     27  C   LIG    1       -3.874  -4.682   5.707  0.00  0.00    +0.052 A 
ATOM     28 CL   LIG    1       -4.860  -5.768   4.779  0.00  0.00    -0.083 Cl
ENDBRANCH   9  22
BRANCH   2  29
ATOM     29  O   LIG    1        0.145  -3.907  -1.292  0.00  0.00    -0.506 OA
ATOM     30  H   LIG    1        1.078  -3.651  -1.298  0.00  0.00    +0.292 HD
ENDBRANCH   2  29
BRANCH   4  31
ATOM     31  O   LIG    1       -0.175  -8.226   0.664  0.00  0.00    -0.506 OA
ATOM     32  H   LIG    1        0.689  -8.521   0.982  0.00  0.00    +0.292 HD
ENDBRANCH   4  31
TORSDOF 5
