REMARK  Name = ZINC44677168
REMARK                            x       y       z     vdW  Elec       q    Type
REMARK                         _______ _______ _______ _____ _____    ______ ____
ROOT
ATOM      1  N   LIG    1        2.942  -1.750  -2.250  0.00  0.00    +0.387 N 
ATOM      2  H   LIG    1        2.719  -0.831  -2.602  0.00  0.00    -0.085 HD
ATOM      3  H   LIG    1        2.116  -2.168  -1.850  0.00  0.00    -0.085 HD
ENDROOT
BRANCH   1   6
ATOM      4  C   LIG    1        3.711  -0.707  -0.038  0.00  0.00    +0.003 C 
ATOM      5  C   LIG    1        3.675  -2.224   0.162  0.00  0.00    -0.009 C 
ATOM      6  C   LIG    1        3.983  -1.640  -1.219  0.00  0.00    -0.063 C 
BRANCH   4  10
ATOM      7  C   LIG    1       -0.017   1.378   0.010  0.00  0.00    +0.000 A 
ATOM      8  C   LIG    1        1.171   2.086   0.002  0.00  0.00    +0.000 A 
ATOM      9  C   LIG    1        2.377   1.411  -0.013  0.00  0.00    +0.004 A 
ATOM     10  C   LIG    1        2.396   0.029  -0.020  0.00  0.00    -0.046 A 
ATOM     11  C   LIG    1        1.208  -0.679  -0.012  0.00  0.00    +0.004 A 
ATOM     12  C   LIG    1        0.002  -0.004   0.002  0.00  0.00    +0.000 A 
ENDBRANCH   4  10
ENDBRANCH   1   6
BRANCH   1  13
ATOM     13  C   LIG    1        3.431  -2.590  -3.352  0.00  0.00    +0.015 C 
BRANCH  13  14
ATOM     14  C   LIG    1        2.364  -2.702  -4.410  0.00  0.00    +0.196 C 
ATOM     15  N   LIG    1        2.591  -3.430  -5.521  0.00  0.00    -0.314 N 
ATOM     16  H   LIG    1        3.441  -3.880  -5.641  0.00  0.00    +0.149 HD
ATOM     17  O   LIG    1        1.300  -2.139  -4.260  0.00  0.00    -0.278 OA
BRANCH  15  18
ATOM     18  C   LIG    1        1.553  -3.539  -6.550  0.00  0.00    +0.073 C 
ATOM     19  C   LIG    1        1.302  -4.921  -7.156  0.00  0.00    +0.024 C 
ATOM     20  C   LIG    1        2.004  -3.840  -7.980  0.00  0.00    +0.024 C 
ENDBRANCH  15  18
ENDBRANCH  13  14
ENDBRANCH   1  13
TORSDOF 5
