REMARK  Name = ZINC22916571
REMARK                            x       y       z     vdW  Elec       q    Type
REMARK                         _______ _______ _______ _____ _____    ______ ____
ROOT
ATOM      1  C   LIG    1        5.507  -1.710   1.381  0.00  0.00    +0.084 C 
ENDROOT
BRANCH   1   2
ATOM      2  N   LIG    1        5.948  -1.956   2.760  0.00  0.00    -0.306 NA
ATOM      3  C   LIG    1        5.042  -2.888   3.446  0.00  0.00    +0.065 C 
ATOM      4  C   LIG    1        5.502  -3.071   4.894  0.00  0.00    -0.067 C 
ATOM      5  N   LIG    1        6.874  -3.595   4.909  0.00  0.00    +0.381 N 
ATOM      6  H   LIG    1        6.901  -4.479   4.423  0.00  0.00    -0.086 HD
ATOM      7  H   LIG    1        7.172  -3.727   5.864  0.00  0.00    -0.086 HD
ATOM      8  C   LIG    1        7.771  -2.642   4.243  0.00  0.00    -0.067 C 
ATOM      9  C   LIG    1        7.330  -2.456   2.790  0.00  0.00    +0.065 C 
ENDBRANCH   1   2
BRANCH   1  10
ATOM     10  C   LIG    1        4.171  -0.963   1.399  0.00  0.00    +0.020 C 
BRANCH  10  11
ATOM     11  C   LIG    1        3.711  -0.707  -0.038  0.00  0.00    +0.036 C 
BRANCH  11  15
ATOM     12  C   LIG    1       -0.017   1.378   0.010  0.00  0.00    +0.000 A 
ATOM     13  C   LIG    1        1.171   2.086   0.002  0.00  0.00    +0.000 A 
ATOM     14  C   LIG    1        2.377   1.411  -0.013  0.00  0.00    +0.003 A 
ATOM     15  C   LIG    1        2.396   0.029  -0.020  0.00  0.00    -0.047 A 
ATOM     16  C   LIG    1        1.208  -0.679  -0.012  0.00  0.00    +0.003 A 
ATOM     17  C   LIG    1        0.002  -0.004   0.002  0.00  0.00    +0.000 A 
ENDBRANCH  11  15
ENDBRANCH  10  11
ENDBRANCH   1  10
TORSDOF 4
