REMARK  Name = ZINC34031449
REMARK                            x       y       z     vdW  Elec       q    Type
REMARK                         _______ _______ _______ _____ _____    ______ ____
ROOT
ATOM      1  C   LIG    1       -0.086   1.062  -2.472  0.00  0.00    +0.111 A 
ATOM      2  N   LIG    1       -0.328  -0.154  -3.028  0.00  0.00    -0.342 N 
ATOM      3  C   LIG    1        0.478  -0.259  -4.145  0.00  0.00    +0.067 A 
ATOM      4  C   LIG    1        0.674  -1.243  -5.103  0.00  0.00    +0.028 A 
ATOM      5  C   LIG    1        1.583  -1.047  -6.125  0.00  0.00    +0.003 A 
ATOM      6  C   LIG    1        2.307   0.128  -6.207  0.00  0.00    +0.015 A 
ATOM      7  C   LIG    1        2.130   1.132  -5.259  0.00  0.00    +0.064 A 
ATOM      8  C   LIG    1        1.204   0.941  -4.211  0.00  0.00    +0.101 A 
ATOM      9  H   LIG    1       -1.060  -0.833  -2.567  0.00  0.00    +0.167 HD
ATOM     10  N   LIG    1        0.815   1.698  -3.167  0.00  0.00    -0.231 NA
ENDROOT
BRANCH   1  15
ATOM     11  N   LIG    1       -2.115   1.088   1.265  0.00  0.00    +0.380 N 
ATOM     12  H   LIG    1       -2.082  -0.008   1.182  0.00  0.00    -0.082 HD
ATOM     13  C   LIG    1       -0.731   1.580   1.266  0.00  0.00    -0.078 C 
ATOM     14  C   LIG    1       -0.013   1.086   0.008  0.00  0.00    -0.008 C 
ATOM     15  C   LIG    1       -0.755   1.594  -1.231  0.00  0.00    +0.052 C 
ATOM     16  C   LIG    1       -2.206   1.108  -1.183  0.00  0.00    -0.008 C 
ATOM     17  C   LIG    1       -2.861   1.601   0.109  0.00  0.00    -0.078 C 
BRANCH  11  18
ATOM     18  C   LIG    1       -2.794   1.427   2.523  0.00  0.00    -0.079 C 
BRANCH  18  20
ATOM     19  C   LIG    1       -2.841   1.025   4.989  0.00  0.00    +0.002 C 
ATOM     20  C   LIG    1       -2.134   0.672   3.679  0.00  0.00    -0.022 C 
ENDBRANCH  18  20
ENDBRANCH  11  18
ENDBRANCH   1  15
BRANCH   7  21
ATOM     21  C   LIG    1        2.904   2.384  -5.348  0.00  0.00    +0.244 C 
ATOM     22  N   LIG    1        3.787   2.560  -6.351  0.00  0.00    -0.325 N 
ATOM     23  H   LIG    1        3.930   1.770  -7.103  0.00  0.00    +0.145 HD
ATOM     24  H   LIG    1        4.364   3.494  -6.418  0.00  0.00    +0.145 HD
ATOM     25  O   LIG    1        2.745   3.258  -4.517  0.00  0.00    -0.270 OA
ENDBRANCH   7  21
TORSDOF 4
