REMARK  Name = ZINC26393502
REMARK                            x       y       z     vdW  Elec       q    Type
REMARK                         _______ _______ _______ _____ _____    ______ ____
ROOT
ATOM      1  C   LIG    1       -0.484  -0.456   1.805  0.00  0.00    +0.016 C 
ATOM      2  C   LIG    1       -0.075   1.018   1.823  0.00  0.00    -0.008 C 
ATOM      3  C   LIG    1        1.405   1.112   1.457  0.00  0.00    +0.014 C 
ATOM      4  C   LIG    1        2.263   1.032   2.719  0.00  0.00    +0.032 C 
ATOM      5  C   LIG    1        1.635   0.102   3.754  0.00  0.00    +0.119 C 
ATOM      6  C   LIG    1        0.379   0.762   4.341  0.00  0.00    +0.062 C 
ATOM      7  C   LIG    1       -0.928   1.756   0.799  0.00  0.00    +0.003 C 
ATOM      8  C   LIG    1       -0.332   1.501  -0.592  0.00  0.00    +0.005 C 
ATOM      9  C   LIG    1       -1.206   2.188  -1.638  0.00  0.00    +0.013 C 
ATOM     10  C   LIG    1       -1.265   3.677  -1.399  0.00  0.00    +0.012 C 
ATOM     11  C   LIG    1       -2.268   4.291  -2.378  0.00  0.00    +0.018 C 
ATOM     12  C   LIG    1       -1.690   4.046   0.034  0.00  0.00    +0.008 C 
ATOM     13  C   LIG    1       -1.124   5.503   0.073  0.00  0.00    +0.033 C 
ATOM     14  C   LIG    1        0.140   5.399  -0.761  0.00  0.00    -0.004 C 
ATOM     15  C   LIG    1        0.058   4.370  -1.589  0.00  0.00    +0.027 C 
ATOM     16  C   LIG    1       -0.900   3.257   1.082  0.00  0.00    +0.001 C 
ATOM     17  C   LIG    1       -1.560   3.505   2.447  0.00  0.00    +0.031 C 
ATOM     18  C   LIG    1       -0.932   2.629   3.489  0.00  0.00    -0.027 C 
ATOM     19  C   LIG    1       -0.275   1.548   3.216  0.00  0.00    -0.065 C 
ENDROOT
BRANCH  15  20
ATOM     20  N   LIG    1        1.045   3.986  -2.496  0.00  0.00    -0.304 N 
ATOM     21  C   LIG    1        2.199   3.323  -2.203  0.00  0.00    +0.179 A 
ATOM     22  N   LIG    1        2.887   3.123  -3.289  0.00  0.00    -0.346 N 
ATOM     23  H   LIG    1        3.849   2.591  -3.240  0.00  0.00    +0.167 HD
ATOM     24  C   LIG    1        2.229   3.651  -4.352  0.00  0.00    +0.064 A 
ATOM     25  C   LIG    1        2.510   3.724  -5.719  0.00  0.00    +0.028 A 
ATOM     26  C   LIG    1        1.620   4.343  -6.567  0.00  0.00    +0.002 A 
ATOM     27  C   LIG    1        0.446   4.895  -6.077  0.00  0.00    +0.002 A 
ATOM     28  C   LIG    1        0.153   4.833  -4.731  0.00  0.00    +0.028 A 
ATOM     29  C   LIG    1        1.038   4.213  -3.860  0.00  0.00    +0.071 A 
ENDBRANCH  15  20
BRANCH   5  30
ATOM     30  O   LIG    1        1.276  -1.132   3.130  0.00  0.00    -0.391 OA
ATOM     31  H   LIG    1        0.806  -1.932   3.721  0.00  0.00    +0.210 HD
ENDBRANCH   5  30
TORSDOF 2
