REMARK  Name = ZINC18185774
REMARK                            x       y       z     vdW  Elec       q    Type
REMARK                         _______ _______ _______ _____ _____    ______ ____
ROOT
ATOM      1  C   LIG    1       -1.264  -0.761   0.011  0.00  0.00    +0.139 A 
ATOM      2  C   LIG    1       -2.437  -0.072   0.020  0.00  0.00    +0.098 A 
ATOM      3  C   LIG    1       -3.662  -0.781   0.029  0.00  0.00    +0.197 A 
ATOM      4  C   LIG    1       -3.594  -2.252   0.026  0.00  0.00    +0.105 A 
ATOM      5  C   LIG    1       -4.755  -3.034   0.033  0.00  0.00    +0.135 A 
ATOM      6  C   LIG    1       -4.648  -4.413   0.030  0.00  0.00    +0.091 A 
ATOM      7  C   LIG    1       -3.396  -5.016   0.020  0.00  0.00    +0.124 A 
ATOM      8  C   LIG    1       -2.241  -4.248   0.013  0.00  0.00    +0.092 A 
ATOM      9  C   LIG    1       -2.329  -2.865   0.016  0.00  0.00    +0.146 A 
ATOM     10  O   LIG    1       -4.733  -0.196   0.037  0.00  0.00    -0.287 OA
ATOM     11  O   LIG    1       -1.215  -2.102   0.003  0.00  0.00    -0.454 OA
ENDROOT
BRANCH   1  17
ATOM     12  C   LIG    1       -0.017   1.393   0.010  0.00  0.00    +0.015 A 
ATOM     13  C   LIG    1        1.167   2.098   0.002  0.00  0.00    +0.050 A 
ATOM     14  C   LIG    1        2.380   1.424  -0.013  0.00  0.00    +0.158 A 
ATOM     15  C   LIG    1        2.407   0.030  -0.021  0.00  0.00    +0.159 A 
ATOM     16  C   LIG    1        1.224  -0.683  -0.014  0.00  0.00    +0.060 A 
ATOM     17  C   LIG    1        0.002  -0.004   0.002  0.00  0.00    +0.021 A 
BRANCH  14  18
ATOM     18  O   LIG    1        3.545   2.124  -0.022  0.00  0.00    -0.503 OA
ATOM     19  H   LIG    1        3.891   2.322   0.859  0.00  0.00    +0.292 HD
ENDBRANCH  14  18
BRANCH  15  20
ATOM     20  O   LIG    1        3.597  -0.627  -0.037  0.00  0.00    -0.503 OA
ATOM     21  H   LIG    1        3.950  -0.822   0.842  0.00  0.00    +0.292 HD
ENDBRANCH  15  20
ENDBRANCH   1  17
BRANCH   5  22
ATOM     22  O   LIG    1       -5.977  -2.444   0.044  0.00  0.00    -0.506 OA
ATOM     23  H   LIG    1       -6.338  -2.271  -0.837  0.00  0.00    +0.292 HD
ENDBRANCH   5  22
BRANCH   7  24
ATOM     24  O   LIG    1       -3.302  -6.370   0.018  0.00  0.00    -0.507 OA
ATOM     25  H   LIG    1       -3.281  -6.762  -0.866  0.00  0.00    +0.292 HD
ENDBRANCH   7  24
TORSDOF 5
