REMARK  Name = ZINC45300069
REMARK                            x       y       z     vdW  Elec       q    Type
REMARK                         _______ _______ _______ _____ _____    ______ ____
ROOT
ATOM      1  C   LIG    1       -1.200  -0.637   0.010  0.00  0.00    +0.149 A 
ATOM      2  C   LIG    1       -2.375   0.101   0.019  0.00  0.00    +0.080 A 
ATOM      3  C   LIG    1       -3.596  -0.545   0.027  0.00  0.00    +0.125 A 
ATOM      4  C   LIG    1       -3.648  -1.927   0.026  0.00  0.00    +0.035 A 
ATOM      5  C   LIG    1       -2.479  -2.665   0.017  0.00  0.00    +0.035 A 
ATOM      6  C   LIG    1       -1.255  -2.023   0.003  0.00  0.00    +0.150 A 
ENDROOT
BRANCH   6   7
ATOM      7  S   LIG    1        0.234  -2.965  -0.015  0.00  0.00    +0.076 S 
ATOM      8  O   LIG    1       -0.151  -4.333  -0.046  0.00  0.00    -0.150 OA
ATOM      9  O   LIG    1        1.065  -2.430   1.005  0.00  0.00    -0.150 OA
BRANCH   7  10
ATOM     10  N   LIG    1        0.992  -2.654  -1.455  0.00  0.00    -0.215 N 
ATOM     11  H   LIG    1        0.583  -2.035  -2.102  0.00  0.00    +0.174 HD
BRANCH  10  12
ATOM     12  C   LIG    1        2.211  -3.270  -1.750  0.00  0.00    +0.066 A 
ATOM     13  C   LIG    1        2.860  -3.011  -2.955  0.00  0.00    +0.027 A 
ATOM     14  C   LIG    1        4.066  -3.646  -3.202  0.00  0.00    +0.022 A 
ATOM     15  C   LIG    1        4.582  -4.509  -2.252  0.00  0.00    +0.111 A 
ATOM     16  N   LIG    1        3.942  -4.732  -1.121  0.00  0.00    -0.261 NA
ATOM     17  C   LIG    1        2.796  -4.145  -0.844  0.00  0.00    +0.135 A 
ENDBRANCH  10  12
ENDBRANCH   7  10
ENDBRANCH   6   7
BRANCH   1  19
ATOM     18  C   LIG    1       -0.017   1.425   0.010  0.00  0.00    +0.277 C 
ATOM     19  O   LIG    1        0.002  -0.004   0.002  0.00  0.00    -0.493 OA
ENDBRANCH   1  19
BRANCH   3  20
ATOM     20  N   LIG    1       -4.849   0.242   0.038  0.00  0.00    +0.006 N 
ATOM     21  O   LIG    1       -4.804   1.450   0.040  0.00  0.00    -0.130 OA
BRANCH  20  22
ATOM     22  O   LIG    1       -5.918  -0.323   0.044  0.00  0.00    -0.396 OA
ATOM     23  H   LIG    1       -5.953  -1.259   0.043  0.00  0.00    +0.329 HD
ENDBRANCH  20  22
ENDBRANCH   3  20
TORSDOF 6
