REMARK  Name = ZINC29047614
REMARK                            x       y       z     vdW  Elec       q    Type
REMARK                         _______ _______ _______ _____ _____    ______ ____
ROOT
ATOM      1  C   LIG    1        3.050  -0.529   2.160  0.00  0.00    -0.096 C 
ATOM      2  N   LIG    1        2.190   0.045   1.116  0.00  0.00    +0.378 N 
ATOM      3  H   LIG    1        2.605  -0.240   0.139  0.00  0.00    -0.082 HD
ATOM      4  C   LIG    1        0.828  -0.499   1.199  0.00  0.00    -0.078 C 
ATOM      5  C   LIG    1        0.007  -0.002   0.006  0.00  0.00    -0.006 C 
ATOM      6  C   LIG    1       -0.017   1.525   0.010  0.00  0.00    +0.010 C 
ATOM      7  C   LIG    1       -0.776   2.042   1.238  0.00  0.00    +0.124 C 
ATOM      8  N   LIG    1       -1.909   2.798   0.695  0.00  0.00    -0.283 N 
ATOM      9  C   LIG    1       -1.878   2.768  -0.702  0.00  0.00    +0.039 A 
ATOM     10  C   LIG    1       -2.755   3.351  -1.619  0.00  0.00    +0.024 A 
ATOM     11  C   LIG    1       -2.544   3.203  -2.974  0.00  0.00    +0.002 A 
ATOM     12  C   LIG    1       -1.462   2.477  -3.434  0.00  0.00    +0.000 A 
ATOM     13  C   LIG    1       -0.589   1.897  -2.532  0.00  0.00    +0.006 A 
ATOM     14  C   LIG    1        1.406   2.077  -0.004  0.00  0.00    -0.006 C 
ATOM     15  C   LIG    1       -0.795   2.041  -1.174  0.00  0.00    -0.018 A 
ATOM     16  C   LIG    1        2.182   1.512   1.188  0.00  0.00    -0.078 C 
ENDROOT
BRANCH   8  17
ATOM     17  C   LIG    1       -2.869   3.445   1.454  0.00  0.00    +0.138 A 
ATOM     18  C   LIG    1       -2.880   3.328   2.852  0.00  0.00    +0.059 A 
ATOM     19  C   LIG    1       -2.060   2.628   3.839  0.00  0.00    +0.032 A 
ATOM     20  C   LIG    1       -2.580   2.908   5.045  0.00  0.00    +0.085 A 
ATOM     21  N   LIG    1       -3.667   3.732   4.902  0.00  0.00    -0.346 N 
ATOM     22  H   LIG    1       -4.223   4.067   5.790  0.00  0.00    +0.167 HD
ATOM     23  C   LIG    1       -3.876   4.006   3.579  0.00  0.00    +0.143 A 
ATOM     24  N   LIG    1       -4.769   4.733   2.909  0.00  0.00    -0.218 NA
ATOM     25  C   LIG    1       -4.720   4.815   1.597  0.00  0.00    +0.225 A 
ATOM     26  N   LIG    1       -3.801   4.198   0.877  0.00  0.00    -0.220 NA
ENDBRANCH   8  17
TORSDOF 1
