REMARK  Name = ZINC36221500
REMARK                            x       y       z     vdW  Elec       q    Type
REMARK                         _______ _______ _______ _____ _____    ______ ____
ROOT
ATOM      1  N   LIG    1        5.270   0.612   1.317  0.00  0.00    +0.382 N 
ATOM      2  H   LIG    1        4.490   1.138   1.682  0.00  0.00    -0.081 HD
ATOM      3  C   LIG    1        5.513  -0.554   2.174  0.00  0.00    -0.078 C 
ATOM      4  C   LIG    1        5.757  -0.093   3.613  0.00  0.00    -0.011 C 
ATOM      5  C   LIG    1        6.977   0.831   3.647  0.00  0.00    +0.018 C 
ATOM      6  C   LIG    1        6.743   2.006   2.693  0.00  0.00    -0.011 C 
ATOM      7  C   LIG    1        6.463   1.467   1.289  0.00  0.00    -0.078 C 
ENDROOT
BRANCH   5   8
ATOM      8  C   LIG    1        7.176   1.351   5.048  0.00  0.00    -0.018 A 
ATOM      9  C   LIG    1        6.301   2.074   5.764  0.00  0.00    +0.089 A 
ATOM     10  N   LIG    1        6.831   2.364   6.993  0.00  0.00    -0.346 N 
ATOM     11  C   LIG    1        8.089   1.824   7.102  0.00  0.00    +0.138 A 
ATOM     12  N   LIG    1        8.996   1.824   8.070  0.00  0.00    -0.237 NA
ATOM     13  C   LIG    1       10.152   1.208   7.934  0.00  0.00    +0.113 A 
ATOM     14  C   LIG    1       10.484   0.538   6.767  0.00  0.00    +0.020 A 
ATOM     15  C   LIG    1        9.581   0.506   5.721  0.00  0.00    +0.013 A 
ATOM     16  H   LIG    1        6.383   2.876   7.685  0.00  0.00    +0.167 HD
ATOM     17  C   LIG    1        8.358   1.160   5.889  0.00  0.00    +0.022 A 
ENDBRANCH   5   8
BRANCH   1  18
ATOM     18  C   LIG    1        4.960   0.161  -0.046  0.00  0.00    -0.042 C 
BRANCH  18  27
ATOM     19  C   LIG    1       -0.016   1.357   0.009  0.00  0.00    +0.001 A 
ATOM     20  C   LIG    1        1.169   2.091   0.002  0.00  0.00    +0.001 A 
ATOM     21  C   LIG    1        2.378   1.468  -0.013  0.00  0.00    +0.009 A 
ATOM     22  C   LIG    1        2.438   0.064  -0.021  0.00  0.00    -0.017 A 
ATOM     23  C   LIG    1        1.233  -0.683  -0.013  0.00  0.00    -0.018 A 
ATOM     24  C   LIG    1        1.292  -2.087  -0.021  0.00  0.00    +0.008 A 
ATOM     25  C   LIG    1        2.502  -2.709  -0.036  0.00  0.00    +0.001 A 
ATOM     26  C   LIG    1        3.687  -1.976  -0.043  0.00  0.00    +0.002 A 
ATOM     27  C   LIG    1        3.668  -0.615  -0.037  0.00  0.00    -0.056 A 
ATOM     28  C   LIG    1        0.002  -0.004   0.002  0.00  0.00    +0.008 A 
ENDBRANCH  18  27
ENDBRANCH   1  18
TORSDOF 3
