REMARK  Name = ZINC44125484
REMARK                            x       y       z     vdW  Elec       q    Type
REMARK                         _______ _______ _______ _____ _____    ______ ____
ROOT
ATOM      1  C   LIG    1       -0.019   1.526   0.010  0.00  0.00    +0.014 C 
ATOM      2  C   LIG    1        0.002  -0.004   0.002  0.00  0.00    +0.031 C 
ENDROOT
BRANCH   2   3
ATOM      3  C   LIG    1        0.731  -0.503   1.223  0.00  0.00    -0.043 A 
ATOM      4  C   LIG    1        0.263  -0.187   2.485  0.00  0.00    +0.004 A 
ATOM      5  C   LIG    1        0.931  -0.645   3.605  0.00  0.00    +0.000 A 
ATOM      6  C   LIG    1        2.068  -1.419   3.463  0.00  0.00    +0.000 A 
ATOM      7  C   LIG    1        2.535  -1.736   2.201  0.00  0.00    +0.000 A 
ATOM      8  C   LIG    1        1.864  -1.282   1.081  0.00  0.00    +0.004 A 
ENDBRANCH   2   3
BRANCH   2   9
ATOM      9  C   LIG    1       -1.433  -0.534   0.013  0.00  0.00    +0.109 C 
BRANCH   9  10
ATOM     10  N   LIG    1       -2.107  -0.147  -1.234  0.00  0.00    -0.248 NA
ATOM     11  C   LIG    1       -3.524  -0.536  -1.209  0.00  0.00    +0.123 C 
BRANCH  10  12
ATOM     12  N   LIG    1       -1.431  -0.715  -2.389  0.00  0.00    -0.268 NA
ATOM     13  H   LIG    1       -0.458  -0.448  -2.406  0.00  0.00    +0.137 HD
ATOM     14  H   LIG    1       -1.894  -0.450  -3.246  0.00  0.00    +0.137 HD
ENDBRANCH  10  12
ENDBRANCH   9  10
ENDBRANCH   2   9
TORSDOF 4
