REMARK  Name = ZINC14252145
REMARK                            x       y       z     vdW  Elec       q    Type
REMARK                         _______ _______ _______ _____ _____    ______ ____
ROOT
ATOM      1  C   LIG    1       -3.460   4.151   0.431  0.00  0.00    +0.037 C 
ATOM      2  C   LIG    1       -2.262   4.710   0.718  0.00  0.00    +0.022 C 
ENDROOT
BRANCH   2   3
ATOM      3  C   LIG    1       -1.034   3.921   0.577  0.00  0.00    +0.033 C 
ATOM      4  C   LIG    1       -0.303   3.597   1.676  0.00  0.00    +0.011 C 
ATOM      5  C   LIG    1       -0.754   4.047   3.042  0.00  0.00    +0.048 C 
ATOM      6  C   LIG    1        0.932   2.804   1.531  0.00  0.00    +0.228 C 
ATOM      7  C   LIG    1        1.376   2.363   0.196  0.00  0.00    +0.213 C 
ATOM      8  C   LIG    1        0.652   2.683  -0.903  0.00  0.00    +0.213 C 
ATOM      9  O   LIG    1        1.585   2.514   2.514  0.00  0.00    -0.284 OA
ATOM     10  C   LIG    1       -0.581   3.480  -0.768  0.00  0.00    +0.231 C 
ATOM     11  O   LIG    1       -1.228   3.771  -1.754  0.00  0.00    -0.283 OA
BRANCH   7  12
ATOM     12  O   LIG    1        2.513   1.634   0.068  0.00  0.00    -0.488 OA
ATOM     13  C   LIG    1        2.891   1.248  -1.255  0.00  0.00    +0.277 C 
ENDBRANCH   7  12
BRANCH   8  14
ATOM     14  O   LIG    1        1.065   2.275  -2.130  0.00  0.00    -0.488 OA
ATOM     15  C   LIG    1        1.446   3.293  -3.058  0.00  0.00    +0.277 C 
ENDBRANCH   8  14
ENDBRANCH   2   3
BRANCH   1  16
ATOM     16  C   LIG    1       -4.676   4.968   0.466  0.00  0.00    +0.333 C 
ATOM     17  O   LIG    1       -4.608   6.148   0.752  0.00  0.00    -0.245 OA
BRANCH  16  18
ATOM     18  O   LIG    1       -5.871   4.412   0.180  0.00  0.00    -0.477 OA
ATOM     19  H   LIG    1       -5.923   3.503  -0.041  0.00  0.00    +0.295 HD
ENDBRANCH  16  18
ENDBRANCH   1  16
BRANCH   1  20
ATOM     20  C   LIG    1       -3.545   2.689   0.076  0.00  0.00    +0.042 C 
BRANCH  20  21
ATOM     21  C   LIG    1       -3.869   1.877   1.332  0.00  0.00    +0.005 C 
BRANCH  21  22
ATOM     22  C   LIG    1       -3.954   0.393   0.972  0.00  0.00    +0.000 C 
BRANCH  22  23
ATOM     23  C   LIG    1       -4.279  -0.419   2.228  0.00  0.00    +0.000 C 
BRANCH  23  24
ATOM     24  C   LIG    1       -4.364  -1.903   1.868  0.00  0.00    +0.000 C 
BRANCH  24  25
ATOM     25  C   LIG    1       -4.688  -2.715   3.124  0.00  0.00    -0.000 C 
BRANCH  25  26
ATOM     26  C   LIG    1       -4.774  -4.199   2.763  0.00  0.00    -0.000 C 
BRANCH  26  28
ATOM     27  C   LIG    1       -5.184  -6.495   3.659  0.00  0.00    +0.004 C 
ATOM     28  C   LIG    1       -5.098  -5.011   4.019  0.00  0.00    -0.003 C 
ENDBRANCH  26  28
ENDBRANCH  25  26
ENDBRANCH  24  25
ENDBRANCH  23  24
ENDBRANCH  22  23
ENDBRANCH  21  22
ENDBRANCH  20  21
ENDBRANCH   1  20
TORSDOF 13
