REMARK  Name = ZINC27330748
REMARK                            x       y       z     vdW  Elec       q    Type
REMARK                         _______ _______ _______ _____ _____    ______ ____
ROOT
ATOM      1  C   LIG    1        1.226  -2.095  -0.020  0.00  0.00    +0.031 A 
ATOM      2  C   LIG    1        0.023  -2.739  -0.014  0.00  0.00    +0.111 A 
ATOM      3  N   LIG    1       -1.121  -2.073  -0.002  0.00  0.00    -0.261 NA
ATOM      4  C   LIG    1       -1.181  -0.762   0.007  0.00  0.00    +0.139 A 
ATOM      5  C   LIG    1        0.002  -0.004   0.002  0.00  0.00    +0.095 A 
ATOM      6  N   LIG    1       -0.016   1.330   0.009  0.00  0.00    -0.211 NA
ATOM      7  C   LIG    1        1.097   2.048   0.003  0.00  0.00    +0.220 A 
ATOM      8  O   LIG    1        0.974   3.401  -0.001  0.00  0.00    -0.476 OA
ATOM      9  C   LIG    1        2.113   4.176   0.372  0.00  0.00    +0.231 C 
ATOM     10  C   LIG    1        3.323   3.680  -0.430  0.00  0.00    +0.046 C 
ATOM     11  C   LIG    1        3.623   2.240  -0.002  0.00  0.00    +0.046 C 
ATOM     12  C   LIG    1        2.349   1.435  -0.006  0.00  0.00    +0.035 A 
ATOM     13  C   LIG    1        2.440   0.052  -0.016  0.00  0.00    +0.042 A 
ATOM     14  C   LIG    1        1.239  -0.694  -0.012  0.00  0.00    +0.024 A 
ENDROOT
BRANCH  13  15
ATOM     15  N   LIG    1        3.674  -0.581  -0.030  0.00  0.00    -0.357 N 
ATOM     16  H   LIG    1        3.728  -1.680  -0.038  0.00  0.00    +0.142 HD
ATOM     17  H   LIG    1        4.598   0.015  -0.033  0.00  0.00    +0.142 HD
ENDBRANCH  13  15
TORSDOF 1
