REMARK  Name = ZINC19167960
REMARK                            x       y       z     vdW  Elec       q    Type
REMARK                         _______ _______ _______ _____ _____    ______ ____
ROOT
ATOM      1  C   LIG    1        1.151   3.592   0.010  0.00  0.00    +0.157 C 
ENDROOT
BRANCH   1   5
ATOM      2  C   LIG    1        1.208  -0.679  -0.014  0.00  0.00    +0.000 A 
ATOM      3  C   LIG    1        0.002  -0.004   0.002  0.00  0.00    +0.000 A 
ATOM      4  C   LIG    1       -0.017   1.378   0.010  0.00  0.00    +0.006 A 
ATOM      5  C   LIG    1        1.171   2.086   0.002  0.00  0.00    -0.018 A 
ATOM      6  C   LIG    1        2.377   1.411  -0.014  0.00  0.00    +0.006 A 
ATOM      7  C   LIG    1        2.396   0.029  -0.021  0.00  0.00    +0.000 A 
ENDBRANCH   1   5
BRANCH   1   8
ATOM      8  O   LIG    1        2.168   4.087  -0.863  0.00  0.00    -0.386 OA
ATOM      9  H   LIG    1        2.306   5.171  -0.988  0.00  0.00    +0.210 HD
ENDBRANCH   1   8
BRANCH   1  10
ATOM     10  C   LIG    1        1.407   4.098   1.431  0.00  0.00    +0.099 C 
BRANCH  10  11
ATOM     11  N   LIG    1        1.269   5.561   1.462  0.00  0.00    -0.367 NA
ATOM     12  H   LIG    1        1.999   6.013   0.774  0.00  0.00    +0.101 HD
BRANCH  11  13
ATOM     13  N   LIG    1        1.507   6.078   2.800  0.00  0.00    +0.387 N 
ATOM     14  H   LIG    1        0.778   5.640   3.498  0.00  0.00    -0.065 HD
ATOM     15  H   LIG    1        2.526   5.813   3.120  0.00  0.00    -0.065 HD
ATOM     16  H   LIG    1        1.397   7.172   2.795  0.00  0.00    -0.065 HD
ENDBRANCH  11  13
ENDBRANCH  10  11
ENDBRANCH   1  10
TORSDOF 5
