REMARK  Name = ZINC19203912
REMARK                            x       y       z     vdW  Elec       q    Type
REMARK                         _______ _______ _______ _____ _____    ______ ____
ROOT
ATOM      1  C   LIG    1        3.444  -4.977   0.037  0.00  0.00    +0.002 A 
ATOM      2  C   LIG    1        4.386  -4.577   0.965  0.00  0.00    +0.001 A 
ATOM      3  C   LIG    1        4.279  -3.336   1.566  0.00  0.00    +0.017 A 
ATOM      4  C   LIG    1        3.227  -2.493   1.241  0.00  0.00    +0.034 A 
ATOM      5  C   LIG    1        2.273  -2.893   0.310  0.00  0.00    +0.048 A 
ATOM      6  N   LIG    1        1.194  -2.083  -0.035  0.00  0.00    -0.298 N 
ATOM      7  C   LIG    1        1.171  -0.696   0.085  0.00  0.00    +0.048 A 
ATOM      8  C   LIG    1        0.302   0.033  -0.721  0.00  0.00    +0.037 A 
ATOM      9  C   LIG    1        0.250   1.411  -0.624  0.00  0.00    +0.057 A 
ATOM     10  C   LIG    1        1.060   2.076   0.277  0.00  0.00    +0.013 A 
ATOM     11  C   LIG    1        1.929   1.362   1.081  0.00  0.00    +0.017 A 
ATOM     12  C   LIG    1        1.989  -0.021   0.988  0.00  0.00    +0.034 A 
ATOM     13  S   LIG    1        3.110  -0.914   2.013  0.00  0.00    -0.086 S 
ATOM     14  C   LIG    1        2.393  -4.142  -0.291  0.00  0.00    +0.024 A 
ENDROOT
BRANCH   9  15
ATOM     15  C   LIG    1       -0.695   2.190  -1.502  0.00  0.00    +0.417 C 
ATOM     16  F   LIG    1       -0.878   1.508  -2.710  0.00  0.00    -0.166 F 
ATOM     17  F   LIG    1       -0.156   3.455  -1.758  0.00  0.00    -0.166 F 
ATOM     18  F   LIG    1       -1.927   2.330  -0.854  0.00  0.00    -0.166 F 
ENDBRANCH   9  15
BRANCH   6  19
ATOM     19  C   LIG    1       -0.004  -2.738  -0.563  0.00  0.00    +0.109 C 
BRANCH  19  20
ATOM     20  C   LIG    1        0.100  -2.841  -2.086  0.00  0.00    +0.001 C 
BRANCH  20  21
ATOM     21  C   LIG    1       -1.152  -3.526  -2.638  0.00  0.00    -0.077 C 
BRANCH  21  22
ATOM     22  N   LIG    1       -1.051  -3.625  -4.100  0.00  0.00    +0.381 N 
ATOM     23  H   LIG    1       -0.194  -4.097  -4.347  0.00  0.00    -0.082 HD
ATOM     24  C   LIG    1       -1.054  -2.277  -4.684  0.00  0.00    -0.063 C 
ATOM     25  C   LIG    1       -0.930  -2.380  -6.206  0.00  0.00    +0.066 C 
ATOM     26  N   LIG    1       -2.055  -3.163  -6.734  0.00  0.00    -0.304 NA
ATOM     27  C   LIG    1       -2.081  -4.508  -6.140  0.00  0.00    +0.066 C 
ATOM     28  C   LIG    1       -2.195  -4.387  -4.619  0.00  0.00    -0.063 C 
BRANCH  26  29
ATOM     29  C   LIG    1       -2.003  -3.237  -8.200  0.00  0.00    +0.112 C 
BRANCH  29  30
ATOM     30  C   LIG    1       -3.308  -3.838  -8.728  0.00  0.00    +0.171 C 
BRANCH  30  31
ATOM     31  O   LIG    1       -4.392  -2.956  -8.432  0.00  0.00    -0.394 OA
ATOM     32  H   LIG    1       -5.253  -3.274  -8.738  0.00  0.00    +0.209 HD
ENDBRANCH  30  31
ENDBRANCH  29  30
ENDBRANCH  26  29
ENDBRANCH  21  22
ENDBRANCH  20  21
ENDBRANCH  19  20
ENDBRANCH   6  19
TORSDOF 8
