REMARK  Name = ZINC13823784
REMARK                            x       y       z     vdW  Elec       q    Type
REMARK                         _______ _______ _______ _____ _____    ______ ____
ROOT
ATOM      1  C   LIG    1        2.442   3.920   0.003  0.00  0.00    +0.013 C 
ENDROOT
BRANCH   1   7
ATOM      2  C   LIG    1       -0.561   1.634   0.089  0.00  0.00    +0.000 A 
ATOM      3  C   LIG    1       -1.600   2.544   0.152  0.00  0.00    +0.001 A 
ATOM      4  C   LIG    1       -1.331   3.900   0.177  0.00  0.00    +0.020 A 
ATOM      5  C   LIG    1       -0.022   4.346   0.128  0.00  0.00    +0.044 A 
ATOM      6 CL   LIG    1        0.317   6.048   0.152  0.00  0.00    -0.083 Cl
ATOM      7  C   LIG    1        1.016   3.434   0.058  0.00  0.00    -0.027 A 
ATOM      8  C   LIG    1        0.746   2.079   0.039  0.00  0.00    +0.005 A 
ENDBRANCH   1   7
BRANCH   1   9
ATOM      9  C   LIG    1        3.214   3.372   1.205  0.00  0.00    -0.078 C 
BRANCH   9  10
ATOM     10  N   LIG    1        2.600   3.880   2.445  0.00  0.00    +0.379 N 
ATOM     11  H   LIG    1        1.659   3.480   2.543  0.00  0.00    -0.090 HD
ATOM     12  H   LIG    1        2.528   4.895   2.408  0.00  0.00    -0.090 HD
ATOM     13  H   LIG    1        3.162   3.608   3.250  0.00  0.00    -0.090 HD
ENDBRANCH   9  10
ENDBRANCH   1   9
BRANCH   1  14
ATOM     14  C   LIG    1        3.098   3.430  -1.290  0.00  0.00    +0.126 C 
BRANCH  14  15
ATOM     15  C   LIG    1        4.467   4.045  -1.422  0.00  0.00    +0.305 C 
ATOM     16  O   LIG    1        4.833   4.882  -0.631  0.00  0.00    -0.251 OA
BRANCH  15  17
ATOM     17  O   LIG    1        5.281   3.663  -2.419  0.00  0.00    -0.481 OA
ATOM     18  H   LIG    1        4.997   3.014  -3.033  0.00  0.00    +0.295 HD
ENDBRANCH  15  17
ENDBRANCH  14  15
ENDBRANCH   1  14
TORSDOF 6
