REMARK  Name = ZINC15859009
REMARK                            x       y       z     vdW  Elec       q    Type
REMARK                         _______ _______ _______ _____ _____    ______ ____
ROOT
ATOM      1  C   LIG    1        6.570  -1.174   1.044  0.00  0.00    +0.154 C 
ATOM      2  N   LIG    1        5.347  -0.503   1.489  0.00  0.00    -0.294 N 
ATOM      3  C   LIG    1        4.388  -0.047   0.572  0.00  0.00    +0.082 A 
ATOM      4  C   LIG    1        3.170   0.629   1.086  0.00  0.00    +0.089 A 
ATOM      5  C   LIG    1        3.000   0.794   2.533  0.00  0.00    +0.266 A 
ATOM      6  N   LIG    1        4.010   0.306   3.298  0.00  0.00    -0.263 N 
ATOM      7  C   LIG    1        3.904   0.446   4.752  0.00  0.00    +0.157 C 
ATOM      8  O   LIG    1        2.023   1.337   3.014  0.00  0.00    -0.267 OA
ATOM      9  C   LIG    1        2.413   0.959  -0.011  0.00  0.00    +0.071 A 
ATOM     10  N   LIG    1        3.085   0.535  -1.115  0.00  0.00    -0.306 N 
ATOM     11  C   LIG    1        2.714   0.646  -2.463  0.00  0.00    +0.068 A 
ATOM     12  C   LIG    1        1.661   1.447  -2.861  0.00  0.00    +0.028 A 
ATOM     13  C   LIG    1        1.342   1.545  -4.204  0.00  0.00    +0.002 A 
ATOM     14  C   LIG    1        2.074   0.845  -5.145  0.00  0.00    +0.002 A 
ATOM     15  C   LIG    1        3.124   0.035  -4.753  0.00  0.00    +0.025 A 
ATOM     16  C   LIG    1        3.447  -0.076  -3.410  0.00  0.00    +0.052 A 
ATOM     17  N   LIG    1        4.495  -0.907  -2.998  0.00  0.00    -0.330 N 
ATOM     18  H   LIG    1        4.718  -1.698  -3.514  0.00  0.00    +0.147 HD
ATOM     19  C   LIG    1        5.259  -0.583  -1.783  0.00  0.00    +0.150 C 
ATOM     20  C   LIG    1        4.286  -0.058  -0.749  0.00  0.00    +0.073 A 
ATOM     21  C   LIG    1        5.095  -0.296   2.801  0.00  0.00    +0.332 A 
ATOM     22  O   LIG    1        5.926  -0.690   3.596  0.00  0.00    -0.246 OA
ENDROOT
BRANCH   9  23
ATOM     23  C   LIG    1        1.111   1.652   0.004  0.00  0.00    +0.035 A 
ATOM     24  C   LIG    1       -0.075   0.918   0.076  0.00  0.00    +0.013 A 
ATOM     25  C   LIG    1       -1.288   1.572   0.085  0.00  0.00    +0.001 A 
ATOM     26  C   LIG    1       -1.335   2.955   0.034  0.00  0.00    +0.003 A 
ATOM     27  C   LIG    1       -0.166   3.691  -0.037  0.00  0.00    +0.039 A 
ATOM     28  C   LIG    1        1.058   3.049  -0.052  0.00  0.00    +0.133 A 
ATOM     29  F   LIG    1        2.200   3.768  -0.122  0.00  0.00    -0.205 F 
ENDBRANCH   9  23
BRANCH  19  30
ATOM     30  C   LIG    1        6.290   0.470  -2.094  0.00  0.00    -0.020 A 
ATOM     31  C   LIG    1        5.986   1.499  -2.966  0.00  0.00    +0.006 A 
ATOM     32  C   LIG    1        6.930   2.468  -3.249  0.00  0.00    +0.002 A 
ATOM     33  C   LIG    1        8.182   2.404  -2.667  0.00  0.00    +0.020 A 
ATOM     34  C   LIG    1        8.489   1.372  -1.798  0.00  0.00    +0.041 A 
ATOM     35 CL   LIG    1       10.062   1.290  -1.068  0.00  0.00    -0.084 Cl
ATOM     36  C   LIG    1        7.542   0.405  -1.512  0.00  0.00    +0.025 A 
ENDBRANCH  19  30
TORSDOF 2
