REMARK  Name = ZINC13985942
REMARK                            x       y       z     vdW  Elec       q    Type
REMARK                         _______ _______ _______ _____ _____    ______ ____
ROOT
ATOM      1  C   LIG    1        1.178   1.785   0.000  0.00  0.00    +0.162 A 
ATOM      2  C   LIG    1       -0.013   1.076   0.008  0.00  0.00    +0.050 A 
ATOM      3  C   LIG    1       -1.219   1.751   0.017  0.00  0.00    +0.007 A 
ATOM      4  C   LIG    1       -1.241   3.133   0.030  0.00  0.00    -0.043 A 
ATOM      5  C   LIG    1       -0.057   3.846   0.022  0.00  0.00    +0.053 A 
ATOM      6  C   LIG    1        1.155   3.176   0.008  0.00  0.00    +0.162 A 
ENDROOT
BRANCH   6   7
ATOM      7  O   LIG    1        2.321   3.877   0.001  0.00  0.00    -0.491 OA
ATOM      8  C   LIG    1        2.222   5.302   0.009  0.00  0.00    +0.277 C 
ENDBRANCH   6   7
BRANCH   1   9
ATOM      9  O   LIG    1        2.365   1.123  -0.014  0.00  0.00    -0.484 OA
BRANCH   9  10
ATOM     10  C   LIG    1        2.312  -0.305  -0.020  0.00  0.00    +0.264 C 
BRANCH  10  14
ATOM     11  C   LIG    1        6.285  -1.880  -0.064  0.00  0.00    +0.120 A 
ATOM     12  C   LIG    1        5.650  -1.629   1.144  0.00  0.00    +0.046 A 
ATOM     13  C   LIG    1        4.365  -1.121   1.156  0.00  0.00    +0.010 A 
ATOM     14  C   LIG    1        3.713  -0.861  -0.035  0.00  0.00    -0.010 A 
ATOM     15  C   LIG    1        4.341  -1.115  -1.240  0.00  0.00    +0.010 A 
ATOM     16  C   LIG    1        5.628  -1.618  -1.257  0.00  0.00    +0.046 A 
BRANCH  11  18
ATOM     17  C   LIG    1        8.139  -2.613  -1.357  0.00  0.00    +0.277 C 
ATOM     18  O   LIG    1        7.548  -2.380  -0.077  0.00  0.00    -0.495 OA
ENDBRANCH  11  18
ENDBRANCH  10  14
ENDBRANCH   9  10
ENDBRANCH   1   9
BRANCH   4  19
ATOM     19  C   LIG    1       -2.559   3.864   0.046  0.00  0.00    +0.043 C 
BRANCH  19  20
ATOM     20  C   LIG    1       -3.012   4.114  -1.370  0.00  0.00    +0.039 C 
ATOM     21  C   LIG    1       -2.736   5.313  -1.998  0.00  0.00    +0.090 C 
ATOM     22  N   LIG    1       -3.132   5.567  -3.277  0.00  0.00    -0.289 NA
ATOM     23  H   LIG    1       -2.916   6.446  -3.702  0.00  0.00    +0.125 HD
ATOM     24  C   LIG    1       -3.817   4.560  -3.889  0.00  0.00    +0.192 C 
ATOM     25  N   LIG    1       -4.101   3.397  -3.323  0.00  0.00    -0.274 NA
ATOM     26  H   LIG    1       -3.686   2.676  -3.914  0.00  0.00    +0.126 HD
ATOM     27  C   LIG    1       -3.715   3.138  -2.078  0.00  0.00    +0.126 C 
BRANCH  24  28
ATOM     28  N   LIG    1       -4.229   4.796  -5.189  0.00  0.00    -0.303 NA
ATOM     29  H   LIG    1       -4.720   4.114  -5.674  0.00  0.00    +0.121 HD
ATOM     30  H   LIG    1       -4.027   5.644  -5.616  0.00  0.00    +0.121 HD
ENDBRANCH  24  28
BRANCH  27  31
ATOM     31  N   LIG    1       -4.010   1.918  -1.490  0.00  0.00    -0.315 NA
ATOM     32  H   LIG    1       -4.498   1.245  -1.989  0.00  0.00    +0.120 HD
ATOM     33  H   LIG    1       -3.727   1.738  -0.580  0.00  0.00    +0.120 HD
ENDBRANCH  27  31
ENDBRANCH  19  20
ENDBRANCH   4  19
TORSDOF 9
