REMARK  Name = ZINC17421407
REMARK                            x       y       z     vdW  Elec       q    Type
REMARK                         _______ _______ _______ _____ _____    ______ ____
ROOT
ATOM      1  C   UNK A  0        3.658   3.510   0.010  0.00  0.00    +0.030 A 
ATOM      2  C   UNK A  0        2.447   4.197   0.037  0.00  0.00    +0.024 A 
ATOM      3  C   UNK A  0        1.260   3.501   0.048  0.00  0.00    +0.015 A 
ATOM      4  C   UNK A  0        1.271   2.103   0.032  0.00  0.00    +0.037 A 
ATOM      5  C   UNK A  0        2.488   1.416   0.011  0.00  0.00    +0.015 A 
ATOM      6  C   UNK A  0        3.672   2.118  -0.005  0.00  0.00    +0.024 A 
ENDROOT
BRANCH   4   7
ATOM      7  C   UNK A  0       -0.000   1.353   0.043  0.00  0.00    +0.245 C 
ATOM      8  N   GLU A  1        0.012   0.006   0.028  0.00  0.00    -0.298 N 
ATOM      9  H   GLU A  1        0.970  -0.535   0.007  0.00  0.00    +0.150 HD
ATOM     10  O   UNK A  0       -1.058   1.952   0.061  0.00  0.00    -0.270 OA
BRANCH   8  11
ATOM     11  CA  GLU A  1       -1.250  -0.738   0.039  0.00  0.00    +0.182 C 
BRANCH  11  12
ATOM     12  C   GLU A  1       -1.724  -0.903   1.460  0.00  0.00    +0.325 C 
ATOM     13  O   GLU A  1       -1.074  -0.445   2.370  0.00  0.00    -0.249 OA
BRANCH  12  14
ATOM     14  OXT GLU A  1       -2.867  -1.557   1.714  0.00  0.00    -0.479 OA
ATOM     15  HXT GLU A  1       -3.371  -1.912   1.009  0.00  0.00    +0.295 HD
ENDBRANCH  12  14
ENDBRANCH  11  12
BRANCH  11  16
ATOM     16  CB  GLU A  1       -1.035  -2.117  -0.590  0.00  0.00    +0.045 C 
BRANCH  16  17
ATOM     17  CG  GLU A  1       -0.674  -1.953  -2.068  0.00  0.00    +0.123 C 
BRANCH  17  18
ATOM     18  CD  GLU A  1       -0.462  -3.310  -2.687  0.00  0.00    +0.305 C 
ATOM     19  OE1 GLU A  1       -0.587  -4.307  -2.015  0.00  0.00    -0.251 OA
BRANCH  18  20
ATOM     20  OE2 GLU A  1       -0.136  -3.413  -3.985  0.00  0.00    -0.481 OA
ATOM     21  HE2 GLU A  1       -0.039  -2.640  -4.506  0.00  0.00    +0.295 HD
ENDBRANCH  18  20
ENDBRANCH  17  18
ENDBRANCH  16  17
ENDBRANCH  11  16
ENDBRANCH   8  11
ENDBRANCH   4   7
BRANCH   1  23
ATOM     22  C   UNK A  0        4.842   5.681   0.016  0.00  0.00    +0.129 C 
ATOM     23  N   UNK A  0        4.855   4.216  -0.001  0.00  0.00    -0.327 N 
BRANCH  23  24
ATOM     24  C   UNK A  0        6.130   3.496  -0.029  0.00  0.00    +0.161 C 
BRANCH  24  25
ATOM     25  C   UNK A  0        6.545   3.264  -1.459  0.00  0.00    +0.077 A 
ATOM     26  C   UNK A  0        7.412   4.164  -2.080  0.00  0.00    +0.138 A 
ATOM     27  N   UNK A  0        7.775   3.991  -3.333  0.00  0.00    -0.232 NA
ATOM     28  C   UNK A  0        7.326   2.930  -4.010  0.00  0.00    +0.187 A 
ATOM     29  N   UNK A  0        7.681   2.704  -5.281  0.00  0.00    -0.195 NA
ATOM     30  C   UNK A  0        7.217   1.651  -5.928  0.00  0.00    +0.195 A 
ATOM     31  N   UNK A  0        6.390   0.771  -5.370  0.00  0.00    -0.293 N 
ATOM     32  H   UNK A  0        6.028  -0.089  -5.952  0.00  0.00    +0.172 HD
ATOM     33  C   UNK A  0        5.984   0.903  -4.119  0.00  0.00    +0.280 A 
ATOM     34  O   UNK A  0        5.144   0.001  -3.564  0.00  0.00    -0.265 OA
ATOM     35  C   UNK A  0        6.450   2.017  -3.373  0.00  0.00    +0.172 A 
ATOM     36  N   UNK A  0        6.086   2.217  -2.109  0.00  0.00    -0.240 NA
BRANCH  30  37
ATOM     37  N   UNK A  0        7.608   1.454  -7.238  0.00  0.00    -0.329 N 
ATOM     38  H   UNK A  0        8.292   2.167  -7.722  0.00  0.00    +0.145 HD
ATOM     39  H   UNK A  0        7.235   0.583  -7.798  0.00  0.00    +0.145 HD
ENDBRANCH  30  37
ENDBRANCH  24  25
ENDBRANCH  23  24
ENDBRANCH   1  23
TORSDOF 12
