REMARK  Name = ZINC19338859
REMARK                            x       y       z     vdW  Elec       q    Type
REMARK                         _______ _______ _______ _____ _____    ______ ____
ROOT
ATOM      1  C   LIG    1        0.989   5.909   0.022  0.00  0.00    +0.125 C 
ATOM      2  C   LIG    1        2.261   5.328   0.007  0.00  0.00    +0.043 C 
ATOM      3  C   LIG    1        2.381   3.947  -0.001  0.00  0.00    +0.026 C 
ATOM      4  C   LIG    1        1.144   3.165   0.008  0.00  0.00    +0.014 C 
ATOM      5  C   LIG    1        1.164   1.766   0.000  0.00  0.00    +0.005 C 
ATOM      6  C   LIG    1       -0.013   1.076   0.008  0.00  0.00    +0.000 C 
ATOM      7  C   LIG    1       -1.232   1.747   0.017  0.00  0.00    +0.002 C 
ATOM      8  C   LIG    1       -1.285   3.108   0.031  0.00  0.00    +0.019 C 
ATOM      9  C   LIG    1       -0.093   3.852   0.023  0.00  0.00    +0.059 C 
ATOM     10  N   LIG    1       -0.113   5.189   0.029  0.00  0.00    -0.298 NA
ATOM     11  H   LIG    1       -1.095   5.687   0.041  0.00  0.00    +0.124 HD
ENDROOT
BRANCH   1  16
ATOM     12  C   LIG    1        0.027  11.283   1.119  0.00  0.00    +0.105 C 
ATOM     13  N   LIG    1        0.137   9.818   1.110  0.00  0.00    -0.303 NA
ATOM     14  C   LIG    1       -0.595   9.241  -0.026  0.00  0.00    +0.099 C 
ATOM     15  C   LIG    1       -0.523   7.714   0.046  0.00  0.00    +0.101 C 
ATOM     16  N   LIG    1        0.885   7.292   0.030  0.00  0.00    -0.285 NA
ATOM     17  C   LIG    1        1.617   7.869   1.166  0.00  0.00    +0.101 C 
ATOM     18  C   LIG    1        1.544   9.396   1.095  0.00  0.00    +0.099 C 
ENDBRANCH   1  16
BRANCH   3  19
ATOM     19  C   LIG    1        3.708   3.289  -0.016  0.00  0.00    -0.044 A 
ATOM     20  C   LIG    1        4.002   2.283   0.905  0.00  0.00    +0.004 A 
ATOM     21  C   LIG    1        5.237   1.670   0.881  0.00  0.00    +0.000 A 
ATOM     22  C   LIG    1        6.189   2.059  -0.045  0.00  0.00    +0.000 A 
ATOM     23  C   LIG    1        5.905   3.060  -0.957  0.00  0.00    +0.000 A 
ATOM     24  C   LIG    1        4.671   3.677  -0.947  0.00  0.00    +0.004 A 
ENDBRANCH   3  19
TORSDOF 2
