REMARK  Name = ZINC28563821
REMARK                            x       y       z     vdW  Elec       q    Type
REMARK                         _______ _______ _______ _____ _____    ______ ____
ROOT
ATOM      1  C   LIG    1       -4.782   0.279   6.750  0.00  0.00    +0.139 A 
ATOM      2  N   LIG    1       -6.007  -0.290   6.944  0.00  0.00    -0.337 N 
ATOM      3  C   LIG    1       -6.434   0.079   8.199  0.00  0.00    +0.074 A 
ATOM      4  C   LIG    1       -5.433   0.875   8.733  0.00  0.00    +0.097 A 
ATOM      5  H   LIG    1       -6.488  -0.851   6.314  0.00  0.00    +0.167 HD
ATOM      6  N   LIG    1       -4.450   0.963   7.822  0.00  0.00    -0.227 NA
ENDROOT
BRANCH   3   7
ATOM      7  C   LIG    1       -7.703  -0.297   8.846  0.00  0.00    +0.001 A 
ATOM      8  C   LIG    1       -8.489   0.678   9.470  0.00  0.00    +0.010 A 
ATOM      9  C   LIG    1       -9.663   0.327  10.068  0.00  0.00    +0.011 A 
ATOM     10  C   LIG    1      -10.089  -1.010  10.063  0.00  0.00    +0.003 A 
ATOM     11  C   LIG    1       -9.304  -1.982   9.441  0.00  0.00    -0.037 A 
ATOM     12  C   LIG    1       -9.971  -3.331   9.569  0.00  0.00    +0.042 C 
ATOM     13  C   LIG    1      -11.273  -3.098  10.347  0.00  0.00    +0.064 C 
ATOM     14  C   LIG    1      -11.305  -1.617  10.638  0.00  0.00    +0.088 C 
ATOM     15  N   LIG    1      -12.237  -0.989  11.280  0.00  0.00    -0.092 NA
ATOM     16  C   LIG    1       -8.128  -1.629   8.835  0.00  0.00    +0.014 A 
BRANCH  15  17
ATOM     17  O   LIG    1      -13.355  -1.699  11.780  0.00  0.00    -0.409 OA
ATOM     18  H   LIG    1      -13.998  -1.145  12.244  0.00  0.00    +0.328 HD
ENDBRANCH  15  17
ENDBRANCH   3   7
BRANCH   1  22
ATOM     19  C   LIG    1       -2.409  -0.113   3.248  0.00  0.00    +0.120 A 
ATOM     20  C   LIG    1       -1.945   0.642   4.318  0.00  0.00    +0.046 A 
ATOM     21  C   LIG    1       -2.712   0.772   5.456  0.00  0.00    +0.015 A 
ATOM     22  C   LIG    1       -3.957   0.143   5.532  0.00  0.00    +0.018 A 
ATOM     23  C   LIG    1       -4.419  -0.615   4.454  0.00  0.00    +0.015 A 
ATOM     24  C   LIG    1       -3.648  -0.735   3.318  0.00  0.00    +0.046 A 
BRANCH  19  25
ATOM     25  O   LIG    1       -1.650  -0.238   2.129  0.00  0.00    -0.494 OA
BRANCH  25  26
ATOM     26  C   LIG    1       -0.386   0.428   2.124  0.00  0.00    +0.210 C 
BRANCH  26  27
ATOM     27  C   LIG    1        0.319   0.174   0.790  0.00  0.00    -0.038 C 
BRANCH  27  29
ATOM     28  C   LIG    1       -0.449   2.253  -0.128  0.00  0.00    -0.096 C 
ATOM     29  N   LIG    1       -0.451   0.794  -0.297  0.00  0.00    +0.378 N 
ATOM     30  H   LIG    1       -1.400   0.454  -0.273  0.00  0.00    -0.082 HD
ATOM     31  C   LIG    1        0.160   0.449  -1.588  0.00  0.00    -0.096 C 
ENDBRANCH  27  29
ENDBRANCH  26  27
ENDBRANCH  25  26
ENDBRANCH  19  25
ENDBRANCH   1  22
BRANCH   4  32
ATOM     32  C   LIG    1       -5.442   1.510  10.071  0.00  0.00    +0.005 A 
ATOM     33  C   LIG    1       -5.894   0.810  11.195  0.00  0.00    +0.030 A 
ATOM     34  C   LIG    1       -5.886   1.439  12.422  0.00  0.00    +0.111 A 
ATOM     35  N   LIG    1       -5.460   2.683  12.543  0.00  0.00    -0.263 NA
ATOM     36  C   LIG    1       -5.026   3.378  11.509  0.00  0.00    +0.111 A 
ATOM     37  C   LIG    1       -4.995   2.824  10.246  0.00  0.00    +0.030 A 
ENDBRANCH   4  32
TORSDOF 8
