REMARK  Name = ZINC19688794
REMARK                            x       y       z     vdW  Elec       q    Type
REMARK                         _______ _______ _______ _____ _____    ______ ____
ROOT
ATOM      1  C   LIG    1       -1.663   7.873  -5.230  0.00  0.00    +0.001 A 
ATOM      2  C   LIG    1       -0.773   6.951  -5.755  0.00  0.00    +0.002 A 
ATOM      3  C   LIG    1       -0.077   6.060  -4.956  0.00  0.00    +0.026 A 
ATOM      4  C   LIG    1       -0.311   6.126  -3.584  0.00  0.00    +0.047 A 
ATOM      5  C   LIG    1       -1.224   7.073  -3.052  0.00  0.00    +0.003 A 
ATOM      6  C   LIG    1       -1.219   6.868  -1.621  0.00  0.00    -0.016 A 
ATOM      7  C   LIG    1       -0.354   5.861  -1.364  0.00  0.00    +0.042 A 
ATOM      8  C   LIG    1       -0.076   5.351   0.030  0.00  0.00    +0.132 C 
ATOM      9  N   LIG    1       -1.144   5.823   0.926  0.00  0.00    -0.304 NA
ATOM     10  H   LIG    1       -2.087   5.318   0.670  0.00  0.00    +0.123 HD
ATOM     11  C   LIG    1       -1.343   7.274   0.804  0.00  0.00    +0.086 C 
ATOM     12  C   LIG    1       -1.994   7.593  -0.549  0.00  0.00    +0.052 C 
ATOM     13  N   LIG    1        0.194   5.412  -2.535  0.00  0.00    -0.356 N 
ATOM     14  H   LIG    1        0.929   4.614  -2.715  0.00  0.00    +0.166 HD
ATOM     15  C   LIG    1       -1.913   7.962  -3.883  0.00  0.00    +0.010 A 
ENDROOT
BRANCH   8  16
ATOM     16  C   LIG    1       -0.051   3.844   0.022  0.00  0.00    -0.021 A 
ATOM     17  C   LIG    1       -1.237   3.133   0.029  0.00  0.00    +0.006 A 
ATOM     18  C   LIG    1       -1.218   1.751   0.017  0.00  0.00    +0.004 A 
ATOM     19  C   LIG    1       -0.013   1.076   0.008  0.00  0.00    +0.045 A 
ATOM     20  C   LIG    1        1.179   1.786   0.000  0.00  0.00    +0.117 A 
ATOM     21  C   LIG    1        1.157   3.174   0.008  0.00  0.00    +0.051 A 
BRANCH  20  22
ATOM     22  O   LIG    1        2.366   1.125  -0.014  0.00  0.00    -0.507 OA
ATOM     23  H   LIG    1        3.310   1.689  -0.020  0.00  0.00    +0.292 HD
ENDBRANCH  20  22
ENDBRANCH   8  16
TORSDOF 2
