REMARK  Name = ZINC17173470
REMARK                            x       y       z     vdW  Elec       q    Type
REMARK                         _______ _______ _______ _____ _____    ______ ____
ROOT
ATOM      1  C   LIG    1        0.815   1.238  -0.141  0.00  0.00    +0.068 C 
ATOM      2  C   LIG    1       -0.010  -0.015   0.009  0.00  0.00    +0.063 C 
ATOM      3  N   LIG    1       -0.388  -0.405   1.187  0.00  0.00    -0.185 NA
ENDROOT
BRANCH   2   4
ATOM      4  C   LIG    1       -0.386  -0.797  -1.183  0.00  0.00    -0.002 A 
ATOM      5  C   LIG    1       -1.654  -1.377  -1.270  0.00  0.00    +0.011 A 
ATOM      6  C   LIG    1       -2.000  -2.106  -2.388  0.00  0.00    +0.016 A 
ATOM      7  C   LIG    1       -1.094  -2.265  -3.423  0.00  0.00    +0.018 A 
ATOM      8 BR   LIG    1       -1.577  -3.268  -4.951  0.00  0.00    -0.050 Br
ATOM      9  C   LIG    1        0.165  -1.694  -3.343  0.00  0.00    +0.016 A 
ATOM     10  C   LIG    1        0.521  -0.956  -2.233  0.00  0.00    +0.011 A 
ENDBRANCH   2   4
BRANCH   3  11
ATOM     11  N   LIG    1       -1.028  -1.642   1.344  0.00  0.00    -0.218 N 
ATOM     12  H   LIG    1       -1.117  -2.241   0.586  0.00  0.00    +0.176 HD
BRANCH  11  13
ATOM     13  C   LIG    1       -1.520  -1.999   2.546  0.00  0.00    +0.147 C 
ATOM     14  S   LIG    1       -2.302  -3.510   2.737  0.00  0.00    -0.017 S 
BRANCH  13  15
ATOM     15  N   LIG    1       -1.397  -1.166   3.599  0.00  0.00    -0.339 N 
ATOM     16  H   LIG    1       -1.751  -1.423   4.465  0.00  0.00    +0.144 HD
ATOM     17  H   LIG    1       -0.954  -0.310   3.491  0.00  0.00    +0.144 HD
ENDBRANCH  13  15
ENDBRANCH  11  13
ENDBRANCH   3  11
TORSDOF 4
