REMARK  Name = ZINC13779335
REMARK                            x       y       z     vdW  Elec       q    Type
REMARK                         _______ _______ _______ _____ _____    ______ ____
ROOT
ATOM      1  C   LIG    1       -0.612   3.094  -1.368  0.00  0.00    +0.100 C 
ATOM      2  C   LIG    1       -1.066   1.843  -0.613  0.00  0.00    +0.015 C 
ATOM      3  C   LIG    1       -0.643   1.916   0.845  0.00  0.00    +0.005 C 
ATOM      4  C   LIG    1       -1.334   3.030   1.612  0.00  0.00    +0.045 C 
ATOM      5  C   LIG    1       -0.902   4.400   1.084  0.00  0.00    +0.233 C 
ATOM      6  N   LIG    1       -1.770   4.765  -0.046  0.00  0.00    -0.279 N 
ATOM      7  H   LIG    1       -2.529   5.551   0.087  0.00  0.00    +0.303 HD
ATOM      8  C   LIG    1       -1.650   4.178  -1.175  0.00  0.00    +0.239 C 
ENDROOT
BRANCH   8   9
ATOM      9  N   LIG    1       -2.465   4.533  -2.216  0.00  0.00    -0.254 N 
ATOM     10  H   LIG    1       -2.365   4.031  -3.190  0.00  0.00    +0.288 HD
ATOM     11  H   LIG    1       -3.221   5.321  -2.080  0.00  0.00    +0.288 HD
ENDBRANCH   8   9
BRANCH   1  13
ATOM     12  C   LIG    1        1.867   2.918  -1.621  0.00  0.00    +0.005 C 
ATOM     13  C   LIG    1        0.736   3.565  -0.819  0.00  0.00    +0.012 C 
ENDBRANCH   1  13
TORSDOF 2
