REMARK  Name = ZINC20149036
REMARK                            x       y       z     vdW  Elec       q    Type
REMARK                         _______ _______ _______ _____ _____    ______ ____
ROOT
ATOM      1  C   LIG    1        3.527  -2.480   1.481  0.00  0.00    +0.109 A 
ATOM      2  C   LIG    1        4.356  -1.377   1.571  0.00  0.00    +0.030 A 
ATOM      3  C   LIG    1        4.995  -1.087   2.760  0.00  0.00    +0.025 A 
ATOM      4  C   LIG    1        4.803  -1.904   3.867  0.00  0.00    +0.031 A 
ATOM      5  C   LIG    1        3.969  -3.011   3.773  0.00  0.00    +0.025 A 
ATOM      6  C   LIG    1        3.329  -3.292   2.582  0.00  0.00    +0.030 A 
ENDROOT
BRANCH   1   7
ATOM      7  S   LIG    1        2.714  -2.847  -0.039  0.00  0.00    +0.073 S 
ATOM      8  O   LIG    1        3.490  -2.249  -1.069  0.00  0.00    -0.150 OA
ATOM      9  O   LIG    1        2.419  -4.236  -0.017  0.00  0.00    -0.150 OA
BRANCH   7  10
ATOM     10  N   LIG    1        1.260  -2.054  -0.021  0.00  0.00    -0.199 N 
ATOM     11  H   LIG    1        0.432  -2.559  -0.016  0.00  0.00    +0.175 HD
BRANCH  10  16
ATOM     12  C   LIG    1       -0.017   1.379   0.010  0.00  0.00    +0.005 A 
ATOM     13  C   LIG    1        1.195   2.058   0.002  0.00  0.00    +0.020 A 
ATOM     14  C   LIG    1        2.373   1.339  -0.013  0.00  0.00    +0.113 A 
ATOM     15  N   LIG    1        2.361   0.020  -0.020  0.00  0.00    -0.239 NA
ATOM     16  C   LIG    1        1.227  -0.664  -0.013  0.00  0.00    +0.138 A 
ATOM     17  C   LIG    1        0.002  -0.004   0.002  0.00  0.00    +0.045 A 
ENDBRANCH  10  16
ENDBRANCH   7  10
ENDBRANCH   1   7
BRANCH   4  18
ATOM     18  N   LIG    1        5.448  -1.614   5.072  0.00  0.00    -0.320 N 
ATOM     19  H   LIG    1        6.030  -0.840   5.137  0.00  0.00    +0.152 HD
BRANCH  18  20
ATOM     20  C   LIG    1        5.260  -2.416   6.157  0.00  0.00    +0.085 C 
ATOM     21  C   LIG    1        5.890  -2.132   7.334  0.00  0.00    +0.061 C 
ATOM     22  C   LIG    1        5.808  -2.891   8.604  0.00  0.00    +0.025 A 
ATOM     23  C   LIG    1        6.625  -2.213   9.517  0.00  0.00    +0.043 A 
ATOM     24  N   LIG    1        7.191  -1.108   8.893  0.00  0.00    -0.281 N 
ATOM     25  H   LIG    1        7.795  -0.485   9.326  0.00  0.00    +0.155 HD
ATOM     26  C   LIG    1        6.739  -2.712  10.816  0.00  0.00    +0.026 A 
ATOM     27  C   LIG    1        6.080  -3.833  11.211  0.00  0.00    +0.031 A 
ATOM     28  C   LIG    1        5.247  -4.543  10.318  0.00  0.00    +0.079 A 
ATOM     29  N   LIG    1        4.519  -5.661  10.519  0.00  0.00    -0.247 NA
ATOM     30  C   LIG    1        3.793  -6.194   9.580  0.00  0.00    +0.157 A 
ATOM     31  S   LIG    1        4.029  -5.191   8.250  0.00  0.00    -0.075 S 
ATOM     32  C   LIG    1        5.136  -4.031   9.007  0.00  0.00    +0.049 A 
ATOM     33  C   LIG    1        6.799  -1.015   7.611  0.00  0.00    +0.250 C 
ATOM     34  O   LIG    1        7.136  -0.152   6.819  0.00  0.00    -0.270 OA
ENDBRANCH  18  20
ENDBRANCH   4  18
TORSDOF 5
