REMARK  Name = ZINC00038763
REMARK                            x       y       z     vdW  Elec       q    Type
REMARK                         _______ _______ _______ _____ _____    ______ ____
ROOT
ATOM      1  C   LIG    1       -1.283   1.552   3.622  0.00  0.00    +0.085 A 
ATOM      2  C   LIG    1       -0.558   0.999   2.575  0.00  0.00    +0.068 A 
ATOM      3  C   LIG    1       -0.732   1.580   1.257  0.00  0.00    -0.023 A 
ATOM      4  C   LIG    1       -1.601   2.615   1.194  0.00  0.00    -0.004 A 
ATOM      5  C   LIG    1       -1.979   3.405  -0.021  0.00  0.00    +0.043 C 
ATOM      6  C   LIG    1       -0.956   3.111  -1.127  0.00  0.00    +0.005 C 
ATOM      7  C   LIG    1       -0.758   1.595  -1.227  0.00  0.00    +0.005 C 
ATOM      8  C   LIG    1       -0.013   1.086   0.008  0.00  0.00    +0.037 C 
ATOM      9  S   LIG    1       -2.178   2.821   2.855  0.00  0.00    -0.077 S 
ENDROOT
BRANCH   2  10
ATOM     10  C   LIG    1        0.351  -0.130   2.793  0.00  0.00    +0.244 C 
ATOM     11  N   LIG    1        1.643   0.095   3.104  0.00  0.00    -0.325 N 
ATOM     12  H   LIG    1        2.245  -0.652   3.248  0.00  0.00    +0.145 HD
ATOM     13  H   LIG    1        1.971   1.005   3.183  0.00  0.00    +0.145 HD
ATOM     14  O   LIG    1       -0.060  -1.272   2.694  0.00  0.00    -0.270 OA
ENDBRANCH   2  10
BRANCH   1  16
ATOM     15  C   LIG    1       -2.065   1.841   5.837  0.00  0.00    +0.249 C 
ATOM     16  N   LIG    1       -1.288   1.180   4.957  0.00  0.00    -0.275 N 
ATOM     17  H   LIG    1       -0.734   0.443   5.257  0.00  0.00    +0.156 HD
ATOM     18  O   LIG    1       -2.760   2.765   5.461  0.00  0.00    -0.270 OA
BRANCH  15  22
ATOM     19  C   LIG    1       -2.083   0.699   9.927  0.00  0.00    +0.120 A 
ATOM     20  C   LIG    1       -2.878   1.756   9.499  0.00  0.00    +0.046 A 
ATOM     21  C   LIG    1       -2.875   2.129   8.174  0.00  0.00    +0.016 A 
ATOM     22  C   LIG    1       -2.071   1.444   7.259  0.00  0.00    +0.037 A 
ATOM     23  C   LIG    1       -1.277   0.379   7.692  0.00  0.00    +0.016 A 
ATOM     24  C   LIG    1       -1.281   0.016   9.020  0.00  0.00    +0.046 A 
BRANCH  19  26
ATOM     25  C   LIG    1       -1.248  -0.760  11.606  0.00  0.00    +0.277 C 
ATOM     26  O   LIG    1       -2.089   0.334  11.234  0.00  0.00    -0.495 OA
ENDBRANCH  19  26
ENDBRANCH  15  22
ENDBRANCH   1  16
TORSDOF 4
