REMARK  Name = ZINC13782163
REMARK                            x       y       z     vdW  Elec       q    Type
REMARK                         _______ _______ _______ _____ _____    ______ ____
ROOT
ATOM      1  C   LIG    1       -1.665   4.854   2.857  0.00  0.00    +0.044 C 
ATOM      2  C   LIG    1       -1.510   3.375   2.610  0.00  0.00    -0.050 A 
ATOM      3  C   LIG    1       -2.016   2.466   3.519  0.00  0.00    +0.006 A 
ATOM      4  C   LIG    1       -1.874   1.109   3.293  0.00  0.00    -0.050 A 
ATOM      5  C   LIG    1       -2.425   0.118   4.284  0.00  0.00    +0.044 C 
ATOM      6  C   LIG    1       -1.226   0.663   2.156  0.00  0.00    +0.007 A 
ATOM      7  C   LIG    1       -0.720   1.573   1.247  0.00  0.00    -0.046 A 
ATOM      8  C   LIG    1       -0.857   2.929   1.476  0.00  0.00    +0.007 A 
ENDROOT
BRANCH   7   9
ATOM      9  C   LIG    1       -0.013   1.086   0.008  0.00  0.00    +0.002 C 
ATOM     10  C   LIG    1        1.423   1.617  -0.003  0.00  0.00    +0.004 C 
ATOM     11  C   LIG    1        2.116   1.167  -1.292  0.00  0.00    -0.019 C 
ATOM     12  C   LIG    1        1.318   1.672  -2.497  0.00  0.00    -0.083 C 
ATOM     13  N   LIG    1       -0.053   1.129  -2.449  0.00  0.00    +0.379 N 
ATOM     14  H   LIG    1       -0.571   1.445  -3.277  0.00  0.00    -0.086 HD
ATOM     15  H   LIG    1       -0.010   0.103  -2.443  0.00  0.00    -0.086 HD
ATOM     16  C   LIG    1       -0.749   1.594  -1.234  0.00  0.00    -0.075 C 
ENDBRANCH   7   9
TORSDOF 1
