REMARK  Name = ZINC13826963
REMARK                            x       y       z     vdW  Elec       q    Type
REMARK                         _______ _______ _______ _____ _____    ______ ____
ROOT
ATOM      1  C   LIG    1        0.062   2.842   5.872  0.00  0.00    +0.151 C 
ATOM      2  N   LIG    1        0.297   2.390   4.499  0.00  0.00    -0.323 N 
ATOM      3  C   LIG    1        1.496   2.033   3.952  0.00  0.00    +0.113 A 
ATOM      4  N   LIG    1        1.313   1.681   2.689  0.00  0.00    -0.326 N 
ATOM      5  H   LIG    1        2.054   1.370   2.049  0.00  0.00    +0.169 HD
ATOM      6  C   LIG    1        0.024   1.792   2.374  0.00  0.00    +0.146 A 
ATOM      7  N   LIG    1       -0.698   1.558   1.213  0.00  0.00    -0.281 N 
ATOM      8  C   LIG    1       -0.013   1.086   0.008  0.00  0.00    +0.155 C 
ATOM      9  C   LIG    1       -2.028   1.770   1.191  0.00  0.00    +0.333 A 
ATOM     10  O   LIG    1       -2.643   1.563   0.163  0.00  0.00    -0.246 OA
ATOM     11  N   LIG    1       -2.693   2.198   2.278  0.00  0.00    -0.262 N 
ATOM     12  C   LIG    1       -4.141   2.407   2.201  0.00  0.00    +0.157 C 
ATOM     13  C   LIG    1       -2.047   2.444   3.436  0.00  0.00    +0.282 A 
ATOM     14  O   LIG    1       -2.661   2.836   4.413  0.00  0.00    -0.265 OA
ATOM     15  C   LIG    1       -0.653   2.242   3.505  0.00  0.00    +0.150 A 
ENDROOT
BRANCH   3  16
ATOM     16  C   LIG    1        2.783   2.039   4.652  0.00  0.00    +0.045 C 
ATOM     17  C   LIG    1        3.904   1.664   4.003  0.00  0.00    +0.015 C 
BRANCH  17  18
ATOM     18  C   LIG    1        5.196   1.670   4.706  0.00  0.00    +0.020 A 
ATOM     19  C   LIG    1        5.267   2.069   6.046  0.00  0.00    +0.012 A 
ATOM     20  C   LIG    1        6.479   2.067   6.701  0.00  0.00    +0.004 A 
ATOM     21  C   LIG    1        7.633   1.682   6.038  0.00  0.00    +0.049 A 
ATOM     22  C   LIG    1        7.580   1.290   4.710  0.00  0.00    +0.162 A 
ATOM     23  C   LIG    1        6.364   1.281   4.036  0.00  0.00    +0.169 A 
BRANCH  22  24
ATOM     24  O   LIG    1        8.717   0.914   4.067  0.00  0.00    -0.491 OA
ATOM     25  C   LIG    1        9.931   0.948   4.821  0.00  0.00    +0.277 C 
ENDBRANCH  22  24
BRANCH  23  26
ATOM     26  O   LIG    1        6.309   0.897   2.734  0.00  0.00    -0.491 OA
ATOM     27  C   LIG    1        6.475   1.919   1.749  0.00  0.00    +0.277 C 
ENDBRANCH  23  26
ENDBRANCH  17  18
ENDBRANCH   3  16
TORSDOF 4
