REMARK  Name = ZINC29136330
REMARK                            x       y       z     vdW  Elec       q    Type
REMARK                         _______ _______ _______ _____ _____    ______ ____
ROOT
ATOM      1  C   LIG    1        5.257   7.276   0.229  0.00  0.00    +0.068 A 
ATOM      2  C   LIG    1        3.947   6.819   0.097  0.00  0.00    +0.031 A 
ATOM      3  C   LIG    1        2.890   7.728   0.109  0.00  0.00    +0.070 A 
ATOM      4  C   LIG    1        3.148   9.103   0.264  0.00  0.00    +0.173 A 
ATOM      5  C   LIG    1        4.454   9.554   0.400  0.00  0.00    +0.202 A 
ATOM      6  C   LIG    1        5.509   8.651   0.384  0.00  0.00    +0.173 A 
ENDROOT
BRANCH   1   7
ATOM      7  C   LIG    1        6.377   6.319   0.212  0.00  0.00    +0.197 C 
ATOM      8  O   LIG    1        6.566   5.586   1.165  0.00  0.00    -0.287 OA
BRANCH   7  12
ATOM      9  C   LIG    1        8.947   6.117  -3.163  0.00  0.00    +0.128 A 
ATOM     10  C   LIG    1        9.227   5.359  -2.032  0.00  0.00    +0.047 A 
ATOM     11  C   LIG    1        8.397   5.421  -0.936  0.00  0.00    +0.015 A 
ATOM     12  C   LIG    1        7.270   6.249  -0.961  0.00  0.00    +0.023 A 
ATOM     13  C   LIG    1        6.989   7.006  -2.102  0.00  0.00    +0.015 A 
ATOM     14  C   LIG    1        7.828   6.942  -3.192  0.00  0.00    +0.047 A 
BRANCH   9  15
ATOM     15  O   LIG    1        9.768   6.054  -4.241  0.00  0.00    -0.456 OA
BRANCH  15  19
ATOM     16  C   LIG    1        9.555   2.706  -6.643  0.00  0.00    +0.000 A 
ATOM     17  C   LIG    1       10.520   3.667  -6.883  0.00  0.00    +0.004 A 
ATOM     18  C   LIG    1       10.593   4.789  -6.080  0.00  0.00    +0.046 A 
ATOM     19  C   LIG    1        9.698   4.951  -5.032  0.00  0.00    +0.128 A 
ATOM     20  C   LIG    1        8.735   3.982  -4.789  0.00  0.00    +0.046 A 
ATOM     21  C   LIG    1        8.663   2.864  -5.598  0.00  0.00    +0.004 A 
ENDBRANCH  15  19
ENDBRANCH   9  15
ENDBRANCH   7  12
ENDBRANCH   1   7
BRANCH   3  22
ATOM     22  C   LIG    1        1.505   7.249  -0.035  0.00  0.00    +0.222 C 
ATOM     23  O   LIG    1        0.595   8.048  -0.151  0.00  0.00    -0.284 OA
BRANCH  22  24
ATOM     24  C   LIG    1        1.221   5.800  -0.038  0.00  0.00    +0.150 A 
ATOM     25  N   LIG    1        0.058   5.186  -0.059  0.00  0.00    -0.236 NA
ATOM     26  C   LIG    1       -0.058   3.855  -0.060  0.00  0.00    +0.079 A 
ATOM     27  C   LIG    1       -1.245   3.078  -0.081  0.00  0.00    +0.029 A 
ATOM     28  C   LIG    1       -1.188   1.722  -0.085  0.00  0.00    +0.002 A 
ATOM     29  C   LIG    1        0.023   1.040  -0.057  0.00  0.00    +0.001 A 
ATOM     30  C   LIG    1        1.204   1.756  -0.036  0.00  0.00    +0.017 A 
ATOM     31  C   LIG    1        1.161   3.130  -0.037  0.00  0.00    +0.040 A 
ATOM     32  S   LIG    1        2.371   4.430  -0.016  0.00  0.00    -0.064 S 
ENDBRANCH  22  24
ENDBRANCH   3  22
BRANCH   4  33
ATOM     33  O   LIG    1        2.121   9.987   0.281  0.00  0.00    -0.503 OA
ATOM     34  H   LIG    1        2.322  11.062   0.402  0.00  0.00    +0.292 HD
ENDBRANCH   4  33
BRANCH   5  35
ATOM     35  O   LIG    1        4.700  10.884   0.551  0.00  0.00    -0.501 OA
ATOM     36  H   LIG    1        5.734  11.243   0.659  0.00  0.00    +0.292 HD
ENDBRANCH   5  35
BRANCH   6  37
ATOM     37  O   LIG    1        6.782   9.096   0.518  0.00  0.00    -0.503 OA
ATOM     38  H   LIG    1        7.495   8.487   0.507  0.00  0.00    +0.292 HD
ENDBRANCH   6  37
TORSDOF 9
