REMARK  Name = ZINC26179223
REMARK                            x       y       z     vdW  Elec       q    Type
REMARK                         _______ _______ _______ _____ _____    ______ ____
ROOT
ATOM      1  C   LIG    1       -2.883   4.204  -4.389  0.00  0.00    +0.082 C 
ENDROOT
BRANCH   1   4
ATOM      2  N   LIG    1       -2.036   3.326  -2.237  0.00  0.00    -0.304 N 
ATOM      3  H   LIG    1       -1.824   4.238  -1.982  0.00  0.00    +0.149 HD
ATOM      4  C   LIG    1       -2.640   3.079  -3.416  0.00  0.00    +0.217 C 
ATOM      5  O   LIG    1       -2.988   1.951  -3.695  0.00  0.00    -0.275 OA
BRANCH   2   6
ATOM      6  C   LIG    1       -1.698   2.218  -1.341  0.00  0.00    +0.159 C 
BRANCH   6   7
ATOM      7  C   LIG    1       -2.874   1.919  -0.447  0.00  0.00    +0.234 C 
ATOM      8  N   LIG    1       -2.970   0.719   0.160  0.00  0.00    -0.302 N 
ATOM      9  H   LIG    1       -2.283   0.049   0.021  0.00  0.00    +0.150 HD
ATOM     10  O   LIG    1       -3.733   2.757  -0.274  0.00  0.00    -0.274 OA
BRANCH   8  11
ATOM     11  C   LIG    1       -4.114   0.428   1.029  0.00  0.00    +0.163 C 
BRANCH  11  12
ATOM     12  C   LIG    1       -3.834   0.946   2.416  0.00  0.00    +0.231 C 
ATOM     13  N   LIG    1       -4.752   0.790   3.391  0.00  0.00    -0.328 N 
ATOM     14  H   LIG    1       -4.573   1.123   4.284  0.00  0.00    +0.145 HD
ATOM     15  H   LIG    1       -5.592   0.344   3.200  0.00  0.00    +0.145 HD
ATOM     16  O   LIG    1       -2.784   1.503   2.656  0.00  0.00    -0.274 OA
ENDBRANCH  11  12
BRANCH  11  17
ATOM     17  C   LIG    1       -4.340  -1.084   1.085  0.00  0.00    +0.067 C 
BRANCH  17  18
ATOM     18  C   LIG    1       -4.739  -1.583  -0.280  0.00  0.00    -0.045 A 
ATOM     19  C   LIG    1       -6.074  -1.625  -0.638  0.00  0.00    +0.004 A 
ATOM     20  C   LIG    1       -6.440  -2.082  -1.889  0.00  0.00    +0.000 A 
ATOM     21  C   LIG    1       -5.471  -2.498  -2.784  0.00  0.00    +0.000 A 
ATOM     22  C   LIG    1       -4.137  -2.456  -2.427  0.00  0.00    +0.000 A 
ATOM     23  C   LIG    1       -3.770  -1.994  -1.176  0.00  0.00    +0.004 A 
ENDBRANCH  17  18
ENDBRANCH  11  17
ENDBRANCH   8  11
ENDBRANCH   6   7
BRANCH   6  24
ATOM     24  C   LIG    1       -0.491   2.605  -0.483  0.00  0.00    +0.034 C 
BRANCH  24  26
ATOM     25  C   LIG    1        0.560   3.964  -2.298  0.00  0.00    +0.007 C 
ATOM     26  C   LIG    1        0.742   2.756  -1.377  0.00  0.00    -0.015 C 
ATOM     27  C   LIG    1        1.982   2.962  -0.504  0.00  0.00    +0.007 C 
ENDBRANCH  24  26
ENDBRANCH   6  24
ENDBRANCH   2   6
ENDBRANCH   1   4
BRANCH   1  28
ATOM     28  C   LIG    1       -1.811   4.176  -5.480  0.00  0.00    +0.046 C 
BRANCH  28  29
ATOM     29  C   LIG    1       -1.983   5.389  -6.396  0.00  0.00    +0.136 C 
BRANCH  29  30
ATOM     30  O   LIG    1       -1.735   6.585  -5.654  0.00  0.00    -0.390 OA
ATOM     31  H   LIG    1       -0.846   6.636  -5.276  0.00  0.00    +0.210 HD
ENDBRANCH  29  30
BRANCH  29  32
ATOM     32  C   LIG    1       -0.992   5.295  -7.558  0.00  0.00    +0.109 C 
BRANCH  32  33
ATOM     33  N   LIG    1       -1.236   6.393  -8.498  0.00  0.00    -0.275 N 
ATOM     34  H   LIG    1       -1.656   7.211  -8.189  0.00  0.00    +0.152 HD
ATOM     35  C   LIG    1       -0.878   6.265  -9.791  0.00  0.00    +0.401 C 
ATOM     36  O   LIG    1       -0.352   5.240 -10.177  0.00  0.00    -0.226 OA
BRANCH  35  37
ATOM     37  O   LIG    1       -1.103   7.273 -10.654  0.00  0.00    -0.445 OA
BRANCH  37  38
ATOM     38  C   LIG    1       -0.697   7.069 -12.009  0.00  0.00    +0.107 C 
ATOM     39  C   LIG    1        0.811   6.814 -12.058  0.00  0.00    +0.055 C 
ATOM     40  C   LIG    1       -1.031   8.313 -12.834  0.00  0.00    +0.055 C 
ATOM     41  C   LIG    1       -1.437   5.861 -12.587  0.00  0.00    +0.055 C 
ENDBRANCH  37  38
ENDBRANCH  35  37
ENDBRANCH  32  33
BRANCH  32  42
ATOM     42  C   LIG    1        0.436   5.394  -7.019  0.00  0.00    +0.060 C 
BRANCH  42  43
ATOM     43  C   LIG    1        1.414   5.179  -8.146  0.00  0.00    -0.046 A 
ATOM     44  C   LIG    1        1.855   3.904  -8.444  0.00  0.00    +0.004 A 
ATOM     45  C   LIG    1        2.752   3.706  -9.478  0.00  0.00    +0.000 A 
ATOM     46  C   LIG    1        3.207   4.785 -10.213  0.00  0.00    +0.000 A 
ATOM     47  C   LIG    1        2.765   6.060  -9.915  0.00  0.00    +0.000 A 
ATOM     48  C   LIG    1        1.865   6.257  -8.885  0.00  0.00    +0.004 A 
ENDBRANCH  42  43
ENDBRANCH  32  42
ENDBRANCH  29  32
ENDBRANCH  28  29
ENDBRANCH   1  28
BRANCH   1  49
ATOM     49  C   LIG    1       -4.264   4.038  -5.026  0.00  0.00    +0.048 C 
BRANCH  49  50
ATOM     50  C   LIG    1       -5.328   4.216  -3.974  0.00  0.00    -0.047 A 
ATOM     51  C   LIG    1       -5.875   3.111  -3.350  0.00  0.00    +0.003 A 
ATOM     52  C   LIG    1       -6.851   3.274  -2.384  0.00  0.00    +0.000 A 
ATOM     53  C   LIG    1       -7.279   4.543  -2.042  0.00  0.00    +0.000 A 
ATOM     54  C   LIG    1       -6.731   5.649  -2.666  0.00  0.00    +0.000 A 
ATOM     55  C   LIG    1       -5.752   5.486  -3.628  0.00  0.00    +0.003 A 
ENDBRANCH  49  50
ENDBRANCH   1  49
TORSDOF 20
