REMARK  Name = ZINC26496107
REMARK                            x       y       z     vdW  Elec       q    Type
REMARK                         _______ _______ _______ _____ _____    ______ ____
ROOT
ATOM      1  C   LIG    1        1.185   2.058   0.002  0.00  0.00    +0.120 A 
ATOM      2  C   LIG    1        2.360   1.320  -0.008  0.00  0.00    +0.046 A 
ATOM      3  C   LIG    1        3.578   1.969  -0.019  0.00  0.00    +0.007 A 
ATOM      4  C   LIG    1        3.635   3.353  -0.012  0.00  0.00    -0.041 A 
ATOM      5  C   LIG    1        2.463   4.092   0.001  0.00  0.00    -0.009 A 
ATOM      6  C   LIG    1        2.800   5.559   0.003  0.00  0.00    +0.138 C 
ATOM      7  C   LIG    1        2.587   6.176   1.360  0.00  0.00    +0.248 C 
ATOM      8  N   LIG    1        1.683   7.161   1.164  0.00  0.00    -0.238 N 
ATOM      9  H   LIG    1        1.349   7.778   2.012  0.00  0.00    +0.159 HD
ATOM     10  C   LIG    1        1.309   7.238  -0.120  0.00  0.00    +0.307 C 
ATOM     11  O   LIG    1        0.505   8.045  -0.542  0.00  0.00    -0.252 OA
ATOM     12  O   LIG    1        3.114   5.858   2.405  0.00  0.00    -0.273 OA
ATOM     13  C   LIG    1        4.268   5.662  -0.430  0.00  0.00    +0.045 C 
ATOM     14  N   LIG    1        1.925   6.319  -0.890  0.00  0.00    -0.281 N 
ATOM     15  H   LIG    1        1.884   6.072  -1.961  0.00  0.00    +0.152 HD
ATOM     16  C   LIG    1        4.829   4.284  -0.013  0.00  0.00    +0.038 C 
ATOM     17  C   LIG    1        1.241   3.443   0.009  0.00  0.00    +0.052 A 
ENDROOT
BRANCH   1  19
ATOM     18  C   LIG    1        0.002  -0.004   0.002  0.00  0.00    +0.277 C 
ATOM     19  O   LIG    1       -0.017   1.425   0.010  0.00  0.00    -0.495 OA
ENDBRANCH   1  19
TORSDOF 1
