REMARK  Name = ZINC64548741
REMARK                            x       y       z     vdW  Elec       q    Type
REMARK                         _______ _______ _______ _____ _____    ______ ____
ROOT
ATOM      1  N   LIG    1        4.401  -0.955   1.260  0.00  0.00    +0.383 N 
ATOM      2  H   LIG    1        4.599  -0.074   1.709  0.00  0.00    -0.081 HD
ATOM      3  C   LIG    1        3.326  -1.641   1.988  0.00  0.00    -0.075 C 
ATOM      4  C   LIG    1        3.732  -1.823   3.452  0.00  0.00    +0.026 C 
ATOM      5  C   LIG    1        5.012  -2.662   3.520  0.00  0.00    +0.170 C 
ATOM      6  C   LIG    1        6.105  -1.975   2.696  0.00  0.00    +0.026 C 
ATOM      7  C   LIG    1        5.610  -1.786   1.260  0.00  0.00    -0.075 C 
ENDROOT
BRANCH   1   8
ATOM      8  C   LIG    1        3.974  -0.713  -0.125  0.00  0.00    -0.043 C 
BRANCH   8  12
ATOM      9  C   LIG    1        0.663   1.986  -0.146  0.00  0.00    +0.000 A 
ATOM     10  C   LIG    1        1.954   2.475  -0.212  0.00  0.00    +0.000 A 
ATOM     11  C   LIG    1        3.026   1.602  -0.205  0.00  0.00    +0.002 A 
ATOM     12  C   LIG    1        2.806   0.239  -0.131  0.00  0.00    -0.064 A 
ATOM     13  C   LIG    1        1.515  -0.250  -0.065  0.00  0.00    +0.002 A 
ATOM     14  C   LIG    1        0.444   0.623  -0.073  0.00  0.00    +0.000 A 
ENDBRANCH   8  12
ENDBRANCH   1   8
BRANCH   5  15
ATOM     15  O   LIG    1        5.439  -2.774   4.879  0.00  0.00    -0.489 OA
BRANCH  15  16
ATOM     16  C   LIG    1        6.205  -3.849   5.199  0.00  0.00    +0.122 A 
ATOM     17  C   LIG    1        6.556  -4.083   6.522  0.00  0.00    +0.046 A 
ATOM     18  C   LIG    1        7.336  -5.176   6.853  0.00  0.00    +0.004 A 
ATOM     19  C   LIG    1        7.771  -6.041   5.870  0.00  0.00    +0.013 A 
ATOM     20  C   LIG    1        7.423  -5.815   4.537  0.00  0.00    +0.040 A 
ATOM     21  C   LIG    1        6.631  -4.715   4.206  0.00  0.00    +0.058 A 
BRANCH  20  22
ATOM     22  C   LIG    1        7.888  -6.740   3.482  0.00  0.00    +0.242 C 
ATOM     23  N   LIG    1        8.649  -7.804   3.805  0.00  0.00    -0.325 N 
ATOM     24  H   LIG    1        8.954  -8.411   3.113  0.00  0.00    +0.145 HD
ATOM     25  H   LIG    1        8.892  -7.963   4.731  0.00  0.00    +0.145 HD
ATOM     26  O   LIG    1        7.584  -6.540   2.322  0.00  0.00    -0.270 OA
ENDBRANCH  20  22
ENDBRANCH  15  16
ENDBRANCH   5  15
TORSDOF 5
