REMARK  Name = ZINC14954389
REMARK                            x       y       z     vdW  Elec       q    Type
REMARK                         _______ _______ _______ _____ _____    ______ ____
ROOT
ATOM      1  C   LIG    1       -6.158  -1.480  -0.046  0.00  0.00    +0.061 C 
ATOM      2  C   LIG    1       -7.140  -0.342  -0.145  0.00  0.00    +0.016 C 
ATOM      3  C   LIG    1       -6.690   0.925  -0.145  0.00  0.00    +0.039 C 
ATOM      4  C   LIG    1       -7.657   2.076  -0.238  0.00  0.00    +0.064 C 
ATOM      5  C   LIG    1       -8.957   1.712   0.476  0.00  0.00    +0.109 C 
ATOM      6  C   LIG    1       -9.396   0.335   0.051  0.00  0.00    +0.218 C 
ATOM      7  O   LIG    1      -10.578   0.077  -0.035  0.00  0.00    -0.275 OA
ATOM      8  N   LIG    1       -8.482  -0.611  -0.235  0.00  0.00    -0.289 N 
ATOM      9  H   LIG    1       -8.776  -1.495  -0.508  0.00  0.00    +0.154 HD
ENDROOT
BRANCH   4  10
ATOM     10  C   LIG    1       -7.952   2.369  -1.687  0.00  0.00    -0.039 A 
ATOM     11  C   LIG    1       -8.509   1.393  -2.490  0.00  0.00    +0.005 A 
ATOM     12  C   LIG    1       -8.783   1.663  -3.818  0.00  0.00    +0.012 A 
ATOM     13  C   LIG    1       -8.491   2.908  -4.344  0.00  0.00    +0.055 A 
ATOM     14  C   LIG    1       -7.928   3.883  -3.542  0.00  0.00    +0.012 A 
ATOM     15  C   LIG    1       -7.658   3.614  -2.213  0.00  0.00    +0.005 A 
BRANCH  13  16
ATOM     16  C   LIG    1       -8.785   3.201  -5.793  0.00  0.00    +0.417 C 
ATOM     17  F   LIG    1       -9.071   4.562  -5.944  0.00  0.00    -0.166 F 
ATOM     18  F   LIG    1       -9.886   2.445  -6.207  0.00  0.00    -0.166 F 
ATOM     19  F   LIG    1       -7.671   2.869  -6.572  0.00  0.00    -0.166 F 
ENDBRANCH  13  16
ENDBRANCH   4  10
BRANCH   3  20
ATOM     20  C   LIG    1       -5.299   1.179  -0.051  0.00  0.00    +0.246 C 
ATOM     21  N   LIG    1       -4.851   2.446   0.054  0.00  0.00    -0.279 N 
ATOM     22  H   LIG    1       -5.481   3.177   0.147  0.00  0.00    +0.155 HD
ATOM     23  O   LIG    1       -4.509   0.253  -0.065  0.00  0.00    -0.270 OA
BRANCH  21  24
ATOM     24  C   LIG    1       -3.474   2.706   0.030  0.00  0.00    +0.070 A 
ATOM     25  C   LIG    1       -2.619   1.820  -0.591  0.00  0.00    +0.037 A 
ATOM     26  C   LIG    1       -1.245   2.087  -0.618  0.00  0.00    +0.021 A 
ATOM     27  C   LIG    1       -0.089   1.384  -1.167  0.00  0.00    +0.142 A 
ATOM     28  N   LIG    1        0.972   2.089  -0.894  0.00  0.00    -0.181 NA
ATOM     29  N   LIG    1        0.615   3.239  -0.183  0.00  0.00    -0.277 N 
ATOM     30  H   LIG    1        1.249   3.940   0.142  0.00  0.00    +0.189 HD
ATOM     31  C   LIG    1       -0.745   3.250  -0.002  0.00  0.00    +0.069 A 
ATOM     32  C   LIG    1       -1.625   4.133   0.620  0.00  0.00    +0.068 A 
ATOM     33  C   LIG    1       -2.974   3.862   0.635  0.00  0.00    +0.147 A 
ATOM     34  F   LIG    1       -3.823   4.722   1.240  0.00  0.00    -0.203 F 
ENDBRANCH  21  24
ENDBRANCH   3  20
TORSDOF 4
