REMARK  Name = ZINC40953486
REMARK                            x       y       z     vdW  Elec       q    Type
REMARK                         _______ _______ _______ _____ _____    ______ ____
ROOT
ATOM      1  N   LIG    1       -1.200  -1.909  -0.146  0.00  0.00    +0.381 N 
ATOM      2  H   LIG    1       -0.646  -2.256   0.623  0.00  0.00    -0.082 HD
ATOM      3  C   LIG    1       -0.502  -2.179  -1.409  0.00  0.00    -0.077 C 
ATOM      4  C   LIG    1       -0.230  -3.680  -1.534  0.00  0.00    +0.006 C 
ATOM      5  C   LIG    1       -1.560  -4.438  -1.511  0.00  0.00    +0.089 C 
ATOM      6  C   LIG    1       -2.312  -4.090  -0.223  0.00  0.00    +0.006 C 
ATOM      7  C   LIG    1       -2.508  -2.575  -0.147  0.00  0.00    -0.077 C 
ENDROOT
BRANCH   5   8
ATOM      8  N   LIG    1       -1.303  -5.880  -1.553  0.00  0.00    -0.289 N 
ATOM      9  C   LIG    1       -1.742  -6.758  -2.543  0.00  0.00    +0.070 A 
ATOM     10  C   LIG    1       -2.489  -6.591  -3.699  0.00  0.00    +0.029 A 
ATOM     11  C   LIG    1       -2.770  -7.681  -4.499  0.00  0.00    +0.017 A 
ATOM     12  C   LIG    1       -2.308  -8.940  -4.151  0.00  0.00    +0.020 A 
ATOM     13 BR   LIG    1       -2.700 -10.425  -5.255  0.00  0.00    -0.050 Br
ATOM     14  C   LIG    1       -1.563  -9.115  -3.001  0.00  0.00    +0.043 A 
ATOM     15  C   LIG    1       -1.275  -8.026  -2.192  0.00  0.00    +0.068 A 
ATOM     16  N   LIG    1       -0.568  -7.880  -1.001  0.00  0.00    -0.306 N 
ATOM     17  H   LIG    1       -0.127  -8.592  -0.512  0.00  0.00    +0.170 HD
ATOM     18  C   LIG    1       -0.598  -6.582  -0.646  0.00  0.00    +0.328 A 
ATOM     19  O   LIG    1       -0.070  -6.114   0.345  0.00  0.00    -0.247 OA
ENDBRANCH   5   8
BRANCH   1  20
ATOM     20  C   LIG    1       -1.389  -0.460   0.006  0.00  0.00    -0.057 C 
BRANCH  20  22
ATOM     21  C   LIG    1       -2.070   1.350   1.588  0.00  0.00    +0.026 C 
ATOM     22  C   LIG    1       -1.974  -0.164   1.388  0.00  0.00    +0.053 C 
BRANCH  22  23
ATOM     23  N   LIG    1       -1.106  -0.739   2.419  0.00  0.00    -0.314 N 
ATOM     24  H   LIG    1       -0.161  -0.867   2.240  0.00  0.00    +0.149 HD
ATOM     25  C   LIG    1       -1.620  -1.089   3.614  0.00  0.00    +0.217 C 
ATOM     26  O   LIG    1       -2.801  -0.929   3.837  0.00  0.00    -0.275 OA
BRANCH  25  27
ATOM     27  C   LIG    1       -0.726  -1.681   4.674  0.00  0.00    +0.083 C 
ATOM     28  C   LIG    1       -0.934  -3.154   5.032  0.00  0.00    +0.022 C 
ATOM     29  C   LIG    1       -1.370  -2.060   6.010  0.00  0.00    +0.032 C 
BRANCH  29  30
ATOM     30  C   LIG    1       -0.546  -1.873   7.257  0.00  0.00    -0.044 A 
ATOM     31  C   LIG    1        0.656  -2.542   7.399  0.00  0.00    +0.004 A 
ATOM     32  C   LIG    1        1.412  -2.370   8.543  0.00  0.00    +0.000 A 
ATOM     33  C   LIG    1        0.967  -1.529   9.546  0.00  0.00    +0.000 A 
ATOM     34  C   LIG    1       -0.234  -0.860   9.404  0.00  0.00    +0.000 A 
ATOM     35  C   LIG    1       -0.988  -1.028   8.258  0.00  0.00    +0.004 A 
ENDBRANCH  29  30
ENDBRANCH  25  27
ENDBRANCH  22  23
ENDBRANCH  20  22
ENDBRANCH   1  20
TORSDOF 6
