REMARK  Name = ZINC29043516
REMARK                            x       y       z     vdW  Elec       q    Type
REMARK                         _______ _______ _______ _____ _____    ______ ____
ROOT
ATOM      1  C   LIG    1       -1.348   1.222  -1.988  0.00  0.00    +0.233 C 
ATOM      2  N   LIG    1       -0.575   1.889  -1.109  0.00  0.00    -0.298 N 
ATOM      3  C   LIG    1       -0.257   3.308  -1.319  0.00  0.00    +0.108 C 
ATOM      4  C   LIG    1        1.264   3.484  -1.270  0.00  0.00    +0.020 C 
ATOM      5  C   LIG    1        1.799   2.908   0.043  0.00  0.00    +0.011 C 
ATOM      6  C   LIG    1        1.484   1.412   0.111  0.00  0.00    +0.038 C 
ATOM      7  C   LIG    1       -0.035   1.212   0.078  0.00  0.00    +0.067 C 
ATOM      8  O   LIG    1       -1.604   0.051  -1.803  0.00  0.00    -0.274 OA
ENDROOT
BRANCH   6   9
ATOM      9  C   LIG    1        2.038   0.839   1.389  0.00  0.00    -0.043 A 
ATOM     10  C   LIG    1        1.943   1.556   2.567  0.00  0.00    +0.004 A 
ATOM     11  C   LIG    1        2.447   1.028   3.741  0.00  0.00    +0.000 A 
ATOM     12  C   LIG    1        3.057  -0.213   3.735  0.00  0.00    +0.000 A 
ATOM     13  C   LIG    1        3.158  -0.928   2.556  0.00  0.00    +0.000 A 
ATOM     14  C   LIG    1        2.648  -0.402   1.383  0.00  0.00    +0.004 A 
ENDBRANCH   6   9
BRANCH   1  15
ATOM     15  C   LIG    1       -1.895   1.930  -3.200  0.00  0.00    +0.200 C 
BRANCH  15  17
ATOM     16  C   LIG    1       -2.065   0.198  -5.046  0.00  0.00    +0.130 C 
ATOM     17  N   LIG    1       -2.697   0.995  -3.992  0.00  0.00    -0.324 N 
BRANCH  17  18
ATOM     18  C   LIG    1       -4.066   0.862  -3.742  0.00  0.00    +0.031 A 
ATOM     19  C   LIG    1       -4.665   1.613  -2.739  0.00  0.00    +0.024 A 
ATOM     20  C   LIG    1       -6.019   1.486  -2.497  0.00  0.00    +0.023 A 
ATOM     21  C   LIG    1       -6.777   0.601  -3.245  0.00  0.00    +0.059 A 
ATOM     22 CL   LIG    1       -8.476   0.438  -2.932  0.00  0.00    -0.082 Cl
ATOM     23  C   LIG    1       -6.181  -0.153  -4.242  0.00  0.00    +0.061 A 
ATOM     24 CL   LIG    1       -7.135  -1.260  -5.178  0.00  0.00    -0.082 Cl
ATOM     25  C   LIG    1       -4.828  -0.024  -4.492  0.00  0.00    +0.044 A 
ENDBRANCH  17  18
ENDBRANCH  15  17
ENDBRANCH   1  15
BRANCH   7  26
ATOM     26  C   LIG    1       -0.658   1.809   1.341  0.00  0.00    -0.056 C 
BRANCH  26  27
ATOM     27  N   LIG    1       -2.116   1.630   1.300  0.00  0.00    +0.381 N 
ATOM     28  H   LIG    1       -2.476   2.289   0.496  0.00  0.00    -0.082 HD
ATOM     29  C   LIG    1       -2.470   0.209   1.050  0.00  0.00    -0.079 C 
ATOM     30  C   LIG    1       -3.932   0.115   1.554  0.00  0.00    -0.020 C 
ATOM     31  C   LIG    1       -3.928   1.030   2.800  0.00  0.00    -0.020 C 
ATOM     32  C   LIG    1       -2.729   1.975   2.600  0.00  0.00    -0.079 C 
ENDBRANCH  26  27
ENDBRANCH   7  26
TORSDOF 6
