REMARK  Name = ZINC16989176
REMARK                            x       y       z     vdW  Elec       q    Type
REMARK                         _______ _______ _______ _____ _____    ______ ____
ROOT
ATOM      1  C   LIG    1       -4.771   1.609   3.812  0.00  0.00    +0.028 C 
ATOM      2  C   LIG    1       -4.419   2.744   4.466  0.00  0.00    +0.074 C 
ATOM      3  C   LIG    1       -4.960   3.317   5.717  0.00  0.00    +0.217 C 
ATOM      4  N   LIG    1       -4.420   4.452   6.130  0.00  0.00    -0.165 NA
ATOM      5  C   LIG    1       -3.428   5.051   5.441  0.00  0.00    +0.139 C 
ATOM      6  S   LIG    1       -2.608   6.508   5.810  0.00  0.00    -0.026 S 
ATOM      7  S   LIG    1       -3.170   3.955   4.056  0.00  0.00    -0.060 S 
ENDROOT
BRANCH   1  12
ATOM      8  C   LIG    1       -2.024   1.327   1.270  0.00  0.00    +0.121 A 
ATOM      9  C   LIG    1       -2.485   0.268   0.497  0.00  0.00    +0.045 A 
ATOM     10  C   LIG    1       -3.684  -0.350   0.804  0.00  0.00    +0.004 A 
ATOM     11  C   LIG    1       -4.432   0.081   1.880  0.00  0.00    +0.008 A 
ATOM     12  C   LIG    1       -3.977   1.146   2.664  0.00  0.00    -0.020 A 
ATOM     13  C   LIG    1       -2.762   1.765   2.355  0.00  0.00    +0.053 A 
BRANCH   8  15
ATOM     14  C   LIG    1       -0.134   1.421  -0.168  0.00  0.00    +0.277 C 
ATOM     15  O   LIG    1       -0.845   1.928   0.962  0.00  0.00    -0.495 OA
ENDBRANCH   8  15
ENDBRANCH   1  12
BRANCH   3  16
ATOM     16  O   LIG    1       -5.855   2.773   6.336  0.00  0.00    -0.493 OA
ATOM     17  H   LIG    1       -6.220   1.969   6.022  0.00  0.00    +0.294 HD
ENDBRANCH   3  16
TORSDOF 3
