REMARK  Name = ZINC13974879
REMARK                            x       y       z     vdW  Elec       q    Type
REMARK                         _______ _______ _______ _____ _____    ______ ____
ROOT
ATOM      1  C   LIG    1       -4.462   4.506   2.622  0.00  0.00    +0.009 C 
ATOM      2  C   LIG    1       -3.762   3.709   1.519  0.00  0.00    +0.009 C 
ATOM      3  C   LIG    1       -3.858   2.214   1.832  0.00  0.00    +0.024 C 
ATOM      4  C   LIG    1       -3.187   1.418   0.708  0.00  0.00    +0.108 C 
ATOM      5  N   LIG    1       -1.814   1.911   0.533  0.00  0.00    -0.299 N 
ATOM      6  C   LIG    1       -0.768   1.062   0.571  0.00  0.00    +0.229 C 
ATOM      7  O   LIG    1        0.360   1.481   0.421  0.00  0.00    -0.274 OA
ATOM      8  C   LIG    1       -1.601   3.350   0.323  0.00  0.00    +0.130 C 
ATOM      9  C   LIG    1       -2.291   4.124   1.446  0.00  0.00    +0.095 C 
ENDROOT
BRANCH   9  10
ATOM     10  N   LIG    1       -2.200   5.565   1.178  0.00  0.00    -0.313 N 
ATOM     11  C   LIG    1       -0.802   5.982   1.008  0.00  0.00    +0.131 C 
BRANCH  10  12
ATOM     12  C   LIG    1       -2.959   5.913   0.075  0.00  0.00    +0.134 A 
ATOM     13  C   LIG    1       -3.343   7.245  -0.143  0.00  0.00    +0.059 A 
ATOM     14  C   LIG    1       -3.135   8.511   0.558  0.00  0.00    +0.032 A 
ATOM     15  C   LIG    1       -3.761   9.459  -0.158  0.00  0.00    +0.085 A 
ATOM     16  N   LIG    1       -4.351   8.895  -1.260  0.00  0.00    -0.346 N 
ATOM     17  H   LIG    1       -4.861   9.380  -1.927  0.00  0.00    +0.167 HD
ATOM     18  C   LIG    1       -4.114   7.548  -1.280  0.00  0.00    +0.143 A 
ATOM     19  N   LIG    1       -4.450   6.557  -2.104  0.00  0.00    -0.218 NA
ATOM     20  C   LIG    1       -4.068   5.322  -1.860  0.00  0.00    +0.225 A 
ATOM     21  N   LIG    1       -3.340   4.995  -0.808  0.00  0.00    -0.220 NA
ENDBRANCH  10  12
ENDBRANCH   9  10
BRANCH   6  22
ATOM     22  C   LIG    1       -1.002  -0.410   0.793  0.00  0.00    +0.214 C 
BRANCH  22  23
ATOM     23  C   LIG    1        0.289  -1.119   0.786  0.00  0.00    +0.072 C 
ATOM     24  N   LIG    1        1.285  -1.665   0.780  0.00  0.00    -0.196 NA
ENDBRANCH  22  23
ENDBRANCH   6  22
TORSDOF 4
