REMARK  Name = ZINC13829441
REMARK                            x       y       z     vdW  Elec       q    Type
REMARK                         _______ _______ _______ _____ _____    ______ ____
ROOT
ATOM      1  C   LIG    1        7.448  -6.806  -0.109  0.00  0.00    +0.142 A 
ATOM      2  C   LIG    1        8.058  -7.140  -1.326  0.00  0.00    +0.060 A 
ATOM      3  C   LIG    1        7.433  -6.784  -2.600  0.00  0.00    +0.022 A 
ATOM      4  C   LIG    1        8.070  -7.134  -3.748  0.00  0.00    +0.093 A 
ATOM      5  C   LIG    1        9.299  -7.820  -3.687  0.00  0.00    +0.337 A 
ATOM      6  O   LIG    1        9.870  -8.144  -2.516  0.00  0.00    -0.422 OA
ATOM      7  O   LIG    1        9.859  -8.126  -4.724  0.00  0.00    -0.245 OA
ATOM      8  C   LIG    1        9.290  -7.827  -1.335  0.00  0.00    +0.146 A 
ATOM      9  C   LIG    1        9.899  -8.173  -0.143  0.00  0.00    +0.094 A 
ATOM     10  C   LIG    1        9.303  -7.846   1.068  0.00  0.00    +0.142 A 
ATOM     11  O   LIG    1        9.660  -8.052   2.353  0.00  0.00    -0.463 OA
ATOM     12  C   LIG    1        8.749  -7.531   3.195  0.00  0.00    +0.196 A 
ATOM     13  C   LIG    1        7.747  -6.972   2.505  0.00  0.00    +0.053 A 
ATOM     14  C   LIG    1        8.077  -7.156   1.084  0.00  0.00    +0.063 A 
ENDROOT
BRANCH   1  15
ATOM     15  O   LIG    1        6.264  -6.145  -0.094  0.00  0.00    -0.491 OA
BRANCH  15  16
ATOM     16  C   LIG    1        6.318  -4.717  -0.087  0.00  0.00    +0.229 C 
BRANCH  16  17
ATOM     17  C   LIG    1        4.896  -4.153  -0.069  0.00  0.00    +0.044 C 
BRANCH  17  18
ATOM     18  C   LIG    1        4.954  -2.624  -0.061  0.00  0.00    +0.044 C 
BRANCH  18  19
ATOM     19  C   LIG    1        3.531  -2.060  -0.044  0.00  0.00    +0.229 C 
BRANCH  19  20
ATOM     20  O   LIG    1        3.586  -0.632  -0.037  0.00  0.00    -0.492 OA
BRANCH  20  24
ATOM     21  C   LIG    1       -0.017   1.378   0.010  0.00  0.00    +0.000 A 
ATOM     22  C   LIG    1        1.170   2.088   0.002  0.00  0.00    +0.004 A 
ATOM     23  C   LIG    1        2.377   1.417  -0.013  0.00  0.00    +0.045 A 
ATOM     24  C   LIG    1        2.399   0.030  -0.021  0.00  0.00    +0.120 A 
ATOM     25  C   LIG    1        1.207  -0.680  -0.013  0.00  0.00    +0.045 A 
ATOM     26  C   LIG    1        0.002  -0.004   0.002  0.00  0.00    +0.004 A 
ENDBRANCH  20  24
ENDBRANCH  19  20
ENDBRANCH  18  19
ENDBRANCH  17  18
ENDBRANCH  16  17
ENDBRANCH  15  16
ENDBRANCH   1  15
TORSDOF 7
