REMARK  Name = ZINC64633932
REMARK                            x       y       z     vdW  Elec       q    Type
REMARK                         _______ _______ _______ _____ _____    ______ ____
ROOT
ATOM      1  C   LIG    1       -4.993  -2.042   0.737  0.00  0.00    +0.213 C 
ATOM      2  N   LIG    1       -6.126  -1.357   0.719  0.00  0.00    -0.284 NA
ATOM      3  H   LIG    1       -6.180  -0.538   0.203  0.00  0.00    +0.125 HD
ATOM      4  C   LIG    1       -7.186  -1.774   1.396  0.00  0.00    +0.109 C 
ATOM      5  C   LIG    1       -7.106  -2.952   2.125  0.00  0.00    +0.125 C 
ATOM      6  C   LIG    1       -5.905  -3.664   2.097  0.00  0.00    +0.165 C 
ATOM      7  N   LIG    1       -5.793  -4.894   2.732  0.00  0.00    -0.315 N 
ATOM      8  C   LIG    1       -4.820  -5.087   3.810  0.00  0.00    +0.131 C 
ATOM      9  C   LIG    1       -6.619  -5.939   2.331  0.00  0.00    +0.043 A 
ATOM     10  C   LIG    1       -6.059  -7.110   1.836  0.00  0.00    +0.024 A 
ATOM     11  C   LIG    1       -6.874  -8.138   1.406  0.00  0.00    +0.002 A 
ATOM     12  C   LIG    1       -8.252  -8.007   1.462  0.00  0.00    +0.001 A 
ATOM     13  C   LIG    1       -8.823  -6.858   1.963  0.00  0.00    +0.015 A 
ATOM     14  C   LIG    1       -8.011  -5.814   2.419  0.00  0.00    +0.058 A 
ATOM     15  C   LIG    1       -8.624  -4.625   3.022  0.00  0.00    +0.249 C 
ATOM     16  O   LIG    1       -9.608  -4.799   3.715  0.00  0.00    -0.270 OA
ATOM     17  N   LIG    1       -8.198  -3.379   2.878  0.00  0.00    -0.293 N 
ATOM     18  C   LIG    1       -8.954  -2.341   3.584  0.00  0.00    +0.133 C 
ATOM     19  N   LIG    1       -4.878  -3.179   1.409  0.00  0.00    -0.266 NA
ATOM     20  H   LIG    1       -4.116  -3.048   2.075  0.00  0.00    +0.127 HD
ENDROOT
BRANCH   1  21
ATOM     21  N   LIG    1       -3.902  -1.562   0.030  0.00  0.00    -0.314 N 
ATOM     22  H   LIG    1       -3.944  -0.690  -0.393  0.00  0.00    +0.149 HD
BRANCH  21  28
ATOM     23  C   LIG    1       -1.490  -1.717  -0.125  0.00  0.00    +0.143 A 
ATOM     24  C   LIG    1       -0.341  -2.484  -0.222  0.00  0.00    +0.070 A 
ATOM     25  C   LIG    1       -0.434  -3.869  -0.274  0.00  0.00    +0.033 A 
ATOM     26  C   LIG    1       -1.679  -4.484  -0.228  0.00  0.00    +0.025 A 
ATOM     27  C   LIG    1       -2.826  -3.720  -0.132  0.00  0.00    +0.028 A 
ATOM     28  C   LIG    1       -2.736  -2.337  -0.074  0.00  0.00    +0.072 A 
BRANCH  25  29
ATOM     29  N   LIG    1        0.726  -4.645  -0.371  0.00  0.00    -0.330 N 
ATOM     30  C   LIG    1        2.039  -4.009  -0.547  0.00  0.00    +0.107 C 
ATOM     31  C   LIG    1        2.723  -4.621  -1.774  0.00  0.00    +0.050 C 
ATOM     32  C   LIG    1        2.777  -6.142  -1.617  0.00  0.00    +0.118 C 
ATOM     33  C   LIG    1        1.354  -6.699  -1.529  0.00  0.00    +0.050 C 
ATOM     34  C   LIG    1        0.656  -6.110  -0.294  0.00  0.00    +0.107 C 
BRANCH  32  35
ATOM     35  O   LIG    1        3.444  -6.714  -2.744  0.00  0.00    -0.392 OA
ATOM     36  H   LIG    1        3.515  -7.678  -2.712  0.00  0.00    +0.210 HD
ENDBRANCH  32  35
ENDBRANCH  25  29
BRANCH  23  37
ATOM     37  O   LIG    1       -1.401  -0.361  -0.075  0.00  0.00    -0.490 OA
BRANCH  37  39
ATOM     38  C   LIG    1       -0.191   1.731  -0.063  0.00  0.00    +0.048 C 
ATOM     39  C   LIG    1       -0.090   0.205  -0.132  0.00  0.00    +0.226 C 
ENDBRANCH  37  39
ENDBRANCH  23  37
ENDBRANCH  21  28
ENDBRANCH   1  21
TORSDOF 6
