REMARK  Name = ZINC29485680
REMARK                            x       y       z     vdW  Elec       q    Type
REMARK                         _______ _______ _______ _____ _____    ______ ____
ROOT
ATOM      1  C   LIG    1        0.762  -2.018   1.233  0.00  0.00    +0.062 A 
ATOM      2  N   LIG    1       -0.105  -2.837   1.864  0.00  0.00    -0.279 N 
ATOM      3  H   LIG    1       -0.852  -2.529   2.402  0.00  0.00    +0.189 HD
ATOM      4  N   LIG    1        0.176  -4.076   1.663  0.00  0.00    -0.167 NA
ATOM      5  C   LIG    1        1.238  -4.192   0.904  0.00  0.00    +0.175 A 
ATOM      6  C   LIG    1        2.030  -5.295   0.343  0.00  0.00    +0.280 A 
ATOM      7  N   LIG    1        3.098  -4.971  -0.423  0.00  0.00    -0.305 N 
ATOM      8  H   LIG    1        3.640  -5.678  -0.806  0.00  0.00    +0.170 HD
ATOM      9  C   LIG    1        3.431  -3.663  -0.667  0.00  0.00    +0.145 A 
ATOM     10  N   LIG    1        2.763  -2.644  -0.195  0.00  0.00    -0.225 NA
ATOM     11  O   LIG    1        1.737  -6.456   0.557  0.00  0.00    -0.265 OA
ATOM     12  C   LIG    1        1.671  -2.820   0.588  0.00  0.00    +0.119 A 
ENDROOT
BRANCH   9  13
ATOM     13  C   LIG    1        4.612  -3.392  -1.512  0.00  0.00    +0.059 A 
ATOM     14  C   LIG    1        5.353  -4.449  -2.043  0.00  0.00    +0.015 A 
ATOM     15  C   LIG    1        6.453  -4.189  -2.831  0.00  0.00    +0.001 A 
ATOM     16  C   LIG    1        6.828  -2.882  -3.099  0.00  0.00    +0.004 A 
ATOM     17  C   LIG    1        6.103  -1.828  -2.579  0.00  0.00    +0.046 A 
ATOM     18  C   LIG    1        4.990  -2.072  -1.789  0.00  0.00    +0.127 A 
BRANCH  18  19
ATOM     19  O   LIG    1        4.274  -1.036  -1.282  0.00  0.00    -0.506 OA
ATOM     20  H   LIG    1        4.580  -0.733  -0.416  0.00  0.00    +0.292 HD
ENDBRANCH  18  19
ENDBRANCH   9  13
BRANCH   1  21
ATOM     21  C   LIG    1        0.742  -0.511   1.242  0.00  0.00    +0.057 C 
BRANCH  21  23
ATOM     22  C   LIG    1       -0.019   1.526   0.010  0.00  0.00    +0.004 C 
ATOM     23  C   LIG    1        0.002  -0.004   0.002  0.00  0.00    +0.003 C 
ENDBRANCH  21  23
ENDBRANCH   1  21
TORSDOF 4
