REMARK  Name = ZINC34801417
REMARK                            x       y       z     vdW  Elec       q    Type
REMARK                         _______ _______ _______ _____ _____    ______ ____
ROOT
ATOM      1  C   LIG    1        0.718  -0.511   1.310  0.00  0.00    +0.024 C 
ATOM      2  C   LIG    1       -0.042  -0.202   2.627  0.00  0.00    +0.007 C 
ATOM      3  C   LIG    1       -0.105  -1.542   3.418  0.00  0.00    +0.005 C 
ATOM      4  C   LIG    1        1.008  -2.360   2.744  0.00  0.00    -0.001 C 
ATOM      5  C   LIG    1        1.084  -3.821   3.047  0.00  0.00    -0.004 C 
ATOM      6  C   LIG    1       -0.044  -4.324   3.944  0.00  0.00    +0.006 C 
ATOM      7  C   LIG    1        0.258  -5.777   4.346  0.00  0.00    +0.023 C 
ATOM      8  C   LIG    1        1.540  -6.247   3.677  0.00  0.00    +0.082 C 
ATOM      9  C   LIG    1        1.464  -6.114   2.157  0.00  0.00    -0.010 C 
ATOM     10  C   LIG    1        0.351  -7.016   1.609  0.00  0.00    +0.013 C 
ATOM     11  C   LIG    1        2.802  -6.543   1.559  0.00  0.00    +0.018 C 
ATOM     12  C   LIG    1        3.043  -8.026   1.840  0.00  0.00    +0.096 C 
ATOM     13  C   LIG    1        2.593  -8.413   3.215  0.00  0.00    +0.216 C 
ATOM     14  O   LIG    1        2.868  -9.525   3.615  0.00  0.00    -0.276 OA
ATOM     15  N   LIG    1        1.902  -7.612   4.035  0.00  0.00    -0.301 N 
ATOM     16  C   LIG    1        1.516  -8.141   5.344  0.00  0.00    +0.132 C 
ATOM     17  C   LIG    1        1.127  -4.670   1.777  0.00  0.00    +0.000 C 
ATOM     18  C   LIG    1        2.101  -4.109   0.757  0.00  0.00    +0.005 C 
ATOM     19  C   LIG    1        1.804  -2.653   0.384  0.00  0.00    +0.007 C 
ATOM     20  C   LIG    1        0.735  -2.056   1.255  0.00  0.00    -0.024 C 
ATOM     21  C   LIG    1       -0.659  -2.485   0.802  0.00  0.00    +0.012 C 
ENDROOT
BRANCH   1  23
ATOM     22  C   LIG    1        0.095   1.563   0.068  0.00  0.00    +0.038 C 
ATOM     23  C   LIG    1       -0.046   0.040   0.108  0.00  0.00    +0.115 C 
BRANCH  23  24
ATOM     24  O   LIG    1       -1.427  -0.308   0.221  0.00  0.00    -0.392 OA
ATOM     25  H   LIG    1       -1.974   0.010  -0.510  0.00  0.00    +0.210 HD
ENDBRANCH  23  24
ENDBRANCH   1  23
TORSDOF 2
