REMARK  Name = ZINC27977563
REMARK                            x       y       z     vdW  Elec       q    Type
REMARK                         _______ _______ _______ _____ _____    ______ ____
ROOT
ATOM      1  C   LIG    1        2.474   3.717   0.004  0.00  0.00    +0.051 A 
ATOM      2  C   LIG    1        1.238   3.064   0.007  0.00  0.00    +0.065 A 
ATOM      3  C   LIG    1        0.057   3.811   0.022  0.00  0.00    +0.064 A 
ATOM      4  C   LIG    1        0.116   5.191   0.029  0.00  0.00    +0.161 A 
ATOM      5  C   LIG    1        1.352   5.836   0.021  0.00  0.00    +0.189 A 
ATOM      6  C   LIG    1        2.526   5.094   0.006  0.00  0.00    +0.167 A 
ENDROOT
BRANCH   2   7
ATOM      7  C   LIG    1        1.181   1.591  -0.001  0.00  0.00    +0.337 C 
ATOM      8  O   LIG    1        2.209   0.943  -0.014  0.00  0.00    -0.245 OA
BRANCH   7   9
ATOM      9  O   LIG    1       -0.011   0.963   0.007  0.00  0.00    -0.477 OA
ATOM     10  H   LIG    1       -0.804   1.462   0.018  0.00  0.00    +0.295 HD
ENDBRANCH   7   9
ENDBRANCH   2   7
BRANCH   4  11
ATOM     11  O   LIG    1       -1.032   5.921   0.045  0.00  0.00    -0.503 OA
ATOM     12  H   LIG    1       -0.985   7.020   0.050  0.00  0.00    +0.292 HD
ENDBRANCH   4  11
BRANCH   5  13
ATOM     13  O   LIG    1        1.408   7.193   0.029  0.00  0.00    -0.502 OA
ATOM     14  H   LIG    1        0.617   7.694   0.039  0.00  0.00    +0.292 HD
ENDBRANCH   5  13
BRANCH   6  15
ATOM     15  N   LIG    1        3.835   5.784  -0.003  0.00  0.00    +0.010 N 
ATOM     16  O   LIG    1        4.865   5.135  -0.017  0.00  0.00    -0.130 OA
BRANCH  15  17
ATOM     17  O   LIG    1        3.882   7.001   0.004  0.00  0.00    -0.396 OA
ATOM     18  H   LIG    1        3.090   7.501   0.014  0.00  0.00    +0.329 HD
ENDBRANCH  15  17
ENDBRANCH   6  15
TORSDOF 6
