REMARK  Name = ZINC72113267
REMARK                            x       y       z     vdW  Elec       q    Type
REMARK                         _______ _______ _______ _____ _____    ______ ____
ROOT
ATOM      1  C   LIG    1       -0.018   1.461   0.010  0.00  0.00    +0.153 C 
ATOM      2  N   LIG    1        0.002  -0.004   0.002  0.00  0.00    -0.302 N 
ATOM      3  C   LIG    1        0.006  -0.671  -1.183  0.00  0.00    +0.202 A 
ATOM      4  N   LIG    1        0.023  -1.966  -1.272  0.00  0.00    -0.237 NA
ATOM      5  C   LIG    1        0.040  -2.755  -0.168  0.00  0.00    +0.082 A 
ATOM      6  C   LIG    1        0.059  -4.146  -0.266  0.00  0.00    +0.078 A 
ATOM      7  C   LIG    1        0.076  -4.914   0.882  0.00  0.00    +0.164 A 
ATOM      8  C   LIG    1        0.073  -4.309   2.144  0.00  0.00    +0.163 A 
ATOM      9  C   LIG    1        0.054  -2.935   2.260  0.00  0.00    +0.064 A 
ATOM     10  C   LIG    1        0.037  -2.148   1.109  0.00  0.00    +0.069 A 
ATOM     11  C   LIG    1        0.022  -0.681   1.174  0.00  0.00    +0.261 A 
ATOM     12  O   LIG    1        0.024  -0.095   2.242  0.00  0.00    -0.267 OA
ENDROOT
BRANCH   7  13
ATOM     13  O   LIG    1        0.095  -6.268   0.786  0.00  0.00    -0.491 OA
ATOM     14  C   LIG    1        0.096  -6.825  -0.530  0.00  0.00    +0.277 C 
ENDBRANCH   7  13
BRANCH   8  15
ATOM     15  O   LIG    1        0.089  -5.082   3.264  0.00  0.00    -0.488 OA
BRANCH  15  16
ATOM     16  C   LIG    1        0.085  -4.402   4.521  0.00  0.00    +0.235 C 
BRANCH  16  17
ATOM     17  C   LIG    1        0.104  -5.429   5.655  0.00  0.00    +0.096 C 
BRANCH  17  18
ATOM     18  C   LIG    1        0.100  -4.712   6.981  0.00  0.00    +0.045 A 
ATOM     19  C   LIG    1       -0.885  -5.022   7.916  0.00  0.00    +0.024 A 
ATOM     20  C   LIG    1       -0.905  -4.383   9.123  0.00  0.00    +0.012 A 
ATOM     21  C   LIG    1        0.089  -3.419   9.380  0.00  0.00    +0.000 A 
ATOM     22  C   LIG    1        0.133  -2.722  10.598  0.00  0.00    +0.010 A 
ATOM     23  C   LIG    1        1.110  -1.797  10.809  0.00  0.00    +0.001 A 
ATOM     24  C   LIG    1        2.068  -1.534   9.831  0.00  0.00    +0.002 A 
ATOM     25  C   LIG    1        2.054  -2.191   8.640  0.00  0.00    +0.028 A 
ATOM     26  C   LIG    1        1.061  -3.153   8.385  0.00  0.00    +0.071 A 
ATOM     27  N   LIG    1        1.027  -3.818   7.226  0.00  0.00    -0.251 NA
ENDBRANCH  17  18
ENDBRANCH  16  17
ENDBRANCH  15  16
ENDBRANCH   8  15
TORSDOF 5
