REMARK  Name = ZINC53297239
REMARK                            x       y       z     vdW  Elec       q    Type
REMARK                         _______ _______ _______ _____ _____    ______ ____
ROOT
ATOM      1  N   LIG    1        0.735  -3.183  -0.022  0.00  0.00    -0.317 N 
ATOM      2  C   LIG    1       -0.718  -2.988   0.098  0.00  0.00    +0.088 C 
ATOM      3  C   LIG    1       -1.241  -3.904   1.209  0.00  0.00    -0.060 C 
ATOM      4  N   LIG    1       -0.836  -5.288   0.933  0.00  0.00    +0.383 N 
ATOM      5  H   LIG    1       -1.160  -5.556   0.015  0.00  0.00    -0.082 HD
ATOM      6  C   LIG    1        0.628  -5.401   0.984  0.00  0.00    -0.060 C 
ATOM      7  C   LIG    1        1.243  -4.558  -0.144  0.00  0.00    +0.088 C 
ENDROOT
BRANCH   1  13
ATOM      8  C   LIG    1        5.265  -2.869  -0.794  0.00  0.00    +0.001 A 
ATOM      9  C   LIG    1        5.721  -1.560  -0.692  0.00  0.00    +0.002 A 
ATOM     10  C   LIG    1        4.861  -0.542  -0.393  0.00  0.00    +0.028 A 
ATOM     11  C   LIG    1        3.510  -0.812  -0.188  0.00  0.00    +0.068 A 
ATOM     12  C   LIG    1        3.047  -2.138  -0.291  0.00  0.00    +0.041 A 
ATOM     13  C   LIG    1        1.609  -2.092  -0.025  0.00  0.00    +0.151 A 
ATOM     14  N   LIG    1        1.288  -0.847   0.209  0.00  0.00    -0.158 NA
ATOM     15  N   LIG    1        2.424  -0.035   0.118  0.00  0.00    -0.275 N 
ATOM     16  H   LIG    1        2.439   0.926   0.251  0.00  0.00    +0.189 HD
ATOM     17  C   LIG    1        3.946  -3.163  -0.598  0.00  0.00    +0.013 A 
ENDBRANCH   1  13
BRANCH   4  18
ATOM     18  C   LIG    1       -1.429  -6.181   1.938  0.00  0.00    -0.060 C 
BRANCH  18  19
ATOM     19  C   LIG    1       -1.111  -7.634   1.580  0.00  0.00    +0.086 C 
BRANCH  19  20
ATOM     20  N   LIG    1       -1.703  -8.524   2.582  0.00  0.00    -0.317 N 
ATOM     21  H   LIG    1       -2.203  -8.152   3.325  0.00  0.00    +0.149 HD
BRANCH  20  22
ATOM     22  C   LIG    1       -1.548  -9.883   2.470  0.00  0.00    +0.196 A 
ATOM     23  N   LIG    1       -2.117 -10.682   3.418  0.00  0.00    -0.295 N 
ATOM     24  C   LIG    1       -1.992 -12.028   3.348  0.00  0.00    +0.260 A 
ATOM     25  C   LIG    1       -1.227 -12.581   2.223  0.00  0.00    +0.065 A 
ATOM     26  C   LIG    1       -1.042 -13.954   2.062  0.00  0.00    +0.015 A 
ATOM     27  C   LIG    1       -0.321 -14.415   0.995  0.00  0.00    +0.001 A 
ATOM     28  C   LIG    1        0.227 -13.533   0.073  0.00  0.00    +0.002 A 
ATOM     29  C   LIG    1        0.061 -12.183   0.207  0.00  0.00    +0.028 A 
ATOM     30  C   LIG    1       -0.671 -11.680   1.286  0.00  0.00    +0.080 A 
ATOM     31  O   LIG    1       -2.495 -12.753   4.187  0.00  0.00    -0.267 OA
ATOM     32  H   LIG    1       -2.616 -10.283   4.148  0.00  0.00    +0.172 HD
ATOM     33  N   LIG    1       -0.867 -10.351   1.455  0.00  0.00    -0.216 NA
ENDBRANCH  20  22
ENDBRANCH  19  20
ENDBRANCH  18  19
ENDBRANCH   4  18
TORSDOF 5
