REMARK  Name = ZINC19313605
REMARK                            x       y       z     vdW  Elec       q    Type
REMARK                         _______ _______ _______ _____ _____    ______ ____
ROOT
ATOM      1  N   LIG    1        4.941  -2.712  -0.061  0.00  0.00    -0.174 NA
ATOM      2  C   LIG    1        4.962  -4.023  -0.068  0.00  0.00    +0.153 C 
ATOM      3  C   LIG    1        6.152  -4.906  -0.079  0.00  0.00    +0.029 A 
ATOM      4  C   LIG    1        7.520  -4.660  -0.084  0.00  0.00    +0.027 A 
ATOM      5  C   LIG    1        8.407  -5.719  -0.095  0.00  0.00    +0.019 A 
ATOM      6 BR   LIG    1       10.270  -5.391  -0.103  0.00  0.00    -0.050 Br
ATOM      7  C   LIG    1        7.933  -7.021  -0.100  0.00  0.00    +0.017 A 
ATOM      8  C   LIG    1        6.576  -7.274  -0.095  0.00  0.00    +0.025 A 
ATOM      9  C   LIG    1        5.669  -6.221  -0.083  0.00  0.00    +0.047 A 
ATOM     10  N   LIG    1        4.278  -6.199  -0.077  0.00  0.00    -0.252 N 
ATOM     11  C   LIG    1        3.806  -4.941  -0.061  0.00  0.00    +0.272 C 
ATOM     12  O   LIG    1        2.633  -4.616  -0.047  0.00  0.00    -0.268 OA
ENDROOT
BRANCH   1  14
ATOM     13  C   LIG    1        3.695  -0.684  -0.037  0.00  0.00    +0.263 C 
ATOM     14  N   LIG    1        3.717  -2.031  -0.045  0.00  0.00    -0.202 N 
ATOM     15  H   LIG    1        2.885  -2.530  -0.039  0.00  0.00    +0.178 HD
ATOM     16  O   LIG    1        4.737  -0.059  -0.044  0.00  0.00    -0.268 OA
BRANCH  13  20
ATOM     17  C   LIG    1       -0.017   1.379   0.010  0.00  0.00    +0.000 A 
ATOM     18  C   LIG    1        1.168   2.094   0.002  0.00  0.00    +0.001 A 
ATOM     19  C   LIG    1        2.377   1.430  -0.013  0.00  0.00    +0.013 A 
ATOM     20  C   LIG    1        2.404   0.034  -0.021  0.00  0.00    +0.038 A 
ATOM     21  C   LIG    1        1.204  -0.681  -0.013  0.00  0.00    +0.013 A 
ATOM     22  C   LIG    1        0.002  -0.004   0.002  0.00  0.00    +0.001 A 
ENDBRANCH  13  20
ENDBRANCH   1  14
BRANCH  10  23
ATOM     23  C   LIG    1        3.434  -7.397  -0.079  0.00  0.00    +0.201 C 
BRANCH  23  24
ATOM     24  N   LIG    1        3.159  -7.805   1.305  0.00  0.00    -0.282 NA
ATOM     25  C   LIG    1        4.282  -8.574   1.861  0.00  0.00    +0.114 C 
ATOM     26  C   LIG    1        3.980  -8.927   3.320  0.00  0.00    +0.175 C 
ATOM     27  O   LIG    1        2.745  -9.646   3.385  0.00  0.00    -0.377 OA
ATOM     28  C   LIG    1        1.630  -8.927   2.853  0.00  0.00    +0.175 C 
ATOM     29  C   LIG    1        1.909  -8.574   1.389  0.00  0.00    +0.114 C 
ENDBRANCH  23  24
ENDBRANCH  10  23
TORSDOF 4
