REMARK  Name = ZINC28826573
REMARK                            x       y       z     vdW  Elec       q    Type
REMARK                         _______ _______ _______ _____ _____    ______ ____
ROOT
ATOM      1  C   LIG    1       -4.486  -0.527   0.121  0.00  0.00    +0.133 A 
ATOM      2  C   LIG    1       -4.660   0.849   0.104  0.00  0.00    +0.050 A 
ATOM      3  C   LIG    1       -3.561   1.683   0.069  0.00  0.00    +0.050 A 
ATOM      4  C   LIG    1       -2.282   1.146   0.051  0.00  0.00    +0.131 A 
ATOM      5  C   LIG    1       -2.108  -0.230   0.063  0.00  0.00    +0.050 A 
ATOM      6  C   LIG    1       -3.207  -1.065   0.103  0.00  0.00    +0.050 A 
ENDROOT
BRANCH   1   7
ATOM      7  O   LIG    1       -5.569  -1.350   0.156  0.00  0.00    -0.412 OA
BRANCH   7  10
ATOM      8  N   LIG    1       -6.986  -2.659   1.467  0.00  0.00    -0.281 N 
ATOM      9  H   LIG    1       -7.650  -2.806   0.603  0.00  0.00    +0.152 HD
ATOM     10  C   LIG    1       -5.870  -1.914   1.341  0.00  0.00    +0.406 C 
ATOM     11  O   LIG    1       -5.136  -1.752   2.296  0.00  0.00    -0.226 OA
BRANCH   8  12
ATOM     12  C   LIG    1       -7.314  -3.273   2.756  0.00  0.00    +0.107 C 
BRANCH  12  13
ATOM     13  C   LIG    1       -8.621  -4.059   2.629  0.00  0.00    +0.019 C 
BRANCH  13  15
ATOM     14  C   LIG    1      -10.270  -5.486   3.848  0.00  0.00    +0.004 C 
ATOM     15  C   LIG    1       -8.964  -4.700   3.975  0.00  0.00    -0.002 C 
ENDBRANCH  13  15
ENDBRANCH  12  13
ENDBRANCH   8  12
ENDBRANCH   7  10
ENDBRANCH   1   7
BRANCH   4  16
ATOM     16  O   LIG    1       -1.199   1.968   0.017  0.00  0.00    -0.437 OA
BRANCH  16  17
ATOM     17  C   LIG    1       -0.833   2.588   1.167  0.00  0.00    +0.239 A 
ATOM     18  C   LIG    1        0.313   3.375   1.190  0.00  0.00    +0.104 A 
ATOM     19 CL   LIG    1        1.271   3.576  -0.244  0.00  0.00    -0.078 Cl
ATOM     20  C   LIG    1        0.679   3.998   2.371  0.00  0.00    +0.047 A 
ATOM     21  C   LIG    1       -0.118   3.809   3.493  0.00  0.00    +0.061 A 
ATOM     22 CL   LIG    1        0.295   4.566   5.000  0.00  0.00    -0.082 Cl
ATOM     23  C   LIG    1       -1.242   3.012   3.397  0.00  0.00    +0.134 A 
ATOM     24  N   LIG    1       -1.565   2.432   2.257  0.00  0.00    -0.218 NA
ENDBRANCH  16  17
ENDBRANCH   4  16
TORSDOF 7
