REMARK  Name = ZINC36242081
REMARK                            x       y       z     vdW  Elec       q    Type
REMARK                         _______ _______ _______ _____ _____    ______ ____
ROOT
ATOM      1  C   LIG    1       -0.017   1.374   0.010  0.00  0.00    +0.001 A 
ATOM      2  C   LIG    1        1.171   2.086   0.002  0.00  0.00    +0.005 A 
ATOM      3  C   LIG    1        2.385   1.422  -0.013  0.00  0.00    -0.027 A 
ATOM      4  C   LIG    1        2.420   0.044  -0.021  0.00  0.00    +0.013 A 
ATOM      5  C   LIG    1        1.225  -0.683  -0.013  0.00  0.00    -0.025 A 
ATOM      6  C   LIG    1        0.002  -0.004   0.002  0.00  0.00    +0.008 A 
ENDROOT
BRANCH   5   7
ATOM      7  C   LIG    1        1.254  -2.154  -0.022  0.00  0.00    +0.015 C 
ATOM      8  C   LIG    1        0.098  -2.853  -0.015  0.00  0.00    +0.092 C 
BRANCH   8   9
ATOM      9  C   LIG    1        0.126  -4.268  -0.023  0.00  0.00    +0.330 C 
ATOM     10  O   LIG    1        1.198  -4.860  -0.037  0.00  0.00    -0.246 OA
BRANCH   9  11
ATOM     11  O   LIG    1       -0.923  -4.902  -0.016  0.00  0.00    -0.478 OA
ATOM     12  H   LIG    1       -1.743  -4.449  -0.006  0.00  0.00    +0.295 HD
ENDBRANCH   9  11
ENDBRANCH   8   9
ENDBRANCH   5   7
BRANCH   3  13
ATOM     13  C   LIG    1        3.671   2.207  -0.022  0.00  0.00    +0.157 C 
BRANCH  13  14
ATOM     14  N   LIG    1        4.101   2.455   1.357  0.00  0.00    -0.332 N 
ATOM     15  C   LIG    1        3.761   3.530   2.133  0.00  0.00    +0.107 A 
ATOM     16  C   LIG    1        4.370   3.360   3.322  0.00  0.00    +0.130 A 
ATOM     17  N   LIG    1        5.063   2.212   3.273  0.00  0.00    -0.244 NA
ATOM     18  C   LIG    1        4.902   1.662   2.101  0.00  0.00    +0.199 A 
ENDBRANCH  13  14
ENDBRANCH   3  13
TORSDOF 5
