REMARK  Name = ZINC27633025
REMARK                            x       y       z     vdW  Elec       q    Type
REMARK                         _______ _______ _______ _____ _____    ______ ____
ROOT
ATOM      1  C   LIG    1        2.405   0.030  -0.021  0.00  0.00    +0.046 A 
ATOM      2  C   LIG    1        1.227  -0.682  -0.013  0.00  0.00    +0.014 A 
ATOM      3  C   LIG    1        0.002  -0.004   0.002  0.00  0.00    +0.011 A 
ATOM      4  C   LIG    1       -0.017   1.399   0.010  0.00  0.00    +0.134 A 
ATOM      5  F   LIG    1       -1.195   2.060   0.019  0.00  0.00    -0.205 F 
ATOM      6  C   LIG    1        1.170   2.101   0.002  0.00  0.00    +0.084 A 
ATOM      7  C   LIG    1        2.382   1.421  -0.013  0.00  0.00    +0.120 A 
ENDROOT
BRANCH   3   8
ATOM      8  C   LIG    1       -1.258  -0.758   0.009  0.00  0.00    +0.018 C 
ATOM      9  C   LIG    1       -1.236  -2.110   0.002  0.00  0.00    +0.092 C 
BRANCH   9  10
ATOM     10  C   LIG    1       -2.451  -2.838   0.009  0.00  0.00    +0.330 C 
ATOM     11  O   LIG    1       -3.515  -2.247   0.022  0.00  0.00    -0.246 OA
BRANCH  10  12
ATOM     12  O   LIG    1       -2.430  -4.187   0.002  0.00  0.00    -0.478 OA
ATOM     13  H   LIG    1       -1.611  -4.643  -0.008  0.00  0.00    +0.295 HD
ENDBRANCH  10  12
ENDBRANCH   9  10
ENDBRANCH   3   8
BRANCH   7  14
ATOM     14  O   LIG    1        3.547   2.116  -0.020  0.00  0.00    -0.507 OA
ATOM     15  H   LIG    1        3.532   3.216  -0.014  0.00  0.00    +0.292 HD
ENDBRANCH   7  14
TORSDOF 4
