REMARK  Name = ZINC40379072
REMARK                            x       y       z     vdW  Elec       q    Type
REMARK                         _______ _______ _______ _____ _____    ______ ____
ROOT
ATOM      1  C   LIG    1       -0.019   1.526   0.010  0.00  0.00    +0.060 C 
ATOM      2  C   LIG    1        0.002  -0.004   0.002  0.00  0.00    +0.192 C 
ENDROOT
BRANCH   2   3
ATOM      3  C   LIG    1        0.731  -0.503   1.223  0.00  0.00    -0.006 A 
ATOM      4  C   LIG    1        0.081  -0.558   2.442  0.00  0.00    +0.007 A 
ATOM      5  C   LIG    1        0.749  -1.016   3.562  0.00  0.00    +0.000 A 
ATOM      6  C   LIG    1        2.068  -1.420   3.463  0.00  0.00    +0.000 A 
ATOM      7  C   LIG    1        2.718  -1.365   2.244  0.00  0.00    +0.000 A 
ATOM      8  C   LIG    1        2.048  -0.911   1.123  0.00  0.00    +0.007 A 
ENDBRANCH   2   3
BRANCH   2   9
ATOM      9  N   LIG    1       -1.372  -0.511   0.012  0.00  0.00    -0.235 N 
ATOM     10  H   LIG    1       -1.794  -0.752   0.852  0.00  0.00    +0.291 HD
BRANCH   9  11
ATOM     11  C   LIG    1       -2.062  -0.645  -1.164  0.00  0.00    +0.233 C 
ATOM     12  C   LIG    1       -3.476  -1.167  -1.153  0.00  0.00    +0.139 C 
ATOM     13  N   LIG    1       -1.500  -0.324  -2.283  0.00  0.00    -0.293 N 
ATOM     14  H   LIG    1       -1.988  -0.418  -3.116  0.00  0.00    +0.301 HD
ATOM     15  H   LIG    1       -0.590   0.012  -2.290  0.00  0.00    +0.301 HD
ENDBRANCH   9  11
ENDBRANCH   2   9
TORSDOF 3
