REMARK  Name = ZINC35212827
REMARK                            x       y       z     vdW  Elec       q    Type
REMARK                         _______ _______ _______ _____ _____    ______ ____
ROOT
ATOM      1  C   LIG    1        4.897  -2.640  -0.072  0.00  0.00    +0.261 C 
ATOM      2  N   LIG    1        5.143  -3.925   0.251  0.00  0.00    -0.282 N 
ATOM      3  H   LIG    1        4.513  -4.415   0.803  0.00  0.00    +0.155 HD
ATOM      4  O   LIG    1        5.723  -2.002  -0.691  0.00  0.00    -0.271 OA
ENDROOT
BRANCH   1  12
ATOM      5  C   LIG    1       -0.013   1.383   0.032  0.00  0.00    +0.004 A 
ATOM      6  C   LIG    1        1.174   2.091   0.015  0.00  0.00    +0.004 A 
ATOM      7  C   LIG    1        2.382   1.420  -0.008  0.00  0.00    +0.049 A 
ATOM      8  C   LIG    1        2.406   0.033  -0.014  0.00  0.00    +0.163 A 
ATOM      9  C   LIG    1        1.213  -0.679   0.006  0.00  0.00    +0.162 A 
ATOM     10  O   LIG    1        1.215  -2.040   0.009  0.00  0.00    -0.484 OA
ATOM     11  C   LIG    1        2.430  -2.683  -0.389  0.00  0.00    +0.283 C 
ATOM     12  C   LIG    1        3.597  -1.996   0.334  0.00  0.00    +0.296 C 
ATOM     13  O   LIG    1        3.604  -0.614  -0.041  0.00  0.00    -0.473 OA
ATOM     14  C   LIG    1        0.005   0.001   0.028  0.00  0.00    +0.049 A 
ENDBRANCH   1  12
BRANCH   2  15
ATOM     15  C   LIG    1        6.306  -4.552  -0.208  0.00  0.00    +0.034 A 
ATOM     16  C   LIG    1        7.486  -3.828  -0.323  0.00  0.00    +0.024 A 
ATOM     17  C   LIG    1        8.633  -4.444  -0.775  0.00  0.00    +0.010 A 
ATOM     18  C   LIG    1        8.609  -5.794  -1.118  0.00  0.00    -0.015 A 
ATOM     19  C   LIG    1        7.425  -6.519  -1.003  0.00  0.00    +0.010 A 
ATOM     20  C   LIG    1        6.281  -5.900  -0.544  0.00  0.00    +0.024 A 
BRANCH  18  21
ATOM     21  C   LIG    1        9.843  -6.460  -1.607  0.00  0.00    +0.019 A 
ATOM     22  C   LIG    1        9.960  -7.767  -1.980  0.00  0.00    +0.113 A 
ATOM     23  N   LIG    1       11.239  -7.970  -2.358  0.00  0.00    -0.284 N 
ATOM     24  N   LIG    1       11.934  -6.763  -2.217  0.00  0.00    -0.182 NA
ATOM     25  H   LIG    1       11.613  -8.807  -2.674  0.00  0.00    +0.188 HD
ATOM     26  C   LIG    1       11.104  -5.856  -1.774  0.00  0.00    +0.142 A 
ENDBRANCH  18  21
ENDBRANCH   2  15
TORSDOF 3
