REMARK  Name = ZINC22309331
REMARK                            x       y       z     vdW  Elec       q    Type
REMARK                         _______ _______ _______ _____ _____    ______ ____
ROOT
ATOM      1  C   LIG    1       -0.709   1.407   0.095  0.00  0.00    +0.039 C 
ATOM      2  C   LIG    1       -0.218  -0.016   0.023  0.00  0.00    -0.066 C 
ATOM      3  C   LIG    1        0.109  -0.652   1.121  0.00  0.00    -0.033 C 
ENDROOT
BRANCH   2   4
ATOM      4  C   LIG    1       -0.104  -0.708  -1.310  0.00  0.00    +0.157 C 
BRANCH   4   5
ATOM      5  P   LIG    1       -1.717  -1.426  -1.763  0.00  0.00    +0.332 P 
ATOM      6  O   LIG    1       -2.204  -2.354  -0.627  0.00  0.00    -0.259 OA
BRANCH   5   7
ATOM      7  O   LIG    1       -1.564  -2.276  -3.122  0.00  0.00    -0.324 OA
ATOM      8  H   LIG    1       -2.386  -2.688  -3.423  0.00  0.00    +0.220 HD
ENDBRANCH   5   7
BRANCH   5   9
ATOM      9  O   LIG    1       -2.744  -0.292  -1.977  0.00  0.00    -0.324 OA
ATOM     10  H   LIG    1       -2.836   0.220  -1.159  0.00  0.00    +0.220 HD
ENDBRANCH   5   9
ENDBRANCH   4   5
ENDBRANCH   2   4
BRANCH   3  11
ATOM     11  CA  LIG    1        0.123   0.078   2.439  0.00  0.00    +0.059 C 
BRANCH  11  12
ATOM     12  N   LIG    1       -0.922  -0.469   3.314  0.00  0.00    +0.389 N 
ATOM     13  H1  LIG    1       -1.828  -0.291   2.908  0.00  0.00    -0.088 HD
ATOM     14  H2  LIG    1       -0.867  -0.030   4.220  0.00  0.00    -0.088 HD
ATOM     15  H3  LIG    1       -0.789  -1.465   3.414  0.00  0.00    -0.088 HD
ENDBRANCH  11  12
BRANCH  11  16
ATOM     16  C   LIG    1        1.469  -0.095   3.095  0.00  0.00    +0.294 C 
ATOM     17  O   LIG    1        2.451   0.452   2.625  0.00  0.00    -0.253 OA
BRANCH  16  18
ATOM     18  OXT LIG    1        1.575  -0.782   4.097  0.00  0.00    -0.482 OA
ATOM     19  HXT LIG    1        0.820  -1.203   4.458  0.00  0.00    +0.295 HD
ENDBRANCH  16  18
ENDBRANCH  11  16
ENDBRANCH   3  11
TORSDOF 8
