REMARK  Name = ZINC14951244
REMARK                            x       y       z     vdW  Elec       q    Type
REMARK                         _______ _______ _______ _____ _____    ______ ____
ROOT
ATOM      1  C   LIG    1        3.608  -2.181  -0.785  0.00  0.00    +0.393 C 
ATOM      2  N   LIG    1        4.685  -2.888  -0.976  0.00  0.00    -0.129 NA
ATOM      3  H   LIG    1        5.512  -2.451  -1.234  0.00  0.00    +0.306 HD
ENDROOT
BRANCH   1   4
ATOM      4  N   LIG    1        3.614  -0.831  -1.050  0.00  0.00    -0.243 N 
ATOM      5  H   LIG    1        4.388  -0.423  -1.470  0.00  0.00    +0.265 HD
BRANCH   4   9
ATOM      6  C   LIG    1        0.313   1.505  -0.051  0.00  0.00    +0.000 A 
ATOM      7  C   LIG    1        0.697   0.464   0.774  0.00  0.00    +0.003 A 
ATOM      8  C   LIG    1        1.791  -0.312   0.446  0.00  0.00    +0.042 A 
ATOM      9  C   LIG    1        2.506  -0.047  -0.715  0.00  0.00    +0.100 A 
ATOM     10  C   LIG    1        2.117   0.999  -1.542  0.00  0.00    +0.042 A 
ATOM     11  C   LIG    1        1.022   1.772  -1.208  0.00  0.00    +0.003 A 
ENDBRANCH   4   9
ENDBRANCH   1   4
BRANCH   1  12
ATOM     12  N   LIG    1        2.460  -2.787  -0.317  0.00  0.00    -0.186 N 
ATOM     13  H   LIG    1        1.635  -2.280  -0.254  0.00  0.00    +0.271 HD
BRANCH  12  14
ATOM     14  C   LIG    1        2.485  -4.113   0.062  0.00  0.00    +0.385 C 
ATOM     15  N   LIG    1        1.373  -4.732   0.337  0.00  0.00    -0.129 NA
ATOM     16  H   LIG    1        0.522  -4.285   0.205  0.00  0.00    +0.306 HD
BRANCH  14  17
ATOM     17  N   LIG    1        3.683  -4.780   0.150  0.00  0.00    -0.289 N 
ATOM     18  H   LIG    1        3.707  -5.746   0.072  0.00  0.00    +0.255 HD
ATOM     19  H   LIG    1        4.505  -4.284   0.290  0.00  0.00    +0.255 HD
ENDBRANCH  14  17
ENDBRANCH  12  14
ENDBRANCH   1  12
TORSDOF 5
