REMARK  Name = ZINC19095802
REMARK                            x       y       z     vdW  Elec       q    Type
REMARK                         _______ _______ _______ _____ _____    ______ ____
ROOT
ATOM      1  C   LIG    1       -0.202  -4.966   0.460  0.00  0.00    +0.005 A 
ATOM      2  C   LIG    1       -1.037  -6.018   0.088  0.00  0.00    +0.038 A 
ATOM      3  C   LIG    1       -1.543  -6.865   1.070  0.00  0.00    +0.074 A 
ATOM      4  N   LIG    1       -1.252  -6.679   2.353  0.00  0.00    -0.231 NA
ATOM      5  C   LIG    1       -0.470  -5.694   2.758  0.00  0.00    +0.135 A 
ATOM      6  C   LIG    1        0.088  -4.796   1.832  0.00  0.00    +0.099 A 
ENDROOT
BRANCH   1   9
ATOM      7  C   LIG    1        0.777  -1.811  -1.336  0.00  0.00    +0.162 A 
ATOM      8  C   LIG    1        0.254  -2.666  -0.383  0.00  0.00    +0.058 A 
ATOM      9  C   LIG    1        0.360  -4.046  -0.555  0.00  0.00    -0.013 A 
ATOM     10  C   LIG    1        1.002  -4.559  -1.683  0.00  0.00    +0.012 A 
ATOM     11  C   LIG    1        1.527  -3.701  -2.628  0.00  0.00    +0.050 A 
ATOM     12  C   LIG    1        1.417  -2.329  -2.460  0.00  0.00    +0.158 A 
BRANCH  12  13
ATOM     13  O   LIG    1        1.935  -1.488  -3.393  0.00  0.00    -0.503 OA
ATOM     14  H   LIG    1        2.854  -1.236  -3.229  0.00  0.00    +0.292 HD
ENDBRANCH  12  13
BRANCH   7  15
ATOM     15  O   LIG    1        0.671  -0.465  -1.174  0.00  0.00    -0.489 OA
BRANCH  15  17
ATOM     16  C   LIG    1       -0.019   1.526   0.010  0.00  0.00    +0.048 C 
ATOM     17  C   LIG    1        0.002  -0.004   0.002  0.00  0.00    +0.226 C 
ENDBRANCH  15  17
ENDBRANCH   7  15
ENDBRANCH   1   9
BRANCH   3  18
ATOM     18  C   LIG    1       -2.426  -7.988   0.678  0.00  0.00    +0.001 A 
ATOM     19  C   LIG    1       -2.745  -8.191  -0.665  0.00  0.00    +0.013 A 
ATOM     20  C   LIG    1       -3.562  -9.241  -1.027  0.00  0.00    +0.046 A 
ATOM     21  C   LIG    1       -4.077 -10.089  -0.055  0.00  0.00    +0.117 A 
ATOM     22  C   LIG    1       -3.767  -9.886   1.284  0.00  0.00    +0.046 A 
ATOM     23  C   LIG    1       -2.946  -8.841   1.652  0.00  0.00    +0.013 A 
BRANCH  21  24
ATOM     24  O   LIG    1       -4.886 -11.118  -0.414  0.00  0.00    -0.507 OA
ATOM     25  H   LIG    1       -5.826 -10.891  -0.434  0.00  0.00    +0.292 HD
ENDBRANCH  21  24
ENDBRANCH   3  18
BRANCH   5  26
ATOM     26  N   LIG    1       -0.198  -5.545   4.107  0.00  0.00    -0.342 N 
ATOM     27  H   LIG    1       -0.580  -6.162   4.750  0.00  0.00    +0.144 HD
ATOM     28  H   LIG    1        0.376  -4.824   4.409  0.00  0.00    +0.144 HD
ENDBRANCH   5  26
BRANCH   6  29
ATOM     29  C   LIG    1        0.934  -3.728   2.271  0.00  0.00    +0.103 C 
ATOM     30  N   LIG    1        1.606  -2.881   2.619  0.00  0.00    -0.191 NA
ENDBRANCH   6  29
TORSDOF 8
