REMARK  Name = ZINC25968090
REMARK                            x       y       z     vdW  Elec       q    Type
REMARK                         _______ _______ _______ _____ _____    ______ ____
ROOT
ATOM      1  C   LIG    1       -0.765   1.599  -1.222  0.00  0.00    +0.008 C 
ATOM      2  C   LIG    1       -0.013   1.086   0.008  0.00  0.00    +0.001 C 
ATOM      3  C   LIG    1       -0.702   1.587   1.284  0.00  0.00    +0.052 C 
ATOM      4  C   LIG    1       -0.017   0.941   2.490  0.00  0.00    +0.170 C 
ATOM      5  C   LIG    1       -0.367  -0.548   2.530  0.00  0.00    +0.057 C 
ATOM      6  N   LIG    1        1.429   1.093   2.397  0.00  0.00    -0.277 N 
ATOM      7  H   LIG    1        1.975   0.939   3.340  0.00  0.00    +0.304 HD
ATOM      8  C   LIG    1        2.068   1.381   1.330  0.00  0.00    +0.237 C 
ATOM      9  C   LIG    1        1.421   1.622  -0.003  0.00  0.00    +0.127 C 
ENDROOT
BRANCH   8  10
ATOM     10  N   LIG    1        3.432   1.476   1.407  0.00  0.00    -0.254 N 
ATOM     11  H   LIG    1        3.942   1.306   2.367  0.00  0.00    +0.288 HD
ATOM     12  H   LIG    1        4.018   1.722   0.509  0.00  0.00    +0.288 HD
ENDBRANCH   8  10
TORSDOF 1
