REMARK  Name = ZINC13762434
REMARK                            x       y       z     vdW  Elec       q    Type
REMARK                         _______ _______ _______ _____ _____    ______ ____
ROOT
ATOM      1  N   LIG    1        1.365   1.583   0.012  0.00  0.00    -0.298 N 
ATOM      2  H   LIG    1        1.589   2.387   0.506  0.00  0.00    +0.150 HD
ATOM      3  C   LIG    1        2.318   0.933  -0.685  0.00  0.00    +0.245 C 
ATOM      4  O   LIG    1        2.038  -0.075  -1.304  0.00  0.00    -0.270 OA
ENDROOT
BRANCH   3   5
ATOM      5  C   LIG    1        3.706   1.445  -0.695  0.00  0.00    +0.048 A 
ATOM      6  C   LIG    1        4.026   2.654  -0.098  0.00  0.00    +0.042 A 
ATOM      7  C   LIG    1        5.354   3.107  -0.124  0.00  0.00    +0.072 A 
ATOM      8  N   LIG    1        6.310   2.414  -0.711  0.00  0.00    -0.247 NA
ATOM      9  C   LIG    1        6.065   1.246  -1.308  0.00  0.00    +0.072 A 
ATOM     10  C   LIG    1        7.099   0.523  -1.931  0.00  0.00    +0.028 A 
ATOM     11  C   LIG    1        6.824  -0.666  -2.533  0.00  0.00    +0.002 A 
ATOM     12  C   LIG    1        5.530  -1.183  -2.544  0.00  0.00    +0.001 A 
ATOM     13  C   LIG    1        4.504  -0.510  -1.952  0.00  0.00    +0.011 A 
ATOM     14  C   LIG    1        4.750   0.716  -1.322  0.00  0.00    +0.013 A 
BRANCH   7  15
ATOM     15  C   LIG    1        5.691   4.399   0.522  0.00  0.00    +0.000 A 
ATOM     16  C   LIG    1        4.695   5.150   1.144  0.00  0.00    +0.010 A 
ATOM     17  C   LIG    1        5.014   6.349   1.747  0.00  0.00    +0.001 A 
ATOM     18  C   LIG    1        6.318   6.812   1.726  0.00  0.00    +0.000 A 
ATOM     19  C   LIG    1        7.309   6.073   1.106  0.00  0.00    +0.001 A 
ATOM     20  C   LIG    1        7.003   4.870   0.504  0.00  0.00    +0.010 A 
ENDBRANCH   7  15
ENDBRANCH   3   5
BRANCH   1  21
ATOM     21  C   LIG    1       -0.009   1.076   0.022  0.00  0.00    +0.186 C 
BRANCH  21  22
ATOM     22  C   LIG    1       -0.744   1.593  -1.188  0.00  0.00    +0.328 C 
ATOM     23  O   LIG    1       -0.178   2.311  -1.978  0.00  0.00    -0.249 OA
BRANCH  22  25
ATOM     24  C   LIG    1       -2.673   1.789  -2.574  0.00  0.00    +0.280 C 
ATOM     25  O   LIG    1       -2.028   1.255  -1.388  0.00  0.00    -0.467 OA
ENDBRANCH  22  25
ENDBRANCH  21  22
BRANCH  21  26
ATOM     26  C   LIG    1       -0.719   1.552   1.291  0.00  0.00    +0.069 C 
BRANCH  26  27
ATOM     27  C   LIG    1       -0.057   0.936   2.497  0.00  0.00    -0.045 A 
ATOM     28  C   LIG    1       -0.504  -0.277   2.987  0.00  0.00    +0.004 A 
ATOM     29  C   LIG    1        0.106  -0.844   4.090  0.00  0.00    +0.000 A 
ATOM     30  C   LIG    1        1.155  -0.193   4.710  0.00  0.00    +0.000 A 
ATOM     31  C   LIG    1        1.599   1.023   4.224  0.00  0.00    +0.000 A 
ATOM     32  C   LIG    1        0.992   1.587   3.118  0.00  0.00    +0.004 A 
ENDBRANCH  26  27
ENDBRANCH  21  26
ENDBRANCH   1  21
TORSDOF 7
