REMARK  Name = ZINC35801098
REMARK                            x       y       z     vdW  Elec       q    Type
REMARK                         _______ _______ _______ _____ _____    ______ ____
ROOT
ATOM      1  C   LIG    1        6.600  -2.885   3.787  0.00  0.00    -0.046 C 
ENDROOT
BRANCH   1   2
ATOM      2  N   LIG    1        5.482  -2.241   4.489  0.00  0.00    +0.383 N 
ATOM      3  H   LIG    1        5.404  -2.625   5.419  0.00  0.00    -0.085 HD
ATOM      4  H   LIG    1        5.648  -1.248   4.548  0.00  0.00    -0.085 HD
BRANCH   2  10
ATOM      5  C   LIG    1        0.731  -0.503   1.223  0.00  0.00    -0.044 A 
ATOM      6  C   LIG    1        2.076  -0.808   1.149  0.00  0.00    +0.007 A 
ATOM      7  C   LIG    1        2.750  -1.267   2.268  0.00  0.00    -0.045 A 
ATOM      8  C   LIG    1        2.073  -1.420   3.464  0.00  0.00    -0.045 A 
ATOM      9  C   LIG    1        3.021  -1.931   4.527  0.00  0.00    +0.020 C 
ATOM     10  C   LIG    1        4.235  -2.486   3.752  0.00  0.00    -0.063 C 
ATOM     11  C   LIG    1        0.724  -1.114   3.536  0.00  0.00    +0.007 A 
ATOM     12  C   LIG    1        4.199  -1.664   2.446  0.00  0.00    +0.020 C 
ATOM     13  C   LIG    1        0.055  -0.651   2.420  0.00  0.00    -0.044 A 
BRANCH   5  15
ATOM     14  C   LIG    1       -0.019   1.526   0.010  0.00  0.00    +0.009 C 
ATOM     15  C   LIG    1        0.002  -0.004   0.002  0.00  0.00    +0.032 C 
ENDBRANCH   5  15
BRANCH  13  16
ATOM     16  C   LIG    1       -1.411  -0.314   2.505  0.00  0.00    +0.032 C 
ATOM     17  C   LIG    1       -2.239  -1.521   2.057  0.00  0.00    +0.009 C 
ENDBRANCH  13  16
ENDBRANCH   2  10
ENDBRANCH   1   2
BRANCH   1  18
ATOM     18  C   LIG    1        7.899  -2.630   4.555  0.00  0.00    +0.128 C 
BRANCH  18  19
ATOM     19  C   LIG    1        9.046  -3.289   3.835  0.00  0.00    -0.012 A 
ATOM     20  C   LIG    1        9.811  -2.570   2.961  0.00  0.00    +0.010 A 
ATOM     21  C   LIG    1       10.871  -3.165   2.292  0.00  0.00    +0.048 A 
ATOM     22  C   LIG    1       11.172  -4.499   2.496  0.00  0.00    +0.141 A 
ATOM     23  C   LIG    1       10.404  -5.252   3.385  0.00  0.00    +0.091 A 
ATOM     24  N   LIG    1       10.680  -6.585   3.609  0.00  0.00    -0.319 N 
ATOM     25  H   LIG    1       11.420  -7.005   3.143  0.00  0.00    +0.169 HD
ATOM     26  C   LIG    1        9.949  -7.306   4.477  0.00  0.00    +0.249 A 
ATOM     27  O   LIG    1       10.225  -8.480   4.656  0.00  0.00    -0.268 OA
ATOM     28  C   LIG    1        8.862  -6.740   5.178  0.00  0.00    +0.071 A 
ATOM     29  C   LIG    1        8.537  -5.436   4.997  0.00  0.00    +0.016 A 
ATOM     30  C   LIG    1        9.335  -4.639   4.063  0.00  0.00    +0.008 A 
BRANCH  22  31
ATOM     31  O   LIG    1       12.212  -5.074   1.835  0.00  0.00    -0.505 OA
ATOM     32  H   LIG    1       12.726  -4.566   1.239  0.00  0.00    +0.292 HD
ENDBRANCH  22  31
ENDBRANCH  18  19
BRANCH  18  33
ATOM     33  O   LIG    1        8.135  -1.222   4.638  0.00  0.00    -0.389 OA
ATOM     34  H   LIG    1        8.221  -0.787   3.779  0.00  0.00    +0.210 HD
ENDBRANCH  18  33
ENDBRANCH   1  18
TORSDOF 8
