REMARK  Name = ZINC16957596
REMARK                            x       y       z     vdW  Elec       q    Type
REMARK                         _______ _______ _______ _____ _____    ______ ____
ROOT
ATOM      1  N   LIG    1        3.791   3.523  -0.021  0.00  0.00    -0.207 N 
ATOM      2  C   LIG    1        4.017   2.557   0.922  0.00  0.00    +0.077 A 
ATOM      3  C   LIG    1        5.126   1.862   0.539  0.00  0.00    +0.058 A 
ATOM      4  C   LIG    1        5.591   2.423  -0.664  0.00  0.00    +0.094 A 
ATOM      5  N   LIG    1        4.793   3.417  -0.994  0.00  0.00    -0.164 NA
ENDROOT
BRANCH   1  10
ATOM      6  C   LIG    1        1.833   8.008  -0.182  0.00  0.00    +0.067 C 
ATOM      7  C   LIG    1        1.745   6.507  -0.080  0.00  0.00    +0.059 A 
ATOM      8  C   LIG    1        0.518   5.865   0.041  0.00  0.00    +0.083 A 
ATOM      9  S   LIG    1        1.047   4.159   0.108  0.00  0.00    -0.044 S 
ATOM     10  C   LIG    1        2.755   4.445  -0.013  0.00  0.00    +0.195 A 
ATOM     11  N   LIG    1        2.820   5.764  -0.102  0.00  0.00    -0.226 NA
BRANCH   8  12
ATOM     12  C   LIG    1       -0.833   6.429   0.092  0.00  0.00    +0.194 C 
ATOM     13  O   LIG    1       -0.992   7.636   0.025  0.00  0.00    -0.287 OA
BRANCH  12  14
ATOM     14  C   LIG    1       -1.992   5.543   0.224  0.00  0.00    +0.052 C 
ATOM     15  C   LIG    1       -3.236   6.063   0.272  0.00  0.00    +0.012 C 
BRANCH  15  16
ATOM     16  C   LIG    1       -4.401   5.173   0.405  0.00  0.00    -0.025 A 
ATOM     17  C   LIG    1       -4.222   3.787   0.476  0.00  0.00    +0.008 A 
ATOM     18  C   LIG    1       -5.318   2.961   0.606  0.00  0.00    +0.001 A 
ATOM     19  C   LIG    1       -6.593   3.498   0.654  0.00  0.00    +0.000 A 
ATOM     20  C   LIG    1       -6.778   4.867   0.578  0.00  0.00    +0.001 A 
ATOM     21  C   LIG    1       -5.692   5.708   0.454  0.00  0.00    +0.008 A 
ENDBRANCH  15  16
ENDBRANCH  12  14
ENDBRANCH   8  12
ENDBRANCH   1  10
BRANCH   2  22
ATOM     22  C   LIG    1        3.202   2.307   2.131  0.00  0.00    +0.001 A 
ATOM     23  C   LIG    1        2.401   3.321   2.657  0.00  0.00    +0.010 A 
ATOM     24  C   LIG    1        1.643   3.082   3.785  0.00  0.00    +0.001 A 
ATOM     25  C   LIG    1        1.678   1.841   4.395  0.00  0.00    +0.000 A 
ATOM     26  C   LIG    1        2.471   0.832   3.879  0.00  0.00    +0.001 A 
ATOM     27  C   LIG    1        3.233   1.058   2.751  0.00  0.00    +0.010 A 
ENDBRANCH   2  22
BRANCH   4  28
ATOM     28  C   LIG    1        6.779   1.972  -1.430  0.00  0.00    +0.002 A 
ATOM     29  C   LIG    1        7.547   0.906  -0.966  0.00  0.00    +0.010 A 
ATOM     30  C   LIG    1        8.648   0.487  -1.685  0.00  0.00    +0.001 A 
ATOM     31  C   LIG    1        8.996   1.131  -2.859  0.00  0.00    +0.000 A 
ATOM     32  C   LIG    1        8.240   2.193  -3.322  0.00  0.00    +0.001 A 
ATOM     33  C   LIG    1        7.134   2.616  -2.613  0.00  0.00    +0.010 A 
ENDBRANCH   4  28
TORSDOF 6
