REMARK  Name = ZINC29339315
REMARK                            x       y       z     vdW  Elec       q    Type
REMARK                         _______ _______ _______ _____ _____    ______ ____
ROOT
ATOM      1  C   LIG    1        1.185   1.790   0.000  0.00  0.00    -0.018 A 
ATOM      2  C   LIG    1       -0.013   1.076   0.008  0.00  0.00    +0.012 A 
ATOM      3  C   LIG    1       -1.215   1.750   0.017  0.00  0.00    +0.046 A 
ATOM      4  C   LIG    1       -1.235   3.138   0.031  0.00  0.00    +0.121 A 
ATOM      5  C   LIG    1       -0.044   3.852   0.023  0.00  0.00    +0.046 A 
ATOM      6  C   LIG    1        1.162   3.185   0.008  0.00  0.00    +0.012 A 
ENDROOT
BRANCH   1   9
ATOM      7  C   LIG    1        4.880   1.118  -0.039  0.00  0.00    +0.019 A 
ATOM      8  C   LIG    1        3.677   1.786  -0.024  0.00  0.00    +0.010 A 
ATOM      9  C   LIG    1        2.480   1.069  -0.016  0.00  0.00    -0.018 A 
ATOM     10  C   LIG    1        2.501  -0.326  -0.019  0.00  0.00    +0.010 A 
ATOM     11  C   LIG    1        3.702  -0.997  -0.040  0.00  0.00    +0.019 A 
ATOM     12  C   LIG    1        4.902  -0.280  -0.047  0.00  0.00    +0.052 A 
BRANCH  12  13
ATOM     13  C   LIG    1        6.153  -0.977  -0.063  0.00  0.00    +0.099 C 
ATOM     14  N   LIG    1        7.146  -1.529  -0.075  0.00  0.00    -0.191 NA
ENDBRANCH  12  13
ENDBRANCH   1   9
BRANCH   4  15
ATOM     15  O   LIG    1       -2.422   3.799   0.046  0.00  0.00    -0.491 OA
BRANCH  15  16
ATOM     16  C   LIG    1       -3.608   3.002   0.054  0.00  0.00    +0.240 C 
BRANCH  16  17
ATOM     17  C   LIG    1       -4.835   3.915   0.070  0.00  0.00    +0.161 C 
BRANCH  17  18
ATOM     18  C   LIG    1       -6.087   3.075   0.078  0.00  0.00    +0.308 C 
ATOM     19  O   LIG    1       -6.005   1.870   0.071  0.00  0.00    -0.251 OA
BRANCH  18  20
ATOM     20  O   LIG    1       -7.292   3.666   0.093  0.00  0.00    -0.481 OA
ATOM     21  H   LIG    1       -7.355   4.601   0.098  0.00  0.00    +0.295 HD
ENDBRANCH  18  20
ENDBRANCH  17  18
ENDBRANCH  16  17
ENDBRANCH  15  16
ENDBRANCH   4  15
TORSDOF 7
