REMARK  Name = ZINC22938413
REMARK                            x       y       z     vdW  Elec       q    Type
REMARK                         _______ _______ _______ _____ _____    ______ ____
ROOT
ATOM      1  C   LIG    1        2.499  -4.673  -0.932  0.00  0.00    -0.096 C 
ATOM      2  N   LIG    1        1.234  -4.159  -1.474  0.00  0.00    +0.379 N 
ATOM      3  H   LIG    1        0.420  -4.510  -0.823  0.00  0.00    -0.082 HD
ENDROOT
BRANCH   2   4
ATOM      4  C   LIG    1        0.989  -4.681  -2.824  0.00  0.00    -0.064 C 
BRANCH   4   5
ATOM      5  C   LIG    1        0.767  -6.193  -2.754  0.00  0.00    +0.066 C 
BRANCH   5   6
ATOM      6  N   LIG    1        0.521  -6.715  -4.105  0.00  0.00    -0.304 NA
ATOM      7  C   LIG    1        1.594  -6.293  -5.042  0.00  0.00    +0.084 C 
ATOM      8  C   LIG    1        1.477  -7.316  -6.199  0.00  0.00    +0.017 C 
ATOM      9  C   LIG    1        1.133  -8.632  -5.464  0.00  0.00    +0.017 C 
ATOM     10  C   LIG    1        0.539  -8.194  -4.112  0.00  0.00    +0.084 C 
ENDBRANCH   5   6
ENDBRANCH   4   5
ENDBRANCH   2   4
BRANCH   2  11
ATOM     11  C   LIG    1        1.217  -2.690  -1.466  0.00  0.00    -0.074 C 
BRANCH  11  12
ATOM     12  C   LIG    1        1.226  -2.187  -0.021  0.00  0.00    +0.016 C 
BRANCH  12  13
ATOM     13  C   LIG    1        1.208  -0.680  -0.013  0.00  0.00    -0.049 A 
ATOM     14  C   LIG    1        0.002  -0.004   0.002  0.00  0.00    +0.007 A 
ATOM     15  C   LIG    1       -0.017   1.377   0.010  0.00  0.00    +0.046 A 
ATOM     16  C   LIG    1        1.176   2.086   0.002  0.00  0.00    +0.120 A 
ATOM     17  C   LIG    1        2.385   1.405  -0.013  0.00  0.00    +0.046 A 
ATOM     18  C   LIG    1        2.398   0.024  -0.021  0.00  0.00    +0.007 A 
BRANCH  16  19
ATOM     19  O   LIG    1        1.160   3.445   0.009  0.00  0.00    -0.495 OA
ATOM     20  C   LIG    1        2.426   4.108   0.001  0.00  0.00    +0.277 C 
ENDBRANCH  16  19
ENDBRANCH  12  13
ENDBRANCH  11  12
ENDBRANCH   2  11
TORSDOF 7
