REMARK  Name = ZINC29205507
REMARK                            x       y       z     vdW  Elec       q    Type
REMARK                         _______ _______ _______ _____ _____    ______ ____
ROOT
ATOM      1  C   LIG    1        1.042   1.923   0.002  0.00  0.00    +0.126 A 
ATOM      2  C   LIG    1       -0.013   1.076   0.008  0.00  0.00    +0.112 A 
ATOM      3  C   LIG    1       -1.142   1.935   0.017  0.00  0.00    +0.252 A 
ATOM      4  N   LIG    1       -0.674   3.154   0.025  0.00  0.00    -0.040 NA
ATOM      5  O   LIG    1        0.535   3.165   0.013  0.00  0.00    -0.358 OA
ENDROOT
BRANCH   1   7
ATOM      6  C   LIG    1        3.070   1.654   1.403  0.00  0.00    -0.006 C 
ATOM      7  C   LIG    1        2.501   1.546  -0.013  0.00  0.00    -0.008 C 
BRANCH   7   8
ATOM      8  N   LIG    1        3.232   2.455  -0.906  0.00  0.00    +0.385 N 
ATOM      9  H   LIG    1        3.124   3.489  -0.545  0.00  0.00    -0.089 HD
ATOM     10  H   LIG    1        4.297   2.180  -0.917  0.00  0.00    -0.089 HD
ATOM     11  H   LIG    1        2.822   2.378  -1.924  0.00  0.00    -0.089 HD
ENDBRANCH   7   8
ENDBRANCH   1   7
BRANCH   3  12
ATOM     12  O   LIG    1       -2.448   1.563   0.021  0.00  0.00    -0.490 OA
ATOM     13  H   LIG    1       -2.676   0.655   0.014  0.00  0.00    +0.294 HD
ENDBRANCH   3  12
TORSDOF 3
