REMARK  Name = ZINC28255523
REMARK                            x       y       z     vdW  Elec       q    Type
REMARK                         _______ _______ _______ _____ _____    ______ ____
ROOT
ATOM      1  C   LIG    1       -0.017   1.380   0.010  0.00  0.00    +0.001 A 
ATOM      2  C   LIG    1        1.169   2.094   0.002  0.00  0.00    +0.003 A 
ATOM      3  C   LIG    1        2.379   1.432  -0.014  0.00  0.00    +0.042 A 
ATOM      4  C   LIG    1        2.406   0.036  -0.022  0.00  0.00    +0.105 A 
ATOM      5  C   LIG    1        1.204  -0.675  -0.013  0.00  0.00    +0.022 A 
ATOM      6  C   LIG    1        1.244  -2.184  -0.018  0.00  0.00    +0.223 C 
ATOM      7  N   LIG    1        2.505  -2.598  -0.654  0.00  0.00    -0.237 N 
ATOM      8  H   LIG    1        2.525  -3.342  -1.276  0.00  0.00    +0.245 HD
ATOM      9  C   LIG    1        3.654  -1.907  -0.347  0.00  0.00    +0.332 C 
ATOM     10  N   LIG    1        3.599  -0.633  -0.041  0.00  0.00    -0.249 N 
ATOM     11  H   LIG    1        4.417  -0.158   0.175  0.00  0.00    +0.264 HD
ATOM     12  C   LIG    1        0.002  -0.004   0.002  0.00  0.00    +0.010 A 
ENDROOT
BRANCH   9  13
ATOM     13  N   LIG    1        4.864  -2.555  -0.362  0.00  0.00    -0.254 N 
ATOM     14  H   LIG    1        5.676  -2.070  -0.146  0.00  0.00    +0.241 HD
ATOM     15  H   LIG    1        4.908  -3.497  -0.588  0.00  0.00    +0.241 HD
ENDBRANCH   9  13
TORSDOF 1
