REMARK  Name = ZINC29559153
REMARK                            x       y       z     vdW  Elec       q    Type
REMARK                         _______ _______ _______ _____ _____    ______ ____
ROOT
ATOM      1  C   LIG    1       -0.076   5.325   0.030  0.00  0.00    +0.139 A 
ATOM      2  C   LIG    1       -1.279   5.959   0.045  0.00  0.00    +0.098 A 
ATOM      3  C   LIG    1       -1.322   7.373   0.053  0.00  0.00    +0.193 A 
ATOM      4  C   LIG    1       -0.032   8.091   0.045  0.00  0.00    +0.065 A 
ATOM      5  C   LIG    1        0.023   9.483   0.052  0.00  0.00    +0.030 A 
ATOM      6  C   LIG    1        1.248  10.116   0.045  0.00  0.00    +0.019 A 
ATOM      7 BR   LIG    1        1.332  12.005   0.054  0.00  0.00    -0.050 Br
ATOM      8  C   LIG    1        2.419   9.371   0.030  0.00  0.00    +0.019 A 
ATOM      9  C   LIG    1        2.377   7.994   0.022  0.00  0.00    +0.048 A 
ATOM     10  C   LIG    1        1.152   7.337   0.030  0.00  0.00    +0.139 A 
ATOM     11  O   LIG    1       -2.383   7.975   0.066  0.00  0.00    -0.287 OA
ATOM     12  O   LIG    1        1.090   5.989   0.029  0.00  0.00    -0.455 OA
ENDROOT
BRANCH   1  15
ATOM     13  C   LIG    1       -1.221   1.748   0.017  0.00  0.00    +0.004 A 
ATOM     14  C   LIG    1       -1.248   3.128   0.030  0.00  0.00    +0.012 A 
ATOM     15  C   LIG    1       -0.051   3.849   0.022  0.00  0.00    +0.021 A 
ATOM     16  C   LIG    1        1.167   3.168   0.007  0.00  0.00    +0.057 A 
ATOM     17  C   LIG    1        1.182   1.784   0.000  0.00  0.00    +0.118 A 
ATOM     18  C   LIG    1       -0.013   1.076   0.008  0.00  0.00    +0.045 A 
BRANCH  17  19
ATOM     19  O   LIG    1        2.366   1.117  -0.015  0.00  0.00    -0.507 OA
ATOM     20  H   LIG    1        2.379   0.017  -0.020  0.00  0.00    +0.292 HD
ENDBRANCH  17  19
ENDBRANCH   1  15
TORSDOF 2
