REMARK  Name = ZINC14951858
REMARK                            x       y       z     vdW  Elec       q    Type
REMARK                         _______ _______ _______ _____ _____    ______ ____
ROOT
ATOM      1  C   LIG    1       -0.794   1.428  -0.025  0.00  0.00    +0.070 C 
ATOM      2  C   LIG    1       -0.350  -0.012  -0.003  0.00  0.00    +0.098 C 
ATOM      3  N   LIG    1       -0.167  -0.623   1.141  0.00  0.00    -0.074 NA
ENDROOT
BRANCH   2   4
ATOM      4  C   LIG    1       -0.132  -0.704  -1.217  0.00  0.00    +0.175 C 
ATOM      5  N   LIG    1       -0.141  -0.055  -2.348  0.00  0.00    -0.118 NA
BRANCH   5   6
ATOM      6  N   LIG    1        0.061   1.331  -2.361  0.00  0.00    -0.155 N 
ATOM      7  H   LIG    1        0.288   1.796  -1.541  0.00  0.00    +0.292 HD
BRANCH   6   8
ATOM      8  C   LIG    1       -0.062   2.033  -3.538  0.00  0.00    +0.400 C 
ATOM      9  N   LIG    1       -0.464   1.426  -4.620  0.00  0.00    -0.128 NA
ATOM     10  H   LIG    1       -0.551   1.921  -5.450  0.00  0.00    +0.306 HD
BRANCH   8  11
ATOM     11  N   LIG    1        0.238   3.375  -3.574  0.00  0.00    -0.288 N 
ATOM     12  H   LIG    1        0.082   3.886  -4.383  0.00  0.00    +0.255 HD
ATOM     13  H   LIG    1        0.606   3.811  -2.789  0.00  0.00    +0.255 HD
ENDBRANCH   8  11
ENDBRANCH   6   8
ENDBRANCH   5   6
ENDBRANCH   2   4
BRANCH   3  14
ATOM     14  N   LIG    1        0.312  -1.821   1.163  0.00  0.00    +0.044 NA
ATOM     15  C   LIG    1        0.589  -2.399   2.315  0.00  0.00    +0.404 C 
BRANCH  15  16
ATOM     16  N   LIG    1        1.198  -3.628   2.337  0.00  0.00    -0.287 N 
ATOM     17  H   LIG    1        1.335  -4.086   3.181  0.00  0.00    +0.255 HD
ATOM     18  H   LIG    1        1.490  -4.039   1.509  0.00  0.00    +0.255 HD
ENDBRANCH  15  16
BRANCH  15  19
ATOM     19  N   LIG    1        0.269  -1.771   3.492  0.00  0.00    -0.287 N 
ATOM     20  H   LIG    1        0.473  -2.197   4.339  0.00  0.00    +0.255 HD
ATOM     21  H   LIG    1       -0.161  -0.902   3.477  0.00  0.00    +0.255 HD
ENDBRANCH  15  19
ENDBRANCH   3  14
TORSDOF 7
