REMARK  Name = ZINC27416688
REMARK                            x       y       z     vdW  Elec       q    Type
REMARK                         _______ _______ _______ _____ _____    ______ ____
ROOT
ATOM      1  C   LIG    1       -1.163  -0.668  -0.380  0.00  0.00    +0.124 A 
ATOM      2  C   LIG    1       -1.207  -2.051  -0.401  0.00  0.00    +0.046 A 
ATOM      3  C   LIG    1       -0.089  -2.778  -0.041  0.00  0.00    +0.004 A 
ATOM      4  C   LIG    1        1.065  -2.121   0.334  0.00  0.00    +0.004 A 
ATOM      5  C   LIG    1        1.115  -0.733   0.354  0.00  0.00    -0.042 A 
ATOM      6  C   LIG    1        2.410  -0.082   0.761  0.00  0.00    +0.020 C 
ATOM      7  C   LIG    1        2.204   1.384   1.114  0.00  0.00    -0.064 C 
ATOM      8  N   LIG    1        1.486   1.528   2.383  0.00  0.00    +0.381 N 
ATOM      9  H   LIG    1        0.476   1.107   2.271  0.00  0.00    -0.086 HD
ATOM     10  H   LIG    1        2.028   0.975   3.164  0.00  0.00    -0.086 HD
ATOM     11  C   LIG    1        1.387   2.945   2.765  0.00  0.00    -0.082 C 
ATOM     12  C   LIG    1        0.618   3.720   1.694  0.00  0.00    -0.019 C 
ATOM     13  C   LIG    1        1.319   3.568   0.341  0.00  0.00    +0.000 C 
ATOM     14  C   LIG    1        1.402   2.070  -0.000  0.00  0.00    -0.020 C 
ATOM     15  C   LIG    1       -0.018   1.500   0.010  0.00  0.00    +0.041 C 
ATOM     16  C   LIG    1        0.002  -0.004   0.002  0.00  0.00    -0.002 A 
ENDROOT
BRANCH   1  18
ATOM     17  C   LIG    1       -3.424  -0.692  -1.114  0.00  0.00    +0.277 C 
ATOM     18  O   LIG    1       -2.263   0.048  -0.733  0.00  0.00    -0.495 OA
ENDBRANCH   1  18
TORSDOF 1
