REMARK  Name = ZINC14976376
REMARK                            x       y       z     vdW  Elec       q    Type
REMARK                         _______ _______ _______ _____ _____    ______ ____
ROOT
ATOM      1  C   LIG    1        1.267  -2.146  -0.022  0.00  0.00    +0.119 A 
ATOM      2  C   LIG    1        2.352  -2.986  -0.528  0.00  0.00    +0.033 A 
ATOM      3  C   LIG    1        1.964  -4.285  -0.339  0.00  0.00    +0.048 A 
ATOM      4  N   LIG    1        0.749  -4.283   0.238  0.00  0.00    -0.267 N 
ATOM      5  C   LIG    1        0.279  -5.660   0.476  0.00  0.00    +0.144 C 
ATOM      6  C   LIG    1        1.157  -6.559  -0.420  0.00  0.00    +0.029 C 
ATOM      7  C   LIG    1        2.438  -5.706  -0.559  0.00  0.00    +0.057 C 
ATOM      8  N   LIG    1        0.335  -2.954   0.430  0.00  0.00    -0.169 NA
ENDROOT
BRANCH   2   9
ATOM      9  C   LIG    1        3.622  -2.522  -1.128  0.00  0.00    -0.003 A 
ATOM     10  C   LIG    1        4.747  -2.298  -0.343  0.00  0.00    +0.029 A 
ATOM     11  C   LIG    1        5.924  -1.863  -0.937  0.00  0.00    +0.112 A 
ATOM     12  N   LIG    1        6.011  -1.653  -2.230  0.00  0.00    -0.255 NA
ATOM     13  C   LIG    1        4.970  -1.848  -3.047  0.00  0.00    +0.075 A 
ATOM     14  C   LIG    1        5.084  -1.618  -4.428  0.00  0.00    +0.073 A 
ATOM     15  C   LIG    1        4.002  -1.845  -5.247  0.00  0.00    +0.119 A 
ATOM     16  C   LIG    1        2.784  -2.283  -4.718  0.00  0.00    +0.046 A 
ATOM     17  C   LIG    1        2.646  -2.507  -3.383  0.00  0.00    +0.014 A 
ATOM     18  C   LIG    1        3.733  -2.298  -2.524  0.00  0.00    +0.008 A 
BRANCH  15  19
ATOM     19  O   LIG    1        4.114  -1.629  -6.584  0.00  0.00    -0.507 OA
ATOM     20  H   LIG    1        3.895  -0.727  -6.856  0.00  0.00    +0.292 HD
ENDBRANCH  15  19
ENDBRANCH   2   9
BRANCH   1  25
ATOM     21  C   LIG    1       -0.017   1.379   0.010  0.00  0.00    +0.004 A 
ATOM     22  C   LIG    1        1.194   2.059   0.002  0.00  0.00    +0.020 A 
ATOM     23  C   LIG    1        2.375   1.340  -0.013  0.00  0.00    +0.111 A 
ATOM     24  N   LIG    1        2.365   0.022  -0.020  0.00  0.00    -0.253 NA
ATOM     25  C   LIG    1        1.230  -0.665  -0.013  0.00  0.00    +0.091 A 
ATOM     26  C   LIG    1        0.002  -0.004   0.002  0.00  0.00    +0.030 A 
ENDBRANCH   1  25
TORSDOF 3
