REMARK  Name = ZINC14618976
REMARK                            x       y       z     vdW  Elec       q    Type
REMARK                         _______ _______ _______ _____ _____    ______ ____
ROOT
ATOM      1  C   LIG    1       -0.017   1.425   0.010  0.00  0.00    +0.267 C 
ATOM      2  C   LIG    1        1.286   0.623  -0.007  0.00  0.00    +0.267 C 
ATOM      3  O   LIG    1        0.002  -0.004   0.002  0.00  0.00    -0.345 OA
ENDROOT
BRANCH   1   4
ATOM      4  C   LIG    1       -0.425   2.128  -1.259  0.00  0.00    +0.339 C 
ATOM      5  O   LIG    1       -1.404   1.762  -1.865  0.00  0.00    -0.248 OA
BRANCH   4   6
ATOM      6  O   LIG    1        0.298   3.163  -1.715  0.00  0.00    -0.463 OA
BRANCH   6   8
ATOM      7  C   LIG    1        0.789   4.943  -3.302  0.00  0.00    +0.048 C 
ATOM      8  C   LIG    1       -0.153   3.793  -2.942  0.00  0.00    +0.229 C 
ENDBRANCH   6   8
ENDBRANCH   4   6
ENDBRANCH   1   4
BRANCH   2   9
ATOM      9  C   LIG    1        2.099   0.578   1.261  0.00  0.00    +0.337 C 
ATOM     10  O   LIG    1        2.252  -0.470   1.843  0.00  0.00    -0.248 OA
BRANCH   9  11
ATOM     11  O   LIG    1        2.652   1.701   1.744  0.00  0.00    -0.479 OA
ATOM     12  H   LIG    1        2.534   2.514   1.293  0.00  0.00    +0.295 HD
ENDBRANCH   9  11
ENDBRANCH   2   9
TORSDOF 5
