REMARK  Name = ZINC53092522
REMARK                            x       y       z     vdW  Elec       q    Type
REMARK                         _______ _______ _______ _____ _____    ______ ____
ROOT
ATOM      1  N   LIG    1        3.889   0.261   2.224  0.00  0.00    -0.302 N 
ATOM      2  H   LIG    1        4.665   0.818   2.392  0.00  0.00    +0.150 HD
ATOM      3  C   LIG    1        2.880   0.225   3.117  0.00  0.00    +0.234 C 
ATOM      4  O   LIG    1        1.952  -0.540   2.953  0.00  0.00    -0.274 OA
ENDROOT
BRANCH   3   5
ATOM      5  C   LIG    1        2.904   1.134   4.319  0.00  0.00    +0.162 C 
ATOM      6  C   LIG    1        3.656   0.450   5.480  0.00  0.00    +0.033 C 
ATOM      7  C   LIG    1        2.830   0.870   6.724  0.00  0.00    +0.021 C 
ATOM      8  C   LIG    1        1.390   0.877   6.154  0.00  0.00    +0.108 C 
ATOM      9  N   LIG    1        1.531   1.393   4.777  0.00  0.00    -0.289 N 
ATOM     10  C   LIG    1        0.565   2.001   4.059  0.00  0.00    +0.233 C 
ATOM     11  O   LIG    1        0.768   2.303   2.902  0.00  0.00    -0.274 OA
BRANCH  10  12
ATOM     12  C   LIG    1       -0.768   2.304   4.694  0.00  0.00    +0.142 C 
BRANCH  12  13
ATOM     13  N   LIG    1       -1.776   2.505   3.644  0.00  0.00    -0.320 NA
ATOM     14  H   LIG    1       -1.522   3.274   3.042  0.00  0.00    +0.119 HD
ATOM     15  H   LIG    1       -2.691   2.646   4.045  0.00  0.00    +0.119 HD
ENDBRANCH  12  13
BRANCH  12  16
ATOM     16  C   LIG    1       -0.652   3.573   5.541  0.00  0.00    +0.063 C 
BRANCH  16  17
ATOM     17  C   LIG    1       -1.949   3.808   6.273  0.00  0.00    -0.045 A 
ATOM     18  C   LIG    1       -2.946   4.562   5.684  0.00  0.00    +0.007 A 
ATOM     19  C   LIG    1       -4.136   4.779   6.353  0.00  0.00    +0.045 A 
ATOM     20  C   LIG    1       -4.328   4.239   7.616  0.00  0.00    +0.117 A 
ATOM     21  C   LIG    1       -3.325   3.482   8.205  0.00  0.00    +0.045 A 
ATOM     22  C   LIG    1       -2.140   3.264   7.529  0.00  0.00    +0.007 A 
BRANCH  20  23
ATOM     23  O   LIG    1       -5.497   4.452   8.277  0.00  0.00    -0.507 OA
ATOM     24  H   LIG    1       -6.173   3.783   8.104  0.00  0.00    +0.292 HD
ENDBRANCH  20  23
ENDBRANCH  16  17
ENDBRANCH  12  16
ENDBRANCH  10  12
ENDBRANCH   3   5
BRANCH   1  25
ATOM     25  C   LIG    1        3.814  -0.541   1.001  0.00  0.00    +0.163 C 
BRANCH  25  26
ATOM     26  C   LIG    1        5.207  -0.859   0.522  0.00  0.00    +0.237 C 
ATOM     27  N   LIG    1        5.416  -1.910  -0.295  0.00  0.00    -0.288 N 
ATOM     28  C   LIG    1        4.367  -2.766  -0.879  0.00  0.00    +0.109 C 
ATOM     29  C   LIG    1        5.011  -3.368  -2.153  0.00  0.00    +0.021 C 
ATOM     30  C   LIG    1        6.473  -3.595  -1.686  0.00  0.00    +0.033 C 
ATOM     31  C   LIG    1        6.727  -2.391  -0.755  0.00  0.00    +0.162 C 
ATOM     32  O   LIG    1        6.140  -0.167   0.871  0.00  0.00    -0.274 OA
BRANCH  31  33
ATOM     33  C   LIG    1        7.557  -2.825   0.425  0.00  0.00    +0.231 C 
ATOM     34  N   LIG    1        8.803  -3.303   0.234  0.00  0.00    -0.328 N 
ATOM     35  H   LIG    1        9.337  -3.582   0.994  0.00  0.00    +0.145 HD
ATOM     36  H   LIG    1        9.165  -3.367  -0.664  0.00  0.00    +0.145 HD
ATOM     37  O   LIG    1        7.104  -2.744   1.548  0.00  0.00    -0.274 OA
ENDBRANCH  31  33
ENDBRANCH  25  26
BRANCH  25  38
ATOM     38  C   LIG    1        3.070   0.245  -0.080  0.00  0.00    +0.067 C 
BRANCH  38  42
ATOM     39  C   LIG    1        5.127   3.909  -0.849  0.00  0.00    +0.000 A 
ATOM     40  C   LIG    1        5.423   2.781  -1.591  0.00  0.00    +0.000 A 
ATOM     41  C   LIG    1        4.757   1.596  -1.342  0.00  0.00    +0.004 A 
ATOM     42  C   LIG    1        3.796   1.538  -0.350  0.00  0.00    -0.045 A 
ATOM     43  C   LIG    1        3.500   2.665   0.393  0.00  0.00    +0.004 A 
ATOM     44  C   LIG    1        4.165   3.851   0.143  0.00  0.00    +0.000 A 
ENDBRANCH  38  42
ENDBRANCH  25  38
ENDBRANCH   1  25
TORSDOF 11
