REMARK  Name = ZINC22441997
REMARK                            x       y       z     vdW  Elec       q    Type
REMARK                         _______ _______ _______ _____ _____    ______ ____
ROOT
ATOM      1  N   LIG    1        0.576  -2.892   1.345  0.00  0.00    -0.310 NA
ATOM      2  H   LIG    1        0.720  -1.967   1.721  0.00  0.00    +0.122 HD
ENDROOT
BRANCH   1   3
ATOM      3  C   LIG    1        1.822  -3.669   1.367  0.00  0.00    +0.044 C 
ATOM      4  C   LIG    1        2.999  -2.760   1.003  0.00  0.00    +0.015 C 
ATOM      5  C   LIG    1        3.131  -1.663   2.064  0.00  0.00    -0.018 C 
ATOM      6  C   LIG    1        3.302  -2.310   3.440  0.00  0.00    -0.082 C 
ATOM      7  N   LIG    1        2.134  -3.145   3.741  0.00  0.00    +0.385 N 
ATOM      8  H   LIG    1        1.297  -2.583   3.691  0.00  0.00    -0.085 HD
ATOM      9  H   LIG    1        2.225  -3.527   4.670  0.00  0.00    -0.085 HD
ATOM     10  C   LIG    1        2.041  -4.243   2.769  0.00  0.00    -0.024 C 
BRANCH  10  11
ATOM     11  C   LIG    1        0.885  -5.139   3.131  0.00  0.00    -0.060 A 
ATOM     12  C   LIG    1       -0.304  -4.590   3.573  0.00  0.00    +0.002 A 
ATOM     13  C   LIG    1       -1.364  -5.412   3.905  0.00  0.00    +0.000 A 
ATOM     14  C   LIG    1       -1.236  -6.784   3.795  0.00  0.00    +0.000 A 
ATOM     15  C   LIG    1       -0.047  -7.334   3.351  0.00  0.00    +0.000 A 
ATOM     16  C   LIG    1        1.012  -6.511   3.015  0.00  0.00    +0.002 A 
ENDBRANCH  10  11
ENDBRANCH   1   3
BRANCH   1  17
ATOM     17  C   LIG    1        0.020  -2.827  -0.013  0.00  0.00    +0.120 C 
BRANCH  17  23
ATOM     18  C   LIG    1       -1.201  -0.638   0.010  0.00  0.00    +0.125 A 
ATOM     19  C   LIG    1       -2.374   0.102   0.020  0.00  0.00    +0.049 A 
ATOM     20  C   LIG    1       -3.596  -0.542   0.028  0.00  0.00    +0.049 A 
ATOM     21  C   LIG    1       -3.650  -1.928   0.027  0.00  0.00    +0.131 A 
ATOM     22  C   LIG    1       -2.477  -2.667   0.017  0.00  0.00    +0.054 A 
ATOM     23  C   LIG    1       -1.255  -2.023   0.003  0.00  0.00    +0.011 A 
BRANCH  18  25
ATOM     24  C   LIG    1       -0.017   1.425   0.010  0.00  0.00    +0.277 C 
ATOM     25  O   LIG    1        0.002  -0.004   0.002  0.00  0.00    -0.495 OA
ENDBRANCH  18  25
BRANCH  21  26
ATOM     26  O   LIG    1       -4.853  -2.562   0.036  0.00  0.00    -0.406 OA
BRANCH  26  27
ATOM     27  C   LIG    1       -6.021  -1.738   0.046  0.00  0.00    +0.575 C 
ATOM     28  F   LIG    1       -6.012  -0.931   1.190  0.00  0.00    -0.133 F 
ATOM     29  F   LIG    1       -7.162  -2.546   0.055  0.00  0.00    -0.133 F 
ATOM     30  F   LIG    1       -6.030  -0.929  -1.095  0.00  0.00    -0.133 F 
ENDBRANCH  26  27
ENDBRANCH  21  26
ENDBRANCH  17  23
ENDBRANCH   1  17
TORSDOF 7
