REMARK  Name = ZINC19735373
REMARK                            x       y       z     vdW  Elec       q    Type
REMARK                         _______ _______ _______ _____ _____    ______ ____
ROOT
ATOM      1  CA  LIG    1       -3.123  -2.690   0.143  0.00  0.00    +0.036 C 
ENDROOT
BRANCH   1   2
ATOM      2  N   LIG    1       -3.811  -2.216   1.352  0.00  0.00    +0.387 N 
ATOM      3  H1  LIG    1       -3.825  -1.207   1.357  0.00  0.00    -0.089 HD
ATOM      4  H2  LIG    1       -3.323  -2.550   2.169  0.00  0.00    -0.089 HD
ATOM      5  H3  LIG    1       -4.758  -2.566   1.359  0.00  0.00    -0.089 HD
ENDBRANCH   1   2
BRANCH   1   6
ATOM      6  C   LIG    1       -3.103  -4.197   0.135  0.00  0.00    +0.290 C 
ATOM      7  O   LIG    1       -3.446  -4.817   1.127  0.00  0.00    -0.253 OA
BRANCH   6   8
ATOM      8  OXT LIG    1       -2.743  -4.796  -0.864  0.00  0.00    -0.482 OA
ATOM      9  HXT LIG    1       -2.479  -4.320  -1.627  0.00  0.00    +0.295 HD
ENDBRANCH   6   8
ENDBRANCH   1   6
BRANCH   1  10
ATOM     10  C   LIG    1       -1.688  -2.160   0.132  0.00  0.00    +0.004 C 
BRANCH  10  11
ATOM     11  C   LIG    1       -1.708  -0.635   0.015  0.00  0.00    +0.096 C 
BRANCH  11  13
ATOM     12  C   LIG    1       -0.023   1.819   0.012  0.00  0.00    +0.111 C 
ATOM     13  P   LIG    1        0.002  -0.004   0.002  0.00  0.00    +0.199 P 
ATOM     14  O   LIG    1        0.749  -0.516   1.254  0.00  0.00    -0.291 OA
BRANCH  13  15
ATOM     15  O   LIG    1        0.725  -0.502  -1.269  0.00  0.00    -0.344 OA
ATOM     16  H   LIG    1        1.635  -0.167  -1.276  0.00  0.00    +0.218 HD
ENDBRANCH  13  15
ENDBRANCH  11  13
ENDBRANCH  10  11
ENDBRANCH   1  10
TORSDOF 7
