REMARK  Name = ZINC16978836
REMARK                            x       y       z     vdW  Elec       q    Type
REMARK                         _______ _______ _______ _____ _____    ______ ____
ROOT
ATOM      1  N   LIG    1       -0.944   2.204   0.735  0.00  0.00    -0.247 NA
ATOM      2  C   LIG    1        0.009   1.496   0.174  0.00  0.00    +0.079 C 
ENDROOT
BRANCH   1   7
ATOM      3  C   LIG    1       -5.300  -0.390   3.212  0.00  0.00    +0.044 C 
ATOM      4  C   LIG    1       -4.136   0.303   2.550  0.00  0.00    -0.050 A 
ATOM      5  C   LIG    1       -3.351   1.178   3.280  0.00  0.00    +0.005 A 
ATOM      6  C   LIG    1       -2.285   1.816   2.682  0.00  0.00    +0.028 A 
ATOM      7  C   LIG    1       -1.998   1.576   1.335  0.00  0.00    +0.065 A 
ATOM      8  C   LIG    1       -2.799   0.695   0.603  0.00  0.00    +0.028 A 
ATOM      9  C   LIG    1       -3.858   0.060   1.216  0.00  0.00    +0.005 A 
ENDBRANCH   1   7
BRANCH   2  10
ATOM     10  C   LIG    1        1.068   2.170  -0.604  0.00  0.00    +0.001 A 
ATOM     11  C   LIG    1        2.186   1.450  -1.036  0.00  0.00    +0.013 A 
ATOM     12  C   LIG    1        3.169   2.081  -1.766  0.00  0.00    +0.046 A 
ATOM     13  C   LIG    1        3.056   3.433  -2.064  0.00  0.00    +0.120 A 
ATOM     14  C   LIG    1        1.949   4.154  -1.632  0.00  0.00    +0.046 A 
ATOM     15  C   LIG    1        0.959   3.529  -0.906  0.00  0.00    +0.013 A 
BRANCH  13  16
ATOM     16  O   LIG    1        4.030   4.052  -2.779  0.00  0.00    -0.495 OA
ATOM     17  C   LIG    1        5.140   3.252  -3.192  0.00  0.00    +0.277 C 
ENDBRANCH  13  16
ENDBRANCH   2  10
BRANCH   2  18
ATOM     18  C   LIG    1        0.018   0.024   0.316  0.00  0.00    +0.001 A 
ATOM     19  C   LIG    1        0.308  -0.785  -0.784  0.00  0.00    +0.010 A 
ATOM     20  C   LIG    1        0.320  -2.157  -0.643  0.00  0.00    +0.001 A 
ATOM     21  C   LIG    1        0.035  -2.732   0.583  0.00  0.00    +0.000 A 
ATOM     22  C   LIG    1       -0.258  -1.936   1.676  0.00  0.00    +0.001 A 
ATOM     23  C   LIG    1       -0.268  -0.563   1.550  0.00  0.00    +0.010 A 
ENDBRANCH   2  18
TORSDOF 4
