REMARK  Name = ZINC49109881
REMARK                            x       y       z     vdW  Elec       q    Type
REMARK                         _______ _______ _______ _____ _____    ______ ____
ROOT
ATOM      1  N   LIG    1       -4.935  -3.868   0.035  0.00  0.00    -0.175 NA
ATOM      2  C   LIG    1       -6.103  -4.483   0.044  0.00  0.00    +0.172 C 
ATOM      3  C   LIG    1       -6.354  -5.939   0.050  0.00  0.00    +0.121 C 
ATOM      4  N   LIG    1       -7.649  -6.110   0.059  0.00  0.00    -0.177 NA
ATOM      5  N   LIG    1       -8.321  -4.889   0.059  0.00  0.00    -0.201 N 
ATOM      6  H   LIG    1       -9.286  -4.788   0.064  0.00  0.00    +0.178 HD
ATOM      7  C   LIG    1       -7.440  -3.869   0.056  0.00  0.00    +0.285 C 
ATOM      8  O   LIG    1       -7.699  -2.678   0.059  0.00  0.00    -0.267 OA
ENDROOT
BRANCH   3   9
ATOM      9  C   LIG    1       -5.327  -7.007   0.047  0.00  0.00    +0.007 A 
ATOM     10  C   LIG    1       -3.964  -6.693   0.043  0.00  0.00    +0.030 A 
ATOM     11  C   LIG    1       -3.042  -7.719   0.040  0.00  0.00    +0.111 A 
ATOM     12  N   LIG    1       -3.430  -8.979   0.041  0.00  0.00    -0.263 NA
ATOM     13  C   LIG    1       -4.705  -9.319   0.044  0.00  0.00    +0.111 A 
ATOM     14  C   LIG    1       -5.694  -8.357   0.054  0.00  0.00    +0.030 A 
ENDBRANCH   3   9
BRANCH   1  15
ATOM     15  N   LIG    1       -4.885  -2.579   0.036  0.00  0.00    -0.237 N 
ATOM     16  H   LIG    1       -5.706  -2.061   0.043  0.00  0.00    +0.174 HD
BRANCH  15  20
ATOM     17  C   LIG    1       -1.200  -0.638   0.010  0.00  0.00    +0.120 A 
ATOM     18  C   LIG    1       -2.374   0.103   0.020  0.00  0.00    +0.047 A 
ATOM     19  C   LIG    1       -3.596  -0.539   0.028  0.00  0.00    +0.028 A 
ATOM     20  C   LIG    1       -3.650  -1.928   0.027  0.00  0.00    +0.049 A 
ATOM     21  C   LIG    1       -2.474  -2.669   0.017  0.00  0.00    +0.028 A 
ATOM     22  C   LIG    1       -1.254  -2.024   0.003  0.00  0.00    +0.047 A 
BRANCH  17  24
ATOM     23  C   LIG    1       -0.017   1.425   0.010  0.00  0.00    +0.277 C 
ATOM     24  O   LIG    1        0.002  -0.004   0.002  0.00  0.00    -0.495 OA
ENDBRANCH  17  24
ENDBRANCH  15  20
ENDBRANCH   1  15
TORSDOF 4
