REMARK  Name = ZINC20357177
REMARK                            x       y       z     vdW  Elec       q    Type
REMARK                         _______ _______ _______ _____ _____    ______ ____
ROOT
ATOM      1  N   LIG    1        0.370  -1.956   5.975  0.00  0.00    -0.298 NA
ATOM      2  C   LIG    1       -0.887  -1.213   6.141  0.00  0.00    +0.066 C 
ATOM      3  C   LIG    1       -0.733  -0.201   7.278  0.00  0.00    -0.063 C 
ATOM      4  N   LIG    1       -0.395  -0.908   8.520  0.00  0.00    +0.384 N 
ATOM      5  H   LIG    1       -1.126  -1.568   8.741  0.00  0.00    -0.081 HD
ATOM      6  C   LIG    1        0.875  -1.626   8.348  0.00  0.00    -0.063 C 
ATOM      7  C   LIG    1        0.734  -2.649   7.219  0.00  0.00    +0.066 C 
ENDROOT
BRANCH   1   8
ATOM      8  C   LIG    1        0.280  -2.900   4.854  0.00  0.00    +0.180 C 
BRANCH   8  11
ATOM      9  N   LIG    1        0.052  -2.797   2.393  0.00  0.00    -0.284 N 
ATOM     10  H   LIG    1       -0.016  -3.765   2.388  0.00  0.00    +0.155 HD
ATOM     11  C   LIG    1        0.150  -2.135   3.562  0.00  0.00    +0.231 C 
ATOM     12  O   LIG    1        0.134  -0.922   3.575  0.00  0.00    -0.274 OA
BRANCH   9  19
ATOM     13  C   LIG    1        1.264   1.227  -0.158  0.00  0.00    +0.044 C 
ATOM     14  C   LIG    1        0.628  -0.137  -0.079  0.00  0.00    -0.049 A 
ATOM     15  C   LIG    1        0.039  -0.690  -1.201  0.00  0.00    +0.004 A 
ATOM     16  C   LIG    1       -0.546  -1.941  -1.133  0.00  0.00    +0.005 A 
ATOM     17  C   LIG    1       -0.543  -2.643   0.057  0.00  0.00    -0.029 A 
ATOM     18  C   LIG    1       -1.181  -4.006   0.131  0.00  0.00    +0.045 C 
ATOM     19  C   LIG    1        0.048  -2.090   1.185  0.00  0.00    +0.037 A 
ATOM     20  C   LIG    1        0.639  -0.835   1.112  0.00  0.00    +0.027 A 
ENDBRANCH   9  19
ENDBRANCH   8  11
ENDBRANCH   1   8
BRANCH   4  21
ATOM     21  C   LIG    1       -0.265   0.062   9.616  0.00  0.00    -0.051 C 
BRANCH  21  22
ATOM     22  C   LIG    1       -0.040  -0.672  10.912  0.00  0.00    -0.045 C 
ATOM     23  C   LIG    1        1.015  -0.386  11.662  0.00  0.00    +0.002 C 
BRANCH  23  24
ATOM     24  C   LIG    1        1.236  -1.106  12.934  0.00  0.00    -0.025 A 
ATOM     25  C   LIG    1        0.338  -2.091  13.346  0.00  0.00    +0.008 A 
ATOM     26  C   LIG    1        0.549  -2.760  14.534  0.00  0.00    +0.001 A 
ATOM     27  C   LIG    1        1.648  -2.454  15.317  0.00  0.00    +0.000 A 
ATOM     28  C   LIG    1        2.542  -1.478  14.915  0.00  0.00    +0.001 A 
ATOM     29  C   LIG    1        2.345  -0.807  13.725  0.00  0.00    +0.008 A 
ENDBRANCH  23  24
ENDBRANCH  21  22
ENDBRANCH   4  21
TORSDOF 6
