REMARK  Name = ZINC22454217
REMARK                            x       y       z     vdW  Elec       q    Type
REMARK                         _______ _______ _______ _____ _____    ______ ____
ROOT
ATOM      1  C   LIG    1        6.285  -5.806   4.497  0.00  0.00    -0.050 C 
ENDROOT
BRANCH   1   5
ATOM      2  N   LIG    1        5.087  -3.681   1.066  0.00  0.00    -0.302 NA
ATOM      3  C   LIG    1        5.109  -2.962   2.348  0.00  0.00    +0.066 C 
ATOM      4  C   LIG    1        5.105  -3.973   3.496  0.00  0.00    -0.063 C 
ATOM      5  N   LIG    1        6.280  -4.847   3.384  0.00  0.00    +0.383 N 
ATOM      6  H   LIG    1        7.119  -4.288   3.419  0.00  0.00    -0.082 HD
ATOM      7  C   LIG    1        6.231  -5.576   2.110  0.00  0.00    -0.063 C 
ATOM      8  C   LIG    1        6.245  -4.579   0.950  0.00  0.00    +0.066 C 
BRANCH   2   9
ATOM      9  C   LIG    1        5.033  -2.743  -0.063  0.00  0.00    +0.111 C 
BRANCH   9  11
ATOM     10  C   LIG    1        3.695  -0.685  -0.038  0.00  0.00    +0.005 C 
ATOM     11  C   LIG    1        3.716  -2.010  -0.046  0.00  0.00    -0.011 C 
BRANCH  10  15
ATOM     12  C   LIG    1       -0.017   1.379   0.010  0.00  0.00    +0.000 A 
ATOM     13  C   LIG    1        1.168   2.093   0.002  0.00  0.00    +0.001 A 
ATOM     14  C   LIG    1        2.377   1.429  -0.013  0.00  0.00    +0.008 A 
ATOM     15  C   LIG    1        2.403   0.034  -0.021  0.00  0.00    -0.025 A 
ATOM     16  C   LIG    1        1.204  -0.681  -0.013  0.00  0.00    +0.008 A 
ATOM     17  C   LIG    1        0.002  -0.004   0.002  0.00  0.00    +0.001 A 
ENDBRANCH  10  15
ENDBRANCH   9  11
ENDBRANCH   2   9
ENDBRANCH   1   5
BRANCH   1  18
ATOM     18  C   LIG    1        7.572  -6.633   4.452  0.00  0.00    +0.142 C 
BRANCH  18  19
ATOM     19  O   LIG    1        8.695  -5.780   4.683  0.00  0.00    -0.369 OA
BRANCH  19  20
ATOM     20  C   LIG    1        9.953  -6.457   4.662  0.00  0.00    +0.178 C 
BRANCH  20  21
ATOM     21  C   LIG    1       10.919  -5.751   5.578  0.00  0.00    -0.014 A 
ATOM     22  C   LIG    1       10.869  -4.376   5.707  0.00  0.00    +0.009 A 
ATOM     23  C   LIG    1       11.754  -3.728   6.548  0.00  0.00    +0.039 A 
ATOM     24  C   LIG    1       12.691  -4.457   7.261  0.00  0.00    +0.123 A 
ATOM     25  F   LIG    1       13.557  -3.824   8.082  0.00  0.00    -0.205 F 
ATOM     26  C   LIG    1       12.740  -5.834   7.130  0.00  0.00    +0.039 A 
ATOM     27  C   LIG    1       11.850  -6.481   6.293  0.00  0.00    +0.009 A 
ENDBRANCH  20  21
BRANCH  20  28
ATOM     28  C   LIG    1       10.500  -6.456   3.258  0.00  0.00    -0.014 A 
ATOM     29  C   LIG    1       10.378  -5.326   2.470  0.00  0.00    +0.009 A 
ATOM     30  C   LIG    1       10.880  -5.324   1.182  0.00  0.00    +0.039 A 
ATOM     31  C   LIG    1       11.506  -6.453   0.681  0.00  0.00    +0.123 A 
ATOM     32  F   LIG    1       11.996  -6.452  -0.577  0.00  0.00    -0.205 F 
ATOM     33  C   LIG    1       11.628  -7.583   1.471  0.00  0.00    +0.039 A 
ATOM     34  C   LIG    1       11.130  -7.582   2.760  0.00  0.00    +0.009 A 
ENDBRANCH  20  28
ENDBRANCH  19  20
ENDBRANCH  18  19
ENDBRANCH   1  18
TORSDOF 9
