REMARK  Name = ZINC27652144
REMARK                            x       y       z     vdW  Elec       q    Type
REMARK                         _______ _______ _______ _____ _____    ______ ____
ROOT
ATOM      1  C   LIG    1        1.935   1.348  -2.058  0.00  0.00    -0.011 C 
ATOM      2  C   LIG    1        1.874  -0.037  -1.411  0.00  0.00    -0.041 C 
ENDROOT
BRANCH   2   3
ATOM      3  N   LIG    1        0.471  -0.446  -1.260  0.00  0.00    +0.386 N 
ATOM      4  H   LIG    1        0.354  -1.488  -1.593  0.00  0.00    -0.085 HD
ATOM      5  H   LIG    1       -0.169   0.208  -1.870  0.00  0.00    -0.085 HD
BRANCH   3   6
ATOM      6  C   LIG    1        0.043  -0.349   0.142  0.00  0.00    -0.076 C 
ATOM      7  C   LIG    1       -1.446  -0.684   0.245  0.00  0.00    -0.011 C 
ATOM      8  C   LIG    1        0.848  -1.335   0.991  0.00  0.00    -0.011 C 
ATOM      9  C   LIG    1        0.281   1.075   0.651  0.00  0.00    -0.011 C 
ENDBRANCH   3   6
ENDBRANCH   2   3
BRANCH   2  10
ATOM     10  C   LIG    1        2.606  -1.047  -2.298  0.00  0.00    +0.130 C 
BRANCH  10  11
ATOM     11  C   LIG    1        2.441  -2.431  -1.725  0.00  0.00    -0.021 A 
ATOM     12  C   LIG    1        1.316  -3.175  -2.026  0.00  0.00    +0.006 A 
ATOM     13  C   LIG    1        1.167  -4.446  -1.504  0.00  0.00    +0.000 A 
ATOM     14  C   LIG    1        2.139  -4.970  -0.672  0.00  0.00    +0.000 A 
ATOM     15  C   LIG    1        3.263  -4.224  -0.367  0.00  0.00    +0.000 A 
ATOM     16  C   LIG    1        3.413  -2.955  -0.893  0.00  0.00    +0.006 A 
ENDBRANCH  10  11
BRANCH  10  17
ATOM     17  O   LIG    1        2.057  -1.009  -3.617  0.00  0.00    -0.389 OA
ATOM     18  H   LIG    1        2.458  -1.671  -4.399  0.00  0.00    +0.210 HD
ENDBRANCH  10  17
ENDBRANCH   2  10
TORSDOF 5
