REMARK  Name = ZINC14951272
REMARK                            x       y       z     vdW  Elec       q    Type
REMARK                         _______ _______ _______ _____ _____    ______ ____
ROOT
ATOM      1  C   LIG    1        3.461   0.675  -0.007  0.00  0.00    +0.080 A 
ATOM      2  C   LIG    1        4.148   1.367  -0.990  0.00  0.00    +0.056 A 
ATOM      3  C   LIG    1        5.537   1.323  -1.023  0.00  0.00    +0.070 A 
ATOM      4  C   LIG    1        6.234   0.575  -0.056  0.00  0.00    +0.093 A 
ATOM      5  N   LIG    1        7.581   0.521  -0.071  0.00  0.00    -0.207 NA
ATOM      6  C   LIG    1        8.271   1.157  -0.980  0.00  0.00    +0.280 A 
ATOM      7  C   LIG    1        7.581   1.951  -2.011  0.00  0.00    +0.311 A 
ATOM      8  O   LIG    1        8.218   2.546  -2.861  0.00  0.00    -0.262 OA
ATOM      9  C   LIG    1        5.517  -0.117   0.931  0.00  0.00    +0.064 A 
ATOM     10  N   LIG    1        6.231   2.010  -2.001  0.00  0.00    -0.316 N 
ATOM     11  H   LIG    1        5.756   2.527  -2.671  0.00  0.00    +0.169 HD
ATOM     12  C   LIG    1        4.155  -0.060   0.953  0.00  0.00    +0.147 A 
ENDROOT
BRANCH   1  15
ATOM     13  C   LIG    1       -0.043   0.546  -0.527  0.00  0.00    +0.130 A 
ATOM     14  C   LIG    1        1.209   0.339  -0.978  0.00  0.00    +0.112 A 
ATOM     15  N   LIG    1        2.061   0.720   0.027  0.00  0.00    -0.304 N 
ATOM     16  C   LIG    1        1.292   1.148   1.061  0.00  0.00    +0.204 A 
ATOM     17  N   LIG    1        0.037   1.040   0.718  0.00  0.00    -0.244 NA
ENDBRANCH   1  15
BRANCH   6  18
ATOM     18  O   LIG    1        9.625   1.087  -0.975  0.00  0.00    -0.489 OA
ATOM     19  H   LIG    1       10.065   0.583  -0.320  0.00  0.00    +0.294 HD
ENDBRANCH   6  18
BRANCH  12  20
ATOM     20  N   LIG    1        3.406  -0.789   2.001  0.00  0.00    +0.008 N 
ATOM     21  O   LIG    1        4.001  -1.328   2.905  0.00  0.00    -0.130 OA
BRANCH  20  22
ATOM     22  O   LIG    1        2.199  -0.846   1.954  0.00  0.00    -0.396 OA
ATOM     23  H   LIG    1        1.738  -0.428   1.253  0.00  0.00    +0.329 HD
ENDBRANCH  20  22
ENDBRANCH  12  20
TORSDOF 4
