REMARK  Name = ZINC00008089
REMARK                            x       y       z     vdW  Elec       q    Type
REMARK                         _______ _______ _______ _____ _____    ______ ____
ROOT
ATOM      1  C   LIG    1       -2.231   1.904  -0.635  0.00  0.00    -0.002 C 
ATOM      2  N   LIG    1       -2.200   1.514   0.776  0.00  0.00    +0.386 N 
ATOM      3  H   LIG    1       -2.795   2.144   1.327  0.00  0.00    -0.085 HD
ATOM      4  H   LIG    1       -2.533   0.549   0.881  0.00  0.00    -0.085 HD
ATOM      5  C   LIG    1       -0.801   1.617   1.232  0.00  0.00    -0.082 C 
ATOM      6  C   LIG    1       -0.013   1.086   0.008  0.00  0.00    -0.020 C 
ATOM      7  C   LIG    1       -0.822   1.629  -1.192  0.00  0.00    -0.010 C 
ENDROOT
BRANCH   1  11
ATOM      8  C   LIG    1       -5.865   0.275  -3.805  0.00  0.00    +0.069 C 
ATOM      9  C   LIG    1       -4.806   0.369  -2.737  0.00  0.00    +0.081 A 
ATOM     10  C   LIG    1       -4.056   1.515  -2.387  0.00  0.00    +0.069 A 
ATOM     11  C   LIG    1       -3.249   1.086  -1.387  0.00  0.00    +0.124 A 
ATOM     12  O   LIG    1       -3.531  -0.211  -1.203  0.00  0.00    -0.361 OA
ATOM     13  N   LIG    1       -4.399  -0.589  -1.956  0.00  0.00    -0.083 NA
ENDBRANCH   1  11
TORSDOF 1
