REMARK  Name = ZINC38197764
REMARK                            x       y       z     vdW  Elec       q    Type
REMARK                         _______ _______ _______ _____ _____    ______ ____
ROOT
ATOM      1  C   LIG    1        0.481  -2.886  -2.177  0.00  0.00    +0.110 A 
ATOM      2  C   LIG    1       -0.833  -3.353  -2.238  0.00  0.00    +0.149 A 
ATOM      3  F   LIG    1       -1.699  -3.054  -1.245  0.00  0.00    -0.203 F 
ATOM      4  C   LIG    1       -1.247  -4.112  -3.296  0.00  0.00    +0.054 A 
ATOM      5  C   LIG    1       -0.353  -4.421  -4.324  0.00  0.00    +0.052 A 
ATOM      6  C   LIG    1        0.974  -3.957  -4.274  0.00  0.00    +0.097 A 
ATOM      7  N   LIG    1        1.858  -4.264  -5.289  0.00  0.00    -0.340 N 
ATOM      8  C   LIG    1        1.512  -5.002  -6.352  0.00  0.00    +0.105 A 
ATOM      9  C   LIG    1        0.240  -5.512  -6.510  0.00  0.00    +0.122 A 
ATOM     10  C   LIG    1       -0.771  -5.237  -5.476  0.00  0.00    +0.204 A 
ATOM     11  O   LIG    1       -1.909  -5.665  -5.571  0.00  0.00    -0.286 OA
ATOM     12  C   LIG    1        1.382  -3.180  -3.192  0.00  0.00    +0.168 A 
ENDROOT
BRANCH   1  16
ATOM     13  C   LIG    1        0.039   1.330   0.236  0.00  0.00    -0.012 C 
ATOM     14  C   LIG    1        0.062  -0.199   0.173  0.00  0.00    -0.057 C 
ATOM     15  C   LIG    1        0.764  -0.646  -1.113  0.00  0.00    +0.089 C 
ATOM     16  N   LIG    1        0.891  -2.112  -1.089  0.00  0.00    -0.328 N 
ATOM     17  C   LIG    1        1.462  -2.739   0.113  0.00  0.00    +0.086 C 
ATOM     18  C   LIG    1        0.727  -2.192   1.341  0.00  0.00    -0.063 C 
ATOM     19  N   LIG    1        0.789  -0.725   1.335  0.00  0.00    +0.383 N 
ATOM     20  H   LIG    1        0.371  -0.369   2.182  0.00  0.00    -0.085 HD
ATOM     21  H   LIG    1        1.753  -0.431   1.289  0.00  0.00    -0.085 HD
ENDBRANCH   1  16
BRANCH   7  22
ATOM     22  C   LIG    1        3.231  -3.761  -5.201  0.00  0.00    +0.088 C 
ATOM     23  C   LIG    1        4.179  -4.087  -6.356  0.00  0.00    +0.027 C 
ATOM     24  C   LIG    1        4.348  -4.787  -5.006  0.00  0.00    +0.027 C 
ENDBRANCH   7  22
BRANCH   9  25
ATOM     25  C   LIG    1       -0.100  -6.318  -7.691  0.00  0.00    +0.342 C 
ATOM     26  O   LIG    1        0.743  -6.539  -8.539  0.00  0.00    -0.245 OA
BRANCH  25  27
ATOM     27  O   LIG    1       -1.346  -6.811  -7.834  0.00  0.00    -0.477 OA
ATOM     28  H   LIG    1       -1.474  -7.327  -8.642  0.00  0.00    +0.295 HD
ENDBRANCH  25  27
ENDBRANCH   9  25
BRANCH  12  29
ATOM     29  O   LIG    1        2.659  -2.715  -3.127  0.00  0.00    -0.491 OA
ATOM     30  C   LIG    1        3.621  -3.549  -2.478  0.00  0.00    +0.277 C 
ENDBRANCH  12  29
TORSDOF 5
