REMARK  Name = ZINC16051895
REMARK                            x       y       z     vdW  Elec       q    Type
REMARK                         _______ _______ _______ _____ _____    ______ ____
ROOT
ATOM      1  C   LIG    1        3.720  -0.707  -0.039  0.00  0.00    +0.192 C 
ENDROOT
BRANCH   1   5
ATOM      2  C   LIG    1       -0.003   1.388  -0.008  0.00  0.00    +0.000 A 
ATOM      3  C   LIG    1        1.187   2.093  -0.011  0.00  0.00    +0.000 A 
ATOM      4  C   LIG    1        2.392   1.415  -0.021  0.00  0.00    +0.006 A 
ATOM      5  C   LIG    1        2.407   0.032  -0.028  0.00  0.00    -0.020 A 
ATOM      6  C   LIG    1        1.217  -0.672  -0.024  0.00  0.00    +0.006 A 
ATOM      7  C   LIG    1        0.013   0.006  -0.015  0.00  0.00    +0.000 A 
ENDBRANCH   1   5
BRANCH   1   8
ATOM      8  C   LIG    1        4.046  -1.175   1.356  0.00  0.00    +0.240 C 
ATOM      9  N   LIG    1        4.186  -0.278   2.352  0.00  0.00    -0.284 N 
ATOM     10  H   LIG    1        4.144   0.672   2.159  0.00  0.00    +0.155 HD
ATOM     11  O   LIG    1        4.181  -2.358   1.582  0.00  0.00    -0.273 OA
BRANCH   9  12
ATOM     12  C   LIG    1        4.390  -0.715   3.661  0.00  0.00    +0.036 A 
ATOM     13  C   LIG    1        5.142  -1.859   3.923  0.00  0.00    +0.043 A 
ATOM     14  C   LIG    1        5.320  -2.259   5.232  0.00  0.00    +0.112 A 
ATOM     15  N   LIG    1        4.790  -1.573   6.227  0.00  0.00    -0.263 NA
ATOM     16  C   LIG    1        4.073  -0.485   6.019  0.00  0.00    +0.112 A 
ATOM     17  C   LIG    1        3.853  -0.016   4.741  0.00  0.00    +0.043 A 
ENDBRANCH   9  12
ENDBRANCH   1   8
BRANCH   1  18
ATOM     18  N   LIG    1        3.621  -1.864  -0.932  0.00  0.00    -0.174 NA
ATOM     19  H   LIG    1        2.893  -2.468  -0.551  0.00  0.00    +0.149 HD
BRANCH  18  20
ATOM     20  S   LIG    1        3.271  -1.645  -2.536  0.00  0.00    +0.061 S 
ATOM     21  O   LIG    1        4.376  -0.956  -3.103  0.00  0.00    -0.153 OA
ATOM     22  O   LIG    1        1.945  -1.139  -2.596  0.00  0.00    -0.153 OA
BRANCH  20  23
ATOM     23  C   LIG    1        3.235  -3.240  -3.283  0.00  0.00    +0.133 A 
ATOM     24  C   LIG    1        2.078  -3.720  -3.796  0.00  0.00    +0.031 A 
ATOM     25  C   LIG    1        2.012  -4.978  -4.396  0.00  0.00    +0.004 A 
ATOM     26  C   LIG    1        3.103  -5.774  -4.490  0.00  0.00    +0.031 A 
ATOM     27  C   LIG    1        4.352  -5.336  -3.973  0.00  0.00    +0.102 A 
ATOM     28  N   LIG    1        5.522  -5.977  -3.976  0.00  0.00    -0.191 NA
ATOM     29  S   LIG    1        6.566  -4.979  -3.269  0.00  0.00    +0.117 S 
ATOM     30  N   LIG    1        5.642  -3.712  -2.909  0.00  0.00    -0.189 NA
ATOM     31  C   LIG    1        4.422  -4.019  -3.352  0.00  0.00    +0.126 A 
ENDBRANCH  20  23
ENDBRANCH  18  20
ENDBRANCH   1  18
TORSDOF 6
