REMARK  Name = ZINC40163695
REMARK                            x       y       z     vdW  Elec       q    Type
REMARK                         _______ _______ _______ _____ _____    ______ ____
ROOT
ATOM      1  C   LIG    1       -0.018   1.503   0.010  0.00  0.00    +0.086 C 
ATOM      2  C   LIG    1        0.002  -0.004   0.002  0.00  0.00    +0.104 A 
ATOM      3  N   LIG    1        0.008  -0.785  -1.100  0.00  0.00    -0.348 N 
ATOM      4  C   LIG    1        0.027  -2.086  -0.674  0.00  0.00    +0.107 A 
ATOM      5  C   LIG    1        0.033  -2.055   0.673  0.00  0.00    +0.057 A 
ATOM      6  H   LIG    1       -0.000  -0.481  -2.021  0.00  0.00    +0.166 HD
ATOM      7  N   LIG    1        0.023  -0.770   1.058  0.00  0.00    -0.238 NA
ENDROOT
BRANCH   5   8
ATOM      8  C   LIG    1        0.053  -3.253   1.586  0.00  0.00    +0.037 C 
BRANCH   8   9
ATOM      9  C   LIG    1        1.237  -3.143   2.548  0.00  0.00    -0.080 C 
BRANCH   9  10
ATOM     10  N   LIG    1        1.256  -4.311   3.438  0.00  0.00    +0.378 N 
ATOM     11  H   LIG    1        2.038  -4.238   4.072  0.00  0.00    -0.090 HD
ATOM     12  H   LIG    1        1.348  -5.152   2.888  0.00  0.00    -0.090 HD
ATOM     13  H   LIG    1        0.397  -4.346   3.965  0.00  0.00    -0.090 HD
ENDBRANCH   9  10
ENDBRANCH   8   9
ENDBRANCH   5   8
TORSDOF 3
