REMARK  Name = ZINC28760615
REMARK                            x       y       z     vdW  Elec       q    Type
REMARK                         _______ _______ _______ _____ _____    ______ ____
ROOT
ATOM      1  C   LIG    1       -0.191   1.503   0.635  0.00  0.00    +0.059 C 
ATOM      2  C   LIG    1       -0.144  -0.019   0.510  0.00  0.00    +0.138 C 
ATOM      3  C   LIG    1        0.054  -0.420  -0.949  0.00  0.00    +0.053 C 
ATOM      4  C   LIG    1        1.494  -0.146  -1.393  0.00  0.00    +0.040 C 
ATOM      5  C   LIG    1        2.436  -0.983  -0.527  0.00  0.00    +0.090 C 
ATOM      6  C   LIG    1        2.331  -0.522   0.930  0.00  0.00    +0.092 C 
ATOM      7  C   LIG    1        2.853   0.905   1.121  0.00  0.00    +0.025 C 
ATOM      8  C   LIG    1        3.228  -1.450   1.740  0.00  0.00    +0.167 C 
ATOM      9  C   LIG    1        4.583  -1.663   1.221  0.00  0.00    +0.043 C 
ATOM     10  C   LIG    1        4.866  -1.414  -0.048  0.00  0.00    -0.014 C 
ATOM     11  O   LIG    1        2.853  -1.981   2.758  0.00  0.00    -0.292 OA
ATOM     12  C   LIG    1        3.856  -0.975  -1.066  0.00  0.00    +0.013 C 
ATOM     13  C   LIG    1        4.258   0.378  -1.645  0.00  0.00    +0.018 C 
ATOM     14  C   LIG    1        3.920  -2.002  -2.220  0.00  0.00    +0.018 C 
ATOM     15  O   LIG    1       -1.425  -0.532   0.944  0.00  0.00    -0.482 OA
ATOM     16  C   LIG    1       -1.713  -0.392   2.258  0.00  0.00    +0.135 A 
ATOM     17  C   LIG    1       -3.058  -0.449   2.678  0.00  0.00    +0.093 A 
ATOM     18  C   LIG    1       -3.357  -0.311   3.998  0.00  0.00    +0.143 A 
ATOM     19  O   LIG    1       -2.399  -0.134   4.922  0.00  0.00    -0.422 OA
ATOM     20  C   LIG    1       -1.109  -0.069   4.556  0.00  0.00    +0.344 A 
ATOM     21  O   LIG    1       -0.252   0.102   5.407  0.00  0.00    -0.245 OA
ATOM     22  C   LIG    1       -0.736  -0.194   3.214  0.00  0.00    +0.081 A 
ATOM     23  C   LIG    1        0.724  -0.107   2.836  0.00  0.00    +0.086 C 
ATOM     24  C   LIG    1        0.897  -0.668   1.420  0.00  0.00    +0.124 C 
ENDROOT
BRANCH  18  25
ATOM     25  C   LIG    1       -4.768  -0.354   4.425  0.00  0.00    +0.025 A 
ATOM     26  C   LIG    1       -5.780  -0.540   3.480  0.00  0.00    +0.061 A 
ATOM     27  C   LIG    1       -7.102  -0.581   3.884  0.00  0.00    +0.166 A 
ATOM     28  C   LIG    1       -7.425  -0.436   5.230  0.00  0.00    +0.204 A 
ATOM     29  C   LIG    1       -6.419  -0.250   6.173  0.00  0.00    +0.166 A 
ATOM     30  C   LIG    1       -5.095  -0.215   5.777  0.00  0.00    +0.061 A 
BRANCH  27  31
ATOM     31  O   LIG    1       -8.088  -0.762   2.964  0.00  0.00    -0.491 OA
ATOM     32  C   LIG    1       -7.685  -0.903   1.600  0.00  0.00    +0.277 C 
ENDBRANCH  27  31
BRANCH  28  33
ATOM     33  O   LIG    1       -8.726  -0.477   5.624  0.00  0.00    -0.488 OA
ATOM     34  C   LIG    1       -9.260  -1.757   5.968  0.00  0.00    +0.277 C 
ENDBRANCH  28  33
BRANCH  29  35
ATOM     35  O   LIG    1       -6.738  -0.108   7.488  0.00  0.00    -0.491 OA
ATOM     36  C   LIG    1       -5.656   0.079   8.402  0.00  0.00    +0.277 C 
ENDBRANCH  29  35
ENDBRANCH  18  25
BRANCH   5  37
ATOM     37  O   LIG    1        1.976  -2.354  -0.595  0.00  0.00    -0.387 OA
ATOM     38  H   LIG    1        1.973  -2.724  -1.488  0.00  0.00    +0.210 HD
ENDBRANCH   5  37
BRANCH  24  39
ATOM     39  O   LIG    1        0.585  -2.080   1.494  0.00  0.00    -0.383 OA
ATOM     40  H   LIG    1       -0.293  -2.271   1.851  0.00  0.00    +0.210 HD
ENDBRANCH  24  39
TORSDOF 6
