REMARK  Name = ZINC28104755
REMARK                            x       y       z     vdW  Elec       q    Type
REMARK                         _______ _______ _______ _____ _____    ______ ____
ROOT
ATOM      1  C   LIG    1       -1.598   0.584   1.779  0.00  0.00    -0.095 C 
ATOM      2  N   LIG    1       -0.652   1.574   1.249  0.00  0.00    +0.382 N 
ATOM      3  H   LIG    1       -1.242   2.485   1.068  0.00  0.00    -0.081 HD
ATOM      4  C   LIG    1        0.457   1.816   2.207  0.00  0.00    -0.078 C 
ATOM      5  C   LIG    1        1.569   2.424   1.316  0.00  0.00    -0.020 C 
ATOM      6  C   LIG    1        1.428   1.630  -0.003  0.00  0.00    -0.013 C 
ATOM      7  C   LIG    1       -0.013   1.086   0.008  0.00  0.00    -0.038 C 
ENDROOT
BRANCH   7   8
ATOM      8  C   LIG    1       -0.763   1.595  -1.195  0.00  0.00    -0.061 A 
ATOM      9  C   LIG    1       -1.286   2.875  -1.192  0.00  0.00    +0.005 A 
ATOM     10  C   LIG    1       -1.970   3.345  -2.297  0.00  0.00    +0.038 A 
ATOM     11  C   LIG    1       -2.141   2.530  -3.404  0.00  0.00    +0.123 A 
ATOM     12  F   LIG    1       -2.814   2.987  -4.482  0.00  0.00    -0.205 F 
ATOM     13  C   LIG    1       -1.621   1.247  -3.404  0.00  0.00    +0.038 A 
ATOM     14  C   LIG    1       -0.933   0.781  -2.300  0.00  0.00    +0.005 A 
ENDBRANCH   7   8
TORSDOF 1
