REMARK  Name = ZINC40894787
REMARK                            x       y       z     vdW  Elec       q    Type
REMARK                         _______ _______ _______ _____ _____    ______ ____
ROOT
ATOM      1  N   LIG    1        3.944  -2.606  -4.129  0.00  0.00    -0.258 N 
ATOM      2  C   LIG    1        4.570  -3.731  -3.595  0.00  0.00    +0.066 A 
ATOM      3  C   LIG    1        5.949  -3.495  -3.485  0.00  0.00    +0.050 A 
ATOM      4  C   LIG    1        6.185  -2.128  -3.986  0.00  0.00    +0.250 C 
ATOM      5  O   LIG    1        7.244  -1.540  -4.061  0.00  0.00    -0.282 OA
ATOM      6  C   LIG    1        6.794  -4.481  -2.974  0.00  0.00    +0.014 A 
ATOM      7  C   LIG    1        6.268  -5.693  -2.576  0.00  0.00    +0.002 A 
ATOM      8  C   LIG    1        4.908  -5.929  -2.683  0.00  0.00    +0.022 A 
ATOM      9  C   LIG    1        4.061  -4.958  -3.188  0.00  0.00    +0.063 A 
ATOM     10 CL   LIG    1        2.359  -5.274  -3.314  0.00  0.00    -0.082 Cl
ATOM     11  C   LIG    1        4.830  -1.628  -4.388  0.00  0.00    +0.292 C 
ATOM     12  O   LIG    1        4.578  -0.539  -4.859  0.00  0.00    -0.266 OA
ENDROOT
BRANCH   1  13
ATOM     13  C   LIG    1        2.505  -2.503  -4.381  0.00  0.00    +0.149 C 
BRANCH  13  17
ATOM     14  C   LIG    1        0.620  -0.519  -1.100  0.00  0.00    +0.120 A 
ATOM     15  C   LIG    1        1.200   0.222  -2.119  0.00  0.00    +0.046 A 
ATOM     16  C   LIG    1        1.810  -0.422  -3.178  0.00  0.00    +0.009 A 
ATOM     17  C   LIG    1        1.840  -1.804  -3.224  0.00  0.00    -0.029 A 
ATOM     18  C   LIG    1        1.262  -2.544  -2.210  0.00  0.00    +0.009 A 
ATOM     19  C   LIG    1        0.657  -1.905  -1.145  0.00  0.00    +0.046 A 
BRANCH  14  21
ATOM     20  C   LIG    1        0.020   1.541  -0.075  0.00  0.00    +0.277 C 
ATOM     21  O   LIG    1        0.021   0.112  -0.056  0.00  0.00    -0.495 OA
ENDBRANCH  14  21
ENDBRANCH  13  17
ENDBRANCH   1  13
TORSDOF 3
