REMARK  Name = ZINC29340872
REMARK                            x       y       z     vdW  Elec       q    Type
REMARK                         _______ _______ _______ _____ _____    ______ ____
ROOT
ATOM      1  C   LIG    1        0.223   5.121  -0.617  0.00  0.00    +0.005 A 
ATOM      2  C   LIG    1        1.351   5.839  -0.285  0.00  0.00    +0.019 A 
ATOM      3  C   LIG    1        2.470   5.164   0.140  0.00  0.00    +0.060 A 
ATOM      4  C   LIG    1        2.495   3.755   0.244  0.00  0.00    +0.107 A 
ATOM      5  N   LIG    1        3.687   3.321   0.676  0.00  0.00    -0.141 NA
ATOM      6  N   LIG    1        4.648   4.125   0.948  0.00  0.00    -0.109 NA
ATOM      7  C   LIG    1        1.321   3.051  -0.107  0.00  0.00    -0.002 A 
ATOM      8  C   LIG    1        1.350   1.549  -0.003  0.00  0.00    +0.118 C 
ATOM      9  N   LIG    1       -0.012   1.005   0.008  0.00  0.00    -0.312 NA
ATOM     10  H   LIG    1       -0.511   1.297   0.943  0.00  0.00    +0.122 HD
ATOM     11  C   LIG    1       -0.773   1.528  -1.138  0.00  0.00    +0.086 C 
ATOM     12  C   LIG    1       -1.057   3.009  -0.892  0.00  0.00    +0.050 C 
ATOM     13  S   LIG    1        4.108   5.585   0.666  0.00  0.00    +0.037 S 
ATOM     14  C   LIG    1        0.218   3.728  -0.522  0.00  0.00    -0.040 A 
ENDROOT
TORSDOF 0
