REMARK  Name = ZINC28570577
REMARK                            x       y       z     vdW  Elec       q    Type
REMARK                         _______ _______ _______ _____ _____    ______ ____
ROOT
ATOM      1  C   UNK    1        1.417   2.055  -0.000  0.00  0.00    +0.068 C 
ENDROOT
BRANCH   1   2
ATOM      2  S   UNK    1        1.392   3.869   0.009  0.00  0.00    -0.156 S 
BRANCH   2   3
ATOM      3  C   UNK    1        3.146   4.332  -0.005  0.00  0.00    +0.104 C 
BRANCH   3  10
ATOM      4  C   UNK    1        3.288   5.758   2.504  0.00  0.00    +0.044 C 
ATOM      5  C   UNK    1        3.337   6.516   1.202  0.00  0.00    -0.046 A 
ATOM      6  C   UNK    1        3.451   7.894   1.208  0.00  0.00    +0.003 A 
ATOM      7  C   UNK    1        3.496   8.589   0.015  0.00  0.00    +0.000 A 
ATOM      8  C   UNK    1        3.428   7.907  -1.186  0.00  0.00    +0.000 A 
ATOM      9  C   UNK    1        3.320   6.529  -1.192  0.00  0.00    +0.005 A 
ATOM     10  C   UNK    1        3.269   5.834   0.002  0.00  0.00    -0.035 A 
ENDBRANCH   3  10
ENDBRANCH   2   3
ENDBRANCH   1   2
BRANCH   1  11
ATOM     11  C   UNK    1       -0.019   1.526   0.010  0.00  0.00    +0.005 C 
BRANCH  11  12
ATOM     12  C   UNK    1        0.002  -0.004   0.002  0.00  0.00    +0.036 C 
BRANCH  12  13
ATOM     13  N   UNK    1        0.582  -0.479  -1.261  0.00  0.00    +0.387 N 
ATOM     14  H   UNK    1       -0.026  -0.116  -2.103  0.00  0.00    -0.089 HD
ATOM     15  H   UNK    1        1.609  -0.098  -1.360  0.00  0.00    -0.089 HD
ATOM     16  H   UNK    1        0.597  -1.579  -1.267  0.00  0.00    -0.089 HD
ENDBRANCH  12  13
BRANCH  12  17
ATOM     17  C   UNK    1       -1.405  -0.526   0.137  0.00  0.00    +0.290 C 
ATOM     18  O   UNK    1       -2.006  -0.902  -0.842  0.00  0.00    -0.253 OA
BRANCH  17  19
ATOM     19  O   UNK    1       -1.991  -0.574   1.343  0.00  0.00    -0.482 OA
ATOM     20  H   UNK    1       -1.525  -0.283   2.102  0.00  0.00    +0.295 HD
ENDBRANCH  17  19
ENDBRANCH  12  17
ENDBRANCH  11  12
ENDBRANCH   1  11
TORSDOF 8
