REMARK  Name = ZINC42764482
REMARK                            x       y       z     vdW  Elec       q    Type
REMARK                         _______ _______ _______ _____ _____    ______ ____
ROOT
ATOM      1  C   LIG    1       -7.092  -8.771   0.023  0.00  0.00    +0.096 C 
ENDROOT
BRANCH   1   2
ATOM      2  C   LIG    1       -7.071 -10.278   0.014  0.00  0.00    +0.214 C 
ATOM      3  N   LIG    1       -8.229 -10.968   0.022  0.00  0.00    -0.302 N 
ATOM      4  H   LIG    1       -9.076 -10.494   0.032  0.00  0.00    +0.150 HD
ATOM      5  O   LIG    1       -6.013 -10.870   0.001  0.00  0.00    -0.276 OA
BRANCH   3   6
ATOM      6  C   LIG    1       -8.209 -12.433   0.014  0.00  0.00    +0.185 C 
ATOM      7  C   LIG    1       -9.532 -12.998   0.592  0.00  0.00    +0.075 C 
ATOM      8  C   LIG    1      -10.299 -13.332  -0.716  0.00  0.00    +0.234 C 
ATOM      9  O   LIG    1       -9.244 -13.759  -1.603  0.00  0.00    -0.463 OA
ATOM     10  C   LIG    1       -8.175 -12.956  -1.409  0.00  0.00    +0.328 C 
ATOM     11  O   LIG    1       -7.330 -12.696  -2.233  0.00  0.00    -0.249 OA
ENDBRANCH   3   6
ENDBRANCH   1   2
BRANCH   1  12
ATOM     12  C   LIG    1       -5.657  -8.242   0.012  0.00  0.00    +0.009 C 
BRANCH  12  13
ATOM     13  C   LIG    1       -5.677  -6.712   0.020  0.00  0.00    +0.000 C 
BRANCH  13  14
ATOM     14  C   LIG    1       -4.242  -6.182   0.009  0.00  0.00    +0.000 C 
BRANCH  14  15
ATOM     15  C   LIG    1       -4.263  -4.652   0.018  0.00  0.00    +0.000 C 
BRANCH  15  16
ATOM     16  C   LIG    1       -2.827  -4.123   0.007  0.00  0.00    +0.000 C 
BRANCH  16  17
ATOM     17  C   LIG    1       -2.848  -2.593   0.015  0.00  0.00    -0.000 C 
BRANCH  17  18
ATOM     18  C   LIG    1       -1.413  -2.063   0.004  0.00  0.00    -0.000 C 
BRANCH  18  19
ATOM     19  C   LIG    1       -1.433  -0.534   0.013  0.00  0.00    -0.000 C 
BRANCH  19  21
ATOM     20  C   LIG    1       -0.019   1.526   0.010  0.00  0.00    +0.004 C 
ATOM     21  C   LIG    1        0.002  -0.004   0.002  0.00  0.00    -0.003 C 
ENDBRANCH  19  21
ENDBRANCH  18  19
ENDBRANCH  17  18
ENDBRANCH  16  17
ENDBRANCH  15  16
ENDBRANCH  14  15
ENDBRANCH  13  14
ENDBRANCH  12  13
ENDBRANCH   1  12
TORSDOF 11
