REMARK  Name = ZINC00056547
REMARK                            x       y       z     vdW  Elec       q    Type
REMARK                         _______ _______ _______ _____ _____    ______ ____
ROOT
ATOM      1  C   LIG    1        0.746  -0.599  -1.299  0.00  0.00    +0.026 C 
ENDROOT
BRANCH   1   2
ATOM      2  C   LIG    1        0.557  -2.086  -1.455  0.00  0.00    -0.043 A 
ATOM      3  C   LIG    1        0.931  -2.939  -0.434  0.00  0.00    +0.007 A 
ATOM      4  C   LIG    1        0.759  -4.303  -0.575  0.00  0.00    +0.045 A 
ATOM      5  C   LIG    1        0.212  -4.815  -1.742  0.00  0.00    +0.117 A 
ATOM      6  C   LIG    1       -0.163  -3.956  -2.765  0.00  0.00    +0.045 A 
ATOM      7  C   LIG    1        0.006  -2.593  -2.617  0.00  0.00    +0.007 A 
BRANCH   5   8
ATOM      8  O   LIG    1        0.042  -6.156  -1.883  0.00  0.00    -0.507 OA
ATOM      9  H   LIG    1       -0.815  -6.479  -1.573  0.00  0.00    +0.292 HD
ENDBRANCH   5   8
ENDBRANCH   1   2
BRANCH   1  11
ATOM     10  C   LIG    1       -1.547  -0.288  -0.356  0.00  0.00    +0.004 C 
ATOM     11  C   LIG    1       -0.051  -0.108  -0.089  0.00  0.00    +0.005 C 
ENDBRANCH   1  11
BRANCH   1  12
ATOM     12  C   LIG    1        2.230  -0.292  -1.091  0.00  0.00    +0.026 C 
BRANCH  12  13
ATOM     13  C   LIG    1        2.422   1.197  -0.955  0.00  0.00    -0.043 A 
ATOM     14  C   LIG    1        2.060   2.037  -1.992  0.00  0.00    +0.007 A 
ATOM     15  C   LIG    1        2.235   3.401  -1.870  0.00  0.00    +0.045 A 
ATOM     16  C   LIG    1        2.773   3.930  -0.706  0.00  0.00    +0.117 A 
ATOM     17  C   LIG    1        3.134   3.085   0.334  0.00  0.00    +0.045 A 
ATOM     18  C   LIG    1        2.953   1.721   0.209  0.00  0.00    +0.007 A 
BRANCH  16  19
ATOM     19  O   LIG    1        2.946   5.272  -0.584  0.00  0.00    -0.507 OA
ATOM     20  H   LIG    1        2.185   5.734  -0.207  0.00  0.00    +0.292 HD
ENDBRANCH  16  19
ENDBRANCH  12  13
BRANCH  12  21
ATOM     21  C   LIG    1        3.030  -0.801  -2.292  0.00  0.00    +0.005 C 
ATOM     22  C   LIG    1        4.525  -0.607  -2.028  0.00  0.00    +0.004 C 
ENDBRANCH  12  21
ENDBRANCH   1  12
TORSDOF 7
