REMARK  Name = ZINC43152558
REMARK                            x       y       z     vdW  Elec       q    Type
REMARK                         _______ _______ _______ _____ _____    ______ ____
ROOT
ATOM      1  C   LIG    1        1.593  -1.558  -2.407  0.00  0.00    +0.111 A 
ATOM      2  N   LIG    1        1.075  -1.490  -3.599  0.00  0.00    -0.232 NA
ATOM      3  C   LIG    1        2.052  -1.655  -4.529  0.00  0.00    +0.090 A 
ATOM      4  C   LIG    1        2.057  -1.672  -5.922  0.00  0.00    +0.037 A 
ATOM      5  C   LIG    1        3.258  -1.869  -6.602  0.00  0.00    -0.023 A 
ATOM      6  C   LIG    1        4.452  -2.049  -5.886  0.00  0.00    +0.010 A 
ATOM      7  C   LIG    1        4.449  -2.032  -4.522  0.00  0.00    +0.028 A 
ATOM      8  C   LIG    1        3.259  -1.837  -3.828  0.00  0.00    +0.069 A 
ATOM      9  N   LIG    1        2.935  -1.765  -2.490  0.00  0.00    -0.329 N 
ENDROOT
BRANCH   5  10
ATOM     10  C   LIG    1        3.274  -1.889  -8.072  0.00  0.00    +0.013 C 
ATOM     11  C   LIG    1        4.436  -2.080  -8.732  0.00  0.00    +0.070 C 
BRANCH  11  12
ATOM     12  C   LIG    1        4.452  -2.100 -10.194  0.00  0.00    +0.259 C 
ATOM     13  N   LIG    1        5.613  -2.291 -10.853  0.00  0.00    -0.194 N 
ATOM     14  H   LIG    1        6.437  -2.414 -10.357  0.00  0.00    +0.183 HD
ATOM     15  O   LIG    1        3.418  -1.945 -10.816  0.00  0.00    -0.269 OA
BRANCH  13  16
ATOM     16  O   LIG    1        5.628  -2.310 -12.269  0.00  0.00    -0.295 OA
ATOM     17  H   LIG    1        6.505  -2.453 -12.650  0.00  0.00    +0.241 HD
ENDBRANCH  13  16
ENDBRANCH  11  12
ENDBRANCH   5  10
BRANCH   1  18
ATOM     18  C   LIG    1        0.818  -1.420  -1.121  0.00  0.00    +0.074 C 
BRANCH  18  19
ATOM     19  C   LIG    1        0.775   0.052  -0.708  0.00  0.00    +0.007 C 
BRANCH  19  21
ATOM     20  C   LIG    1       -0.055   1.665   1.012  0.00  0.00    +0.004 C 
ATOM     21  C   LIG    1       -0.011   0.192   0.598  0.00  0.00    -0.003 C 
ENDBRANCH  19  21
ENDBRANCH  18  19
ENDBRANCH   1  18
BRANCH   9  22
ATOM     22  C   LIG    1        3.864  -1.891  -1.364  0.00  0.00    +0.105 C 
BRANCH  22  23
ATOM     23  C   LIG    1        3.969  -3.361  -0.952  0.00  0.00    -0.057 C 
BRANCH  23  24
ATOM     24  N   LIG    1        4.901  -3.488   0.176  0.00  0.00    +0.380 N 
ATOM     25  H   LIG    1        5.787  -3.075  -0.071  0.00  0.00    -0.082 HD
BRANCH  24  26
ATOM     26  C   LIG    1        5.094  -4.909   0.495  0.00  0.00    -0.082 C 
ATOM     27  C   LIG    1        5.800  -5.602  -0.673  0.00  0.00    -0.017 C 
ENDBRANCH  24  26
BRANCH  24  28
ATOM     28  C   LIG    1        4.348  -2.794   1.348  0.00  0.00    -0.082 C 
ATOM     29  C   LIG    1        5.379  -2.803   2.479  0.00  0.00    -0.017 C 
ENDBRANCH  24  28
ENDBRANCH  23  24
ENDBRANCH  22  23
ENDBRANCH   9  22
TORSDOF 11
