REMARK  Name = ZINC64490638
REMARK                            x       y       z     vdW  Elec       q    Type
REMARK                         _______ _______ _______ _____ _____    ______ ____
ROOT
ATOM      1  C   LIG    1        1.355  -2.516   2.470  0.00  0.00    -0.042 A 
ATOM      2  C   LIG    1        2.701  -2.821   2.393  0.00  0.00    +0.053 A 
ATOM      3  C   LIG    1        3.375  -3.281   3.514  0.00  0.00    +0.165 A 
ATOM      4  C   LIG    1        2.696  -3.435   4.716  0.00  0.00    +0.204 A 
ATOM      5  C   LIG    1        1.342  -3.128   4.790  0.00  0.00    +0.165 A 
ATOM      6  C   LIG    1        0.677  -2.663   3.666  0.00  0.00    +0.053 A 
ENDROOT
BRANCH   3   7
ATOM      7  O   LIG    1        4.699  -3.580   3.437  0.00  0.00    -0.491 OA
ATOM      8  C   LIG    1        5.333  -3.398   2.169  0.00  0.00    +0.277 C 
ENDBRANCH   3   7
BRANCH   4   9
ATOM      9  O   LIG    1        3.354  -3.887   5.819  0.00  0.00    -0.488 OA
ATOM     10  C   LIG    1        3.957  -2.904   6.662  0.00  0.00    +0.277 C 
ENDBRANCH   4   9
BRANCH   5  11
ATOM     11  O   LIG    1        0.673  -3.278   5.964  0.00  0.00    -0.491 OA
ATOM     12  C   LIG    1       -0.716  -2.943   5.966  0.00  0.00    +0.277 C 
ENDBRANCH   5  11
BRANCH   1  13
ATOM     13  C   LIG    1        0.626  -2.017   1.249  0.00  0.00    +0.019 C 
BRANCH  13  14
ATOM     14  C   LIG    1        0.713  -0.491   1.192  0.00  0.00    -0.051 C 
BRANCH  14  16
ATOM     15  C   LIG    1       -0.018   1.465   0.010  0.00  0.00    -0.071 C 
ATOM     16  N   LIG    1        0.002  -0.004   0.002  0.00  0.00    +0.384 N 
ATOM     17  H   LIG    1       -0.945  -0.353   0.009  0.00  0.00    -0.057 HD
BRANCH  16  18
ATOM     18  N   LIG    1        0.683  -0.473  -1.194  0.00  0.00    -0.379 NA
ATOM     19  H   LIG    1        1.633  -0.136  -1.225  0.00  0.00    +0.099 HD
ATOM     20  H   LIG    1        0.177  -0.206  -2.026  0.00  0.00    +0.099 HD
ENDBRANCH  16  18
ENDBRANCH  14  16
ENDBRANCH  13  14
ENDBRANCH   1  13
TORSDOF 7
