REMARK  Name = ZINC27414794
REMARK                            x       y       z     vdW  Elec       q    Type
REMARK                         _______ _______ _______ _____ _____    ______ ____
ROOT
ATOM      1  C   LIG    1       -0.017   1.386   0.010  0.00  0.00    +0.020 A 
ATOM      2  C   LIG    1        1.163   2.082   0.002  0.00  0.00    +0.015 A 
ATOM      3  C   LIG    1        2.360   1.353  -0.013  0.00  0.00    +0.040 A 
ATOM      4  C   LIG    1        3.619   1.998  -0.021  0.00  0.00    +0.044 A 
ATOM      5  C   LIG    1        4.759   1.209  -0.037  0.00  0.00    +0.036 A 
ATOM      6  C   LIG    1        4.639  -0.178  -0.042  0.00  0.00    +0.222 A 
ATOM      7  O   LIG    1        5.735  -0.980  -0.051  0.00  0.00    -0.476 OA
ATOM      8  C   LIG    1        6.982  -0.404  -0.437  0.00  0.00    +0.231 C 
ATOM      9  C   LIG    1        7.189   0.889   0.363  0.00  0.00    +0.046 C 
ATOM     10  N   LIG    1        3.450  -0.761  -0.034  0.00  0.00    -0.193 NA
ATOM     11  C   LIG    1        6.105   1.887  -0.052  0.00  0.00    +0.046 C 
ATOM     12  C   LIG    1        2.312  -0.061  -0.021  0.00  0.00    +0.165 A 
ATOM     13  N   LIG    1        1.127  -0.680  -0.013  0.00  0.00    -0.236 NA
ATOM     14  C   LIG    1        0.002  -0.004   0.002  0.00  0.00    +0.113 A 
ENDROOT
BRANCH   4  15
ATOM     15  N   LIG    1        3.711   3.381  -0.014  0.00  0.00    -0.357 N 
ATOM     16  H   LIG    1        2.797   3.993  -0.001  0.00  0.00    +0.142 HD
ATOM     17  H   LIG    1        4.698   3.867  -0.020  0.00  0.00    +0.142 HD
ENDBRANCH   4  15
TORSDOF 1
