REMARK  Name = ZINC49590008
REMARK                            x       y       z     vdW  Elec       q    Type
REMARK                         _______ _______ _______ _____ _____    ______ ____
ROOT
ATOM      1  C   LIG    1        3.268  -0.633  -3.554  0.00  0.00    +0.161 C 
ENDROOT
BRANCH   1   2
ATOM      2  N   LIG    1        2.033  -1.297  -3.117  0.00  0.00    +0.398 N 
ATOM      3  H   LIG    1        1.333  -1.215  -3.839  0.00  0.00    -0.083 HD
ATOM      4  H   LIG    1        2.220  -2.273  -2.939  0.00  0.00    -0.083 HD
BRANCH   2   9
ATOM      5  C   LIG    1       -0.257   0.315   0.323  0.00  0.00    -0.000 C 
ATOM      6  C   LIG    1        1.033   1.089   0.360  0.00  0.00    -0.000 C 
ATOM      7  C   LIG    1        1.388   1.708  -1.005  0.00  0.00    -0.002 C 
ATOM      8  C   LIG    1        1.119   0.752  -2.183  0.00  0.00    -0.016 C 
ATOM      9  C   LIG    1        1.544  -0.660  -1.887  0.00  0.00    -0.070 C 
ATOM     10  C   LIG    1        0.323  -1.437  -1.351  0.00  0.00    -0.016 C 
ATOM     11  C   LIG    1        0.069  -1.169   0.056  0.00  0.00    -0.002 C 
ENDBRANCH   2   9
ENDBRANCH   1   2
BRANCH   1  12
ATOM     12  P   LIG    1        3.764  -1.285  -5.183  0.00  0.00    +0.326 P 
ATOM     13  O   LIG    1        4.007  -2.807  -5.076  0.00  0.00    -0.260 OA
BRANCH  12  14
ATOM     14  O   LIG    1        5.118  -0.557  -5.663  0.00  0.00    -0.325 OA
ATOM     15  H   LIG    1        5.441  -0.856  -6.524  0.00  0.00    +0.220 HD
ENDBRANCH  12  14
BRANCH  12  16
ATOM     16  O   LIG    1        2.642  -1.014  -6.210  0.00  0.00    -0.325 OA
ATOM     17  H   LIG    1        1.826  -1.452  -5.921  0.00  0.00    +0.220 HD
ENDBRANCH  12  16
ENDBRANCH   1  12
BRANCH   1  18
ATOM     18  P   LIG    1        4.592  -0.954  -2.343  0.00  0.00    +0.326 P 
ATOM     19  O   LIG    1        4.245  -0.244  -0.990  0.00  0.00    -0.260 OA
BRANCH  18  20
ATOM     20  O   LIG    1        5.949  -0.396  -2.892  0.00  0.00    -0.325 OA
ATOM     21  H   LIG    1        5.869   0.560  -3.039  0.00  0.00    +0.220 HD
ENDBRANCH  18  20
BRANCH  18  22
ATOM     22  O   LIG    1        4.720  -2.497  -2.105  0.00  0.00    -0.325 OA
ATOM     23  H   LIG    1        3.880  -2.843  -1.765  0.00  0.00    +0.220 HD
ENDBRANCH  18  22
ENDBRANCH   1  18
TORSDOF 8
