REMARK  Name = ZINC13836609
REMARK                            x       y       z     vdW  Elec       q    Type
REMARK                         _______ _______ _______ _____ _____    ______ ____
ROOT
ATOM      1  C   LIG    1        0.002  -0.004   0.002  0.00  0.00    +0.048 C 
ENDROOT
BRANCH   1   2
ATOM      2  C   LIG    1        0.606  -0.499  -1.314  0.00  0.00    +0.043 C 
BRANCH   2   6
ATOM      3  C   LIG    1        0.347  -4.759  -1.488  0.00  0.00    -0.042 A 
ATOM      4  C   LIG    1       -0.684  -3.983  -1.984  0.00  0.00    +0.004 A 
ATOM      5  C   LIG    1       -0.600  -2.604  -1.928  0.00  0.00    +0.004 A 
ATOM      6  C   LIG    1        0.514  -2.002  -1.375  0.00  0.00    -0.047 A 
ATOM      7  C   LIG    1        1.547  -2.778  -0.883  0.00  0.00    +0.004 A 
ATOM      8  C   LIG    1        1.461  -4.156  -0.935  0.00  0.00    +0.004 A 
BRANCH   3  10
ATOM      9  C   LIG    1        0.126  -6.707  -3.006  0.00  0.00    +0.015 C 
ATOM     10  C   LIG    1        0.255  -6.262  -1.548  0.00  0.00    -0.013 C 
ATOM     11  C   LIG    1       -0.972  -6.730  -0.762  0.00  0.00    +0.015 C 
ATOM     12  C   LIG    1        1.516  -6.875  -0.937  0.00  0.00    +0.015 C 
ENDBRANCH   3  10
ENDBRANCH   2   6
ENDBRANCH   1   2
BRANCH   1  13
ATOM     13  C   LIG    1        0.848  -0.509   1.173  0.00  0.00    +0.237 C 
BRANCH  13  14
ATOM     14  O   LIG    1        0.210  -0.141   2.425  0.00  0.00    -0.464 OA
BRANCH  14  15
ATOM     15  C   LIG    1        0.829  -0.512   3.556  0.00  0.00    +0.313 C 
ATOM     16  O   LIG    1        1.869  -1.125   3.503  0.00  0.00    -0.250 OA
BRANCH  15  17
ATOM     17  C   LIG    1        0.228  -0.164   4.893  0.00  0.00    +0.059 C 
ATOM     18  C   LIG    1       -1.161  -0.797   5.007  0.00  0.00    +0.022 C 
ATOM     19  C   LIG    1        0.108   1.356   5.019  0.00  0.00    +0.022 C 
ATOM     20  C   LIG    1        1.125  -0.700   6.011  0.00  0.00    +0.022 C 
ENDBRANCH  15  17
ENDBRANCH  14  15
ENDBRANCH  13  14
ENDBRANCH   1  13
BRANCH   1  21
ATOM     21  C   LIG    1       -0.019   1.526   0.010  0.00  0.00    +0.111 C 
BRANCH  21  22
ATOM     22  N   LIG    1       -0.704   1.998   1.216  0.00  0.00    -0.315 N 
ATOM     23  H   LIG    1       -1.058   1.359   1.854  0.00  0.00    +0.149 HD
ATOM     24  C   LIG    1       -0.843   3.320   1.438  0.00  0.00    +0.217 C 
ATOM     25  O   LIG    1       -0.401   4.119   0.639  0.00  0.00    -0.275 OA
BRANCH  24  26
ATOM     26  C   LIG    1       -1.549   3.806   2.677  0.00  0.00    +0.131 C 
BRANCH  26  27
ATOM     27  C   LIG    1       -1.569   5.313   2.686  0.00  0.00    -0.035 A 
ATOM     28  C   LIG    1       -0.538   6.014   3.284  0.00  0.00    +0.008 A 
ATOM     29  C   LIG    1       -0.549   7.396   3.289  0.00  0.00    +0.049 A 
ATOM     30  C   LIG    1       -1.601   8.082   2.704  0.00  0.00    +0.158 A 
ATOM     31  C   LIG    1       -2.642   7.377   2.107  0.00  0.00    +0.162 A 
ATOM     32  C   LIG    1       -2.622   5.992   2.100  0.00  0.00    +0.053 A 
BRANCH  30  33
ATOM     33  O   LIG    1       -1.617   9.442   2.713  0.00  0.00    -0.503 OA
ATOM     34  H   LIG    1       -2.056   9.825   3.486  0.00  0.00    +0.292 HD
ENDBRANCH  30  33
BRANCH  31  35
ATOM     35  O   LIG    1       -3.676   8.046   1.531  0.00  0.00    -0.491 OA
ATOM     36  C   LIG    1       -4.709   7.257   0.937  0.00  0.00    +0.277 C 
ENDBRANCH  31  35
ENDBRANCH  26  27
ENDBRANCH  24  26
ENDBRANCH  21  22
ENDBRANCH   1  21
TORSDOF 13
