REMARK  Name = ZINC29485479
REMARK                            x       y       z     vdW  Elec       q    Type
REMARK                         _______ _______ _______ _____ _____    ______ ____
ROOT
ATOM      1  C   LIG    1       -8.305   8.585  -4.969  0.00  0.00    +0.040 A 
ATOM      2  C   LIG    1       -8.731   8.081  -3.752  0.00  0.00    +0.029 A 
ATOM      3  C   LIG    1       -7.857   7.237  -3.074  0.00  0.00    +0.047 A 
ATOM      4  C   LIG    1       -6.586   6.917  -3.620  0.00  0.00    +0.007 A 
ATOM      5  C   LIG    1       -5.954   6.033  -2.666  0.00  0.00    -0.005 A 
ATOM      6  C   LIG    1       -6.822   5.864  -1.643  0.00  0.00    +0.023 A 
ATOM      7  C   LIG    1       -6.518   4.993  -0.446  0.00  0.00    +0.069 C 
ATOM      8  C   LIG    1       -5.331   4.090  -0.805  0.00  0.00    +0.091 C 
ATOM      9  N   LIG    1       -4.249   4.903  -1.376  0.00  0.00    -0.298 NA
ATOM     10  C   LIG    1       -4.595   5.383  -2.725  0.00  0.00    +0.122 C 
ATOM     11  C   LIG    1       -6.175   7.436  -4.851  0.00  0.00    +0.048 A 
ATOM     12  N   LIG    1       -7.962   6.582  -1.878  0.00  0.00    -0.358 N 
ATOM     13  H   LIG    1       -8.874   6.687  -1.272  0.00  0.00    +0.166 HD
ATOM     14  C   LIG    1       -7.065   8.273  -5.505  0.00  0.00    +0.124 A 
ATOM     15  F   LIG    1       -6.714   8.800  -6.698  0.00  0.00    -0.205 F 
ENDROOT
BRANCH   9  16
ATOM     16  C   LIG    1       -2.983   4.158  -1.391  0.00  0.00    +0.085 C 
BRANCH  16  17
ATOM     17  C   LIG    1       -2.530   3.893   0.046  0.00  0.00    +0.019 C 
BRANCH  17  18
ATOM     18  C   LIG    1       -1.231   3.129   0.030  0.00  0.00    -0.007 C 
ATOM     19  C   LIG    1       -1.223   1.742   0.017  0.00  0.00    +0.019 C 
ATOM     20  C   LIG    1       -0.013   1.076   0.008  0.00  0.00    +0.081 C 
ATOM     21  N   LIG    1        1.125   1.743   0.001  0.00  0.00    -0.316 NA
ATOM     22  H   LIG    1        2.081   1.200  -0.011  0.00  0.00    +0.122 HD
ATOM     23  C   LIG    1        1.155   3.061   0.007  0.00  0.00    +0.081 C 
ATOM     24  C   LIG    1       -0.015   3.796   0.022  0.00  0.00    +0.019 C 
ENDBRANCH  17  18
ENDBRANCH  16  17
ENDBRANCH   9  16
TORSDOF 3
