REMARK  Name = ZINC29056064
REMARK                            x       y       z     vdW  Elec       q    Type
REMARK                         _______ _______ _______ _____ _____    ______ ____
ROOT
ATOM      1  C   LIG    1        0.668   7.328   0.101  0.00  0.00    +0.080 A 
ATOM      2  C   LIG    1       -0.735   7.359  -0.008  0.00  0.00    +0.107 A 
ATOM      3  C   LIG    1       -1.736   8.423  -0.077  0.00  0.00    +0.263 A 
ATOM      4  N   LIG    1       -3.035   8.053  -0.180  0.00  0.00    -0.310 N 
ATOM      5  C   LIG    1       -3.371   6.739  -0.217  0.00  0.00    +0.116 A 
ATOM      6  N   LIG    1       -2.494   5.780  -0.157  0.00  0.00    -0.214 NA
ATOM      7  H   LIG    1       -3.822   8.819  -0.235  0.00  0.00    +0.170 HD
ATOM      8  O   LIG    1       -1.415   9.597  -0.043  0.00  0.00    -0.267 OA
ATOM      9  C   LIG    1       -1.179   6.028  -0.053  0.00  0.00    +0.171 A 
ATOM     10  N   LIG    1       -0.069   5.245   0.027  0.00  0.00    -0.211 N 
ATOM     11  N   LIG    1        1.051   6.080   0.126  0.00  0.00    -0.168 NA
ENDROOT
BRANCH  10  12
ATOM     12  C   LIG    1       -0.050   3.844   0.017  0.00  0.00    +0.104 A 
ATOM     13  C   LIG    1       -0.796   3.131   0.947  0.00  0.00    +0.068 A 
ATOM     14 CL   LIG    1       -1.756   3.975   2.122  0.00  0.00    -0.081 Cl
ATOM     15  C   LIG    1       -0.775   1.749   0.935  0.00  0.00    +0.022 A 
ATOM     16  C   LIG    1       -0.011   1.076  -0.001  0.00  0.00    +0.003 A 
ATOM     17  C   LIG    1        0.738   1.782  -0.924  0.00  0.00    +0.022 A 
ATOM     18  C   LIG    1        0.716   3.164  -0.922  0.00  0.00    +0.068 A 
ATOM     19 CL   LIG    1        1.651   4.050  -2.086  0.00  0.00    -0.081 Cl
ENDBRANCH  10  12
BRANCH   1  21
ATOM     20  C   LIG    1        2.357   8.492   1.494  0.00  0.00    +0.014 C 
ATOM     21  C   LIG    1        1.573   8.530   0.181  0.00  0.00    +0.034 C 
ATOM     22  C   LIG    1        2.550   8.512  -0.997  0.00  0.00    +0.014 C 
ENDBRANCH   1  21
BRANCH   5  23
ATOM     23  C   LIG    1       -4.828   6.373  -0.333  0.00  0.00    +0.109 C 
BRANCH  23  24
ATOM     24  C   LIG    1       -4.981   4.878  -0.230  0.00  0.00    -0.040 A 
ATOM     25  C   LIG    1       -4.938   4.100  -1.373  0.00  0.00    +0.007 A 
ATOM     26  C   LIG    1       -5.072   2.728  -1.281  0.00  0.00    +0.046 A 
ATOM     27  C   LIG    1       -5.260   2.132  -0.042  0.00  0.00    +0.121 A 
ATOM     28  C   LIG    1       -5.308   2.915   1.102  0.00  0.00    +0.046 A 
ATOM     29  C   LIG    1       -5.168   4.286   1.005  0.00  0.00    +0.007 A 
BRANCH  27  30
ATOM     30  O   LIG    1       -5.397   0.783   0.050  0.00  0.00    -0.490 OA
BRANCH  30  31
ATOM     31  C   LIG    1       -5.338   0.040  -1.169  0.00  0.00    +0.256 C 
BRANCH  31  32
ATOM     32  C   LIG    1       -5.511  -1.450  -0.867  0.00  0.00    +0.196 C 
BRANCH  32  33
ATOM     33  O   LIG    1       -6.821  -1.682  -0.346  0.00  0.00    -0.392 OA
ATOM     34  H   LIG    1       -7.131  -2.700  -0.069  0.00  0.00    +0.210 HD
ENDBRANCH  32  33
ENDBRANCH  31  32
ENDBRANCH  30  31
ENDBRANCH  27  30
ENDBRANCH  23  24
ENDBRANCH   5  23
TORSDOF 8
