REMARK  Name = ZINC00007042
REMARK                            x       y       z     vdW  Elec       q    Type
REMARK                         _______ _______ _______ _____ _____    ______ ____
ROOT
ATOM      1  C   LIG    1        0.859  -0.529   1.284  0.00  0.00    -0.073 C 
ENDROOT
BRANCH   1   2
ATOM      2  N   LIG    1        2.286  -0.214   1.135  0.00  0.00    +0.380 N 
ATOM      3  H   LIG    1        2.587  -0.458   0.203  0.00  0.00    -0.082 HD
ATOM      4  C   LIG    1        2.494   1.222   1.353  0.00  0.00    -0.079 C 
ATOM      5  C   LIG    1        3.966   1.570   1.118  0.00  0.00    -0.015 C 
ATOM      6  C   LIG    1        4.835   0.772   2.095  0.00  0.00    -0.010 C 
ATOM      7  C   LIG    1        4.554  -0.722   1.910  0.00  0.00    -0.015 C 
ATOM      8  C   LIG    1        3.061  -0.984   2.115  0.00  0.00    -0.079 C 
BRANCH   6   9
ATOM      9  C   LIG    1        6.312   1.055   1.814  0.00  0.00    +0.038 C 
BRANCH   9  10
ATOM     10  C   LIG    1        7.161   0.368   2.852  0.00  0.00    -0.047 A 
ATOM     11  C   LIG    1        7.491   1.026   4.021  0.00  0.00    +0.003 A 
ATOM     12  C   LIG    1        8.270   0.396   4.974  0.00  0.00    +0.000 A 
ATOM     13  C   LIG    1        8.719  -0.893   4.756  0.00  0.00    +0.000 A 
ATOM     14  C   LIG    1        8.388  -1.552   3.587  0.00  0.00    +0.000 A 
ATOM     15  C   LIG    1        7.606  -0.923   2.637  0.00  0.00    +0.003 A 
ENDBRANCH   9  10
ENDBRANCH   6   9
ENDBRANCH   1   2
BRANCH   1  17
ATOM     16  C   LIG    1        0.905  -2.184  -0.588  0.00  0.00    +0.008 C 
ATOM     17  C   LIG    1        0.617  -1.991   0.903  0.00  0.00    +0.002 C 
BRANCH  17  18
ATOM     18  C   LIG    1       -0.840  -2.359   1.192  0.00  0.00    +0.146 C 
BRANCH  18  19
ATOM     19  C   LIG    1       -1.048  -3.829   0.932  0.00  0.00    -0.019 A 
ATOM     20  C   LIG    1       -1.220  -4.284  -0.362  0.00  0.00    +0.010 A 
ATOM     21  C   LIG    1       -1.411  -5.630  -0.603  0.00  0.00    +0.046 A 
ATOM     22  C   LIG    1       -1.430  -6.527   0.456  0.00  0.00    +0.117 A 
ATOM     23  C   LIG    1       -1.257  -6.068   1.753  0.00  0.00    +0.046 A 
ATOM     24  C   LIG    1       -1.061  -4.721   1.988  0.00  0.00    +0.010 A 
BRANCH  22  25
ATOM     25  O   LIG    1       -1.619  -7.852   0.222  0.00  0.00    -0.507 OA
ATOM     26  H   LIG    1       -0.800  -8.346   0.076  0.00  0.00    +0.292 HD
ENDBRANCH  22  25
ENDBRANCH  18  19
BRANCH  18  27
ATOM     27  O   LIG    1       -1.701  -1.599   0.342  0.00  0.00    -0.387 OA
ATOM     28  H   LIG    1       -1.552  -1.746  -0.603  0.00  0.00    +0.210 HD
ENDBRANCH  18  27
ENDBRANCH  17  18
ENDBRANCH   1  17
TORSDOF 8
