REMARK  Name = ZINC00065313
REMARK                            x       y       z     vdW  Elec       q    Type
REMARK                         _______ _______ _______ _____ _____    ______ ____
ROOT
ATOM      1  N   LIG    1        3.622  -0.651  -0.036  0.00  0.00    -0.269 N 
ATOM      2  H   LIG    1        4.452  -0.156  -0.120  0.00  0.00    +0.156 HD
ATOM      3  C   LIG    1        3.645  -1.995   0.058  0.00  0.00    +0.304 C 
ATOM      4  N   LIG    1        4.823  -2.644   0.144  0.00  0.00    -0.296 N 
ATOM      5  H   LIG    1        5.654  -2.144   0.139  0.00  0.00    +0.151 HD
ATOM      6  O   LIG    1        2.603  -2.622   0.065  0.00  0.00    -0.253 OA
ENDROOT
BRANCH   1  10
ATOM      7  C   LIG    1       -0.015   1.381   0.031  0.00  0.00    +0.000 A 
ATOM      8  C   LIG    1        0.140   0.219   0.765  0.00  0.00    +0.002 A 
ATOM      9  C   LIG    1        1.344  -0.457   0.744  0.00  0.00    +0.023 A 
ATOM     10  C   LIG    1        2.400   0.031  -0.014  0.00  0.00    +0.035 A 
ATOM     11  C   LIG    1        2.241   1.198  -0.750  0.00  0.00    +0.023 A 
ATOM     12  C   LIG    1        1.034   1.870  -0.725  0.00  0.00    +0.002 A 
ENDBRANCH   1  10
BRANCH   4  13
ATOM     13  C   LIG    1        4.848  -4.106   0.247  0.00  0.00    +0.074 C 
ATOM     14  C   LIG    1        4.781  -4.716  -1.154  0.00  0.00    +0.022 C 
ATOM     15  C   LIG    1        4.807  -6.242  -1.047  0.00  0.00    +0.002 C 
ATOM     16  C   LIG    1        6.101  -6.683  -0.360  0.00  0.00    +0.000 C 
ATOM     17  C   LIG    1        6.168  -6.072   1.042  0.00  0.00    +0.002 C 
ATOM     18  C   LIG    1        6.142  -4.546   0.934  0.00  0.00    +0.022 C 
ENDBRANCH   4  13
TORSDOF 2
