REMARK  Name = ZINC36237989
REMARK                            x       y       z     vdW  Elec       q    Type
REMARK                         _______ _______ _______ _____ _____    ______ ____
ROOT
ATOM      1  C   LIG    1       -0.032   1.460  -0.163  0.00  0.00    +0.105 C 
ATOM      2  N   LIG    1       -0.005  -0.006  -0.086  0.00  0.00    -0.302 NA
ATOM      3  C   LIG    1        0.504  -0.590  -1.334  0.00  0.00    +0.103 C 
ATOM      4  C   LIG    1        0.347  -2.113  -1.283  0.00  0.00    +0.122 C 
ATOM      5  N   LIG    1        0.991  -2.608  -0.057  0.00  0.00    -0.310 N 
ATOM      6  C   LIG    1        0.632  -1.976   1.222  0.00  0.00    +0.122 C 
ATOM      7  C   LIG    1        0.778  -0.458   1.072  0.00  0.00    +0.103 C 
ENDROOT
BRANCH   5   8
ATOM      8  C   LIG    1        1.915  -3.648  -0.106  0.00  0.00    +0.157 A 
ATOM      9  C   LIG    1        1.479  -4.966   0.014  0.00  0.00    +0.163 A 
ATOM     10  F   LIG    1        0.167  -5.241   0.178  0.00  0.00    -0.202 F 
ATOM     11  C   LIG    1        2.410  -5.989  -0.037  0.00  0.00    +0.043 A 
ATOM     12  C   LIG    1        3.749  -5.659  -0.206  0.00  0.00    +0.023 A 
ATOM     13  C   LIG    1        4.109  -4.332  -0.318  0.00  0.00    +0.113 A 
ATOM     14  N   LIG    1        3.200  -3.376  -0.271  0.00  0.00    -0.237 NA
ENDBRANCH   5   8
TORSDOF 1
