REMARK  Name = ZINC27641781
REMARK                            x       y       z     vdW  Elec       q    Type
REMARK                         _______ _______ _______ _____ _____    ______ ____
ROOT
ATOM      1  C   LIG    1       -0.019   1.532   0.011  0.00  0.00    +0.098 C 
ATOM      2  C   LIG    1        0.002  -0.004   0.002  0.00  0.00    +0.122 C 
ATOM      3  N   LIG    1        0.584  -0.462  -1.257  0.00  0.00    -0.327 N 
ATOM      4  H   LIG    1        0.030  -1.167  -1.894  0.00  0.00    +0.148 HD
ATOM      5  C   LIG    1        1.824  -0.050  -1.709  0.00  0.00    +0.141 A 
ATOM      6  C   LIG    1        2.454   1.099  -1.242  0.00  0.00    +0.113 A 
ATOM      7  C   LIG    1        3.697   1.449  -1.763  0.00  0.00    +0.268 A 
ATOM      8  O   LIG    1        4.333   2.567  -1.335  0.00  0.00    -0.267 OA
ATOM      9  N   LIG    1        4.250   0.668  -2.687  0.00  0.00    -0.294 N 
ATOM     10  H   LIG    1        5.232   0.928  -3.111  0.00  0.00    +0.172 HD
ATOM     11  C   LIG    1        3.630  -0.424  -3.105  0.00  0.00    +0.195 A 
ATOM     12  N   LIG    1        2.447  -0.784  -2.635  0.00  0.00    -0.200 NA
ATOM     13  S   LIG    1        1.707   2.106  -0.003  0.00  0.00    -0.107 S 
ENDROOT
BRANCH   1  17
ATOM     14  C   LIG    1       -1.985   2.936   3.534  0.00  0.00    +0.000 A 
ATOM     15  C   LIG    1       -2.483   3.264   2.287  0.00  0.00    +0.000 A 
ATOM     16  C   LIG    1       -1.847   2.810   1.147  0.00  0.00    +0.005 A 
ATOM     17  C   LIG    1       -0.712   2.027   1.253  0.00  0.00    -0.033 A 
ATOM     18  C   LIG    1       -0.218   1.694   2.500  0.00  0.00    +0.005 A 
ATOM     19  C   LIG    1       -0.851   2.153   3.640  0.00  0.00    +0.000 A 
ENDBRANCH   1  17
BRANCH  11  20
ATOM     20  N   LIG    1        4.240  -1.217  -4.066  0.00  0.00    -0.329 N 
ATOM     21  H   LIG    1        5.223  -0.934  -4.469  0.00  0.00    +0.145 HD
ATOM     22  H   LIG    1        3.740  -2.128  -4.426  0.00  0.00    +0.145 HD
ENDBRANCH  11  20
TORSDOF 2
