REMARK  Name = ZINC13831338
REMARK                            x       y       z     vdW  Elec       q    Type
REMARK                         _______ _______ _______ _____ _____    ______ ____
ROOT
ATOM      1  C   LIG    1       -0.114  -2.745   0.327  0.00  0.00    +0.128 A 
ATOM      2  C   LIG    1       -1.361  -2.118   0.388  0.00  0.00    +0.063 A 
ATOM      3  C   LIG    1       -2.495  -2.895   0.262  0.00  0.00    +0.118 A 
ATOM      4  N   LIG    1       -2.369  -4.202   0.087  0.00  0.00    -0.223 NA
ATOM      5  C   LIG    1       -1.174  -4.771   0.034  0.00  0.00    +0.221 A 
ATOM      6  N   LIG    1       -0.061  -4.060   0.146  0.00  0.00    -0.199 NA
ENDROOT
BRANCH   1   7
ATOM      7  N   LIG    1        1.052  -2.005   0.449  0.00  0.00    -0.299 N 
ATOM      8  H   LIG    1        1.006  -1.047   0.598  0.00  0.00    +0.154 HD
BRANCH   7  13
ATOM      9  C   LIG    1        3.688  -4.547   0.763  0.00  0.00    +0.002 A 
ATOM     10  C   LIG    1        4.755  -3.891   0.176  0.00  0.00    +0.012 A 
ATOM     11  C   LIG    1        4.595  -2.611  -0.321  0.00  0.00    +0.057 A 
ATOM     12  C   LIG    1        3.368  -1.982  -0.232  0.00  0.00    +0.035 A 
ATOM     13  C   LIG    1        2.295  -2.638   0.357  0.00  0.00    +0.033 A 
ATOM     14  C   LIG    1        2.459  -3.924   0.855  0.00  0.00    +0.023 A 
BRANCH  11  15
ATOM     15  C   LIG    1        5.761  -1.900  -0.959  0.00  0.00    +0.417 C 
ATOM     16  F   LIG    1        6.033  -0.724  -0.253  0.00  0.00    -0.166 F 
ATOM     17  F   LIG    1        5.445  -1.585  -2.285  0.00  0.00    -0.166 F 
ATOM     18  F   LIG    1        6.885  -2.731  -0.932  0.00  0.00    -0.166 F 
ENDBRANCH  11  15
ENDBRANCH   7  13
ENDBRANCH   1   7
BRANCH   5  19
ATOM     19  N   LIG    1       -1.085  -6.141  -0.149  0.00  0.00    -0.284 N 
ATOM     20  H   LIG    1       -0.220  -6.579  -0.117  0.00  0.00    +0.155 HD
BRANCH  19  21
ATOM     21  C   LIG    1       -2.241  -6.892  -0.381  0.00  0.00    +0.035 A 
ATOM     22  C   LIG    1       -3.294  -6.343  -1.103  0.00  0.00    +0.023 A 
ATOM     23  C   LIG    1       -4.437  -7.084  -1.332  0.00  0.00    +0.004 A 
ATOM     24  C   LIG    1       -4.537  -8.373  -0.844  0.00  0.00    +0.023 A 
ATOM     25  C   LIG    1       -3.488  -8.928  -0.122  0.00  0.00    +0.035 A 
ATOM     26  C   LIG    1       -2.336  -8.188   0.105  0.00  0.00    +0.046 A 
BRANCH  25  27
ATOM     27  N   LIG    1       -3.591 -10.233   0.373  0.00  0.00    -0.285 N 
ATOM     28  H   LIG    1       -3.167 -10.468   1.212  0.00  0.00    +0.155 HD
ATOM     29  C   LIG    1       -4.280 -11.162  -0.318  0.00  0.00    +0.220 C 
ATOM     30  O   LIG    1       -4.727 -10.896  -1.414  0.00  0.00    -0.275 OA
BRANCH  29  31
ATOM     31  C   LIG    1       -4.495 -12.533   0.271  0.00  0.00    +0.075 C 
ATOM     32  C   LIG    1       -3.773 -13.708  -0.392  0.00  0.00    +0.013 C 
ATOM     33  C   LIG    1       -5.285 -13.544  -0.563  0.00  0.00    +0.013 C 
ENDBRANCH  29  31
ENDBRANCH  25  27
ENDBRANCH  19  21
ENDBRANCH   5  19
TORSDOF 7
