REMARK  Name = ZINC00014479
REMARK                            x       y       z     vdW  Elec       q    Type
REMARK                         _______ _______ _______ _____ _____    ______ ____
ROOT
ATOM      1  C   LIG    1        0.137   1.323  -1.013  0.00  0.00    +0.026 A 
ATOM      2  C   LIG    1        1.273   2.049  -0.712  0.00  0.00    +0.048 A 
ATOM      3  C   LIG    1        2.431   1.394  -0.317  0.00  0.00    +0.129 A 
ATOM      4  C   LIG    1        2.449   0.010  -0.225  0.00  0.00    +0.048 A 
ATOM      5  C   LIG    1        1.314  -0.717  -0.525  0.00  0.00    +0.026 A 
ATOM      6  C   LIG    1        0.154  -0.063  -0.920  0.00  0.00    +0.025 A 
ENDROOT
BRANCH   6   7
ATOM      7  N   LIG    1       -0.996  -0.799  -1.224  0.00  0.00    -0.358 N 
ATOM      8  H   LIG    1       -0.984  -1.767  -1.159  0.00  0.00    +0.142 HD
ATOM      9  H   LIG    1       -1.806  -0.342  -1.500  0.00  0.00    +0.142 HD
ENDBRANCH   6   7
BRANCH   3  10
ATOM     10  O   LIG    1        3.549   2.110  -0.021  0.00  0.00    -0.456 OA
BRANCH  10  11
ATOM     11  C   LIG    1        3.484   3.464  -0.118  0.00  0.00    +0.129 A 
ATOM     12  C   LIG    1        3.105   4.221   0.981  0.00  0.00    +0.048 A 
ATOM     13  C   LIG    1        3.041   5.598   0.881  0.00  0.00    +0.023 A 
ATOM     14  C   LIG    1        3.352   6.221  -0.315  0.00  0.00    +0.041 A 
ATOM     15 CL   LIG    1        3.270   7.950  -0.438  0.00  0.00    -0.084 Cl
ATOM     16  C   LIG    1        3.729   5.467  -1.412  0.00  0.00    +0.023 A 
ATOM     17  C   LIG    1        3.801   4.091  -1.314  0.00  0.00    +0.048 A 
ENDBRANCH  10  11
ENDBRANCH   3  10
TORSDOF 3
