REMARK  Name = ZINC28768623
REMARK                            x       y       z     vdW  Elec       q    Type
REMARK                         _______ _______ _______ _____ _____    ______ ____
ROOT
ATOM      1  C   LIG    1       -1.375  -2.542  -1.568  0.00  0.00    -0.015 C 
ATOM      2  C   LIG    1       -1.418  -4.065  -1.709  0.00  0.00    -0.081 C 
ATOM      3  N   LIG    1       -2.751  -4.554  -1.334  0.00  0.00    +0.388 N 
ATOM      4  H1  LIG    1       -2.791  -5.646  -1.466  0.00  0.00    -0.085 HD
ATOM      5  H2  LIG    1       -3.509  -4.080  -1.974  0.00  0.00    -0.085 HD
ATOM      6  CA  LIG    1       -3.057  -4.240   0.067  0.00  0.00    +0.039 C 
ATOM      7  C   LIG    1       -3.063  -2.722   0.262  0.00  0.00    -0.001 C 
ATOM      8  C   LIG    1       -1.690  -2.159  -0.119  0.00  0.00    -0.002 C 
ENDROOT
BRANCH   6   9
ATOM      9  C   LIG    1       -4.412  -4.796   0.422  0.00  0.00    +0.291 C 
ATOM     10  O   LIG    1       -5.204  -5.063  -0.452  0.00  0.00    -0.253 OA
BRANCH   9  11
ATOM     11  OXT LIG    1       -4.740  -4.996   1.708  0.00  0.00    -0.482 OA
ATOM     12  HXT LIG    1       -4.127  -4.789   2.385  0.00  0.00    +0.295 HD
ENDBRANCH   9  11
ENDBRANCH   6   9
BRANCH   8  13
ATOM     13  C   LIG    1       -1.708  -0.635   0.015  0.00  0.00    +0.130 C 
BRANCH  13  14
ATOM     14  P   LIG    1        0.002  -0.004   0.002  0.00  0.00    +0.328 P 
ATOM     15  O   LIG    1        0.695  -0.481  -1.216  0.00  0.00    -0.259 OA
BRANCH  14  16
ATOM     16  O   LIG    1        0.781  -0.537   1.306  0.00  0.00    -0.324 OA
ATOM     17  H   LIG    1        1.832  -0.258   1.472  0.00  0.00    +0.220 HD
ENDBRANCH  14  16
BRANCH  14  18
ATOM     18  O   LIG    1       -0.020   1.606   0.011  0.00  0.00    -0.324 OA
ATOM     19  H   LIG    1       -0.489   1.927  -0.775  0.00  0.00    +0.220 HD
ENDBRANCH  14  18
ENDBRANCH  13  14
ENDBRANCH   8  13
TORSDOF 6
