REMARK  Name = ZINC22935274
REMARK                            x       y       z     vdW  Elec       q    Type
REMARK                         _______ _______ _______ _____ _____    ______ ____
ROOT
ATOM      1  N   LIG    1       -1.232   2.082  -0.002  0.00  0.00    -0.281 N 
ATOM      2  H   LIG    1       -2.091   1.686  -0.563  0.00  0.00    +0.155 HD
ATOM      3  C   LIG    1       -1.353   3.229   0.696  0.00  0.00    +0.254 C 
ATOM      4  O   LIG    1       -0.380   3.716   1.240  0.00  0.00    -0.270 OA
ENDROOT
BRANCH   3   5
ATOM      5  C   LIG    1       -2.662   3.892   0.798  0.00  0.00    +0.102 A 
ATOM      6  C   LIG    1       -2.776   5.140   1.403  0.00  0.00    +0.028 A 
ATOM      7  C   LIG    1       -4.043   5.741   1.481  0.00  0.00    -0.001 A 
ATOM      8  C   LIG    1       -5.142   5.091   0.961  0.00  0.00    +0.094 A 
ATOM      9  N   LIG    1       -5.021   3.882   0.376  0.00  0.00    -0.328 N 
ATOM     10  H   LIG    1       -5.910   3.376  -0.029  0.00  0.00    +0.168 HD
ATOM     11  C   LIG    1       -3.826   3.272   0.275  0.00  0.00    +0.261 A 
ATOM     12  O   LIG    1       -3.745   2.181  -0.263  0.00  0.00    -0.267 OA
BRANCH   7  13
ATOM     13  C   LIG    1       -4.199   7.071   2.121  0.00  0.00    -0.013 A 
ATOM     14  C   LIG    1       -3.942   7.225   3.482  0.00  0.00    +0.012 A 
ATOM     15  C   LIG    1       -4.086   8.462   4.076  0.00  0.00    +0.050 A 
ATOM     16  C   LIG    1       -4.487   9.555   3.323  0.00  0.00    +0.166 A 
ATOM     17  C   LIG    1       -4.746   9.406   1.962  0.00  0.00    +0.167 A 
ATOM     18  O   LIG    1       -5.120  10.617   1.454  0.00  0.00    -0.453 OA
ATOM     19  C   LIG    1       -5.483  11.417   2.595  0.00  0.00    +0.466 C 
ATOM     20  O   LIG    1       -4.700  10.859   3.667  0.00  0.00    -0.453 OA
ATOM     21  C   LIG    1       -4.596   8.169   1.361  0.00  0.00    +0.058 A 
ENDBRANCH   7  13
ENDBRANCH   3   5
BRANCH   1  25
ATOM     22  C   LIG    1        2.397   0.037  -0.042  0.00  0.00    -0.064 A 
ATOM     23  C   LIG    1        1.208  -0.668  -0.058  0.00  0.00    +0.003 A 
ATOM     24  C   LIG    1        0.003   0.007  -0.042  0.00  0.00    +0.023 A 
ATOM     25  C   LIG    1       -0.013   1.395  -0.011  0.00  0.00    +0.034 A 
ATOM     26  C   LIG    1        1.183   2.100   0.005  0.00  0.00    +0.023 A 
ATOM     27  C   LIG    1        2.385   1.419  -0.011  0.00  0.00    +0.003 A 
BRANCH  22  28
ATOM     28  C   LIG    1        3.710  -0.703  -0.058  0.00  0.00    -0.043 C 
BRANCH  28  33
ATOM     29  C   LIG    1        5.458  -2.663  -5.058  0.00  0.00    +0.104 C 
ATOM     30  N   LIG    1        5.031  -2.453  -3.668  0.00  0.00    -0.309 NA
ATOM     31  C   LIG    1        5.949  -1.545  -2.967  0.00  0.00    +0.065 C 
ATOM     32  C   LIG    1        5.516  -1.416  -1.505  0.00  0.00    -0.063 C 
ATOM     33  N   LIG    1        4.137  -0.913  -1.448  0.00  0.00    +0.384 N 
ATOM     34  H   LIG    1        4.109   0.061  -1.959  0.00  0.00    -0.081 HD
ATOM     35  C   LIG    1        3.219  -1.821  -2.149  0.00  0.00    -0.063 C 
ATOM     36  C   LIG    1        3.652  -1.950  -3.611  0.00  0.00    +0.065 C 
ENDBRANCH  28  33
ENDBRANCH  22  28
ENDBRANCH   1  25
TORSDOF 5
