REMARK  Name = ZINC16052425
REMARK                            x       y       z     vdW  Elec       q    Type
REMARK                         _______ _______ _______ _____ _____    ______ ____
ROOT
ATOM      1  C   LIG    1        1.403   4.091   1.409  0.00  0.00    +0.110 A 
ATOM      2  C   LIG    1        2.616   4.362   1.941  0.00  0.00    +0.046 A 
ATOM      3  C   LIG    1        2.402   4.800   3.257  0.00  0.00    +0.057 A 
ATOM      4  C   LIG    1        1.052   4.766   3.467  0.00  0.00    +0.211 A 
ATOM      5  O   LIG    1        0.464   4.333   2.333  0.00  0.00    -0.453 OA
ENDROOT
BRANCH   4   6
ATOM      6  C   LIG    1        0.364   5.136   4.706  0.00  0.00    +0.372 C 
ATOM      7  O   LIG    1        1.005   5.516   5.668  0.00  0.00    -0.242 OA
BRANCH   6   8
ATOM      8  O   LIG    1       -0.980   5.057   4.781  0.00  0.00    -0.475 OA
ATOM      9  H   LIG    1       -1.474   4.765   4.040  0.00  0.00    +0.296 HD
ENDBRANCH   6   8
ENDBRANCH   4   6
BRANCH   1  10
ATOM     10  C   LIG    1        1.150   3.592   0.010  0.00  0.00    +0.111 C 
BRANCH  10  16
ATOM     11  C   LIG    1        0.002  -0.004   0.002  0.00  0.00    +0.000 A 
ATOM     12  C   LIG    1        1.208  -0.680  -0.013  0.00  0.00    +0.001 A 
ATOM     13  C   LIG    1        2.396   0.027  -0.021  0.00  0.00    +0.020 A 
ATOM     14  C   LIG    1        2.378   1.410  -0.013  0.00  0.00    +0.045 A 
ATOM     15 CL   LIG    1        3.870   2.298  -0.023  0.00  0.00    -0.083 Cl
ATOM     16  C   LIG    1        1.171   2.086   0.002  0.00  0.00    -0.022 A 
ATOM     17  C   LIG    1       -0.017   1.378   0.010  0.00  0.00    +0.005 A 
ENDBRANCH  10  16
ENDBRANCH   1  10
TORSDOF 4
