REMARK  Name = ZINC28570579
REMARK                            x       y       z     vdW  Elec       q    Type
REMARK                         _______ _______ _______ _____ _____    ______ ____
ROOT
ATOM      1  C   UNK    1        1.417   2.055  -0.000  0.00  0.00    +0.068 C 
ENDROOT
BRANCH   1   2
ATOM      2  S   UNK    1        1.392   3.869   0.009  0.00  0.00    -0.156 S 
BRANCH   2   3
ATOM      3  C   UNK    1        3.146   4.332  -0.005  0.00  0.00    +0.107 C 
BRANCH   3   9
ATOM      4  C   UNK    1        3.338   6.519   1.206  0.00  0.00    +0.124 A 
ATOM      5  C   UNK    1        3.452   7.902   1.209  0.00  0.00    +0.046 A 
ATOM      6  C   UNK    1        3.497   8.593   0.014  0.00  0.00    +0.004 A 
ATOM      7  C   UNK    1        3.429   7.907  -1.185  0.00  0.00    +0.001 A 
ATOM      8  C   UNK    1        3.320   6.529  -1.191  0.00  0.00    +0.008 A 
ATOM      9  C   UNK    1        3.269   5.834   0.002  0.00  0.00    +0.004 A 
BRANCH   4  11
ATOM     10  C   UNK    1        3.369   6.608   3.582  0.00  0.00    +0.277 C 
ATOM     11  O   UNK    1        3.293   5.837   2.381  0.00  0.00    -0.495 OA
ENDBRANCH   4  11
ENDBRANCH   3   9
ENDBRANCH   2   3
ENDBRANCH   1   2
BRANCH   1  12
ATOM     12  C   UNK    1       -0.019   1.526   0.010  0.00  0.00    +0.005 C 
BRANCH  12  13
ATOM     13  C   UNK    1        0.002  -0.004   0.002  0.00  0.00    +0.036 C 
BRANCH  13  14
ATOM     14  N   UNK    1        0.582  -0.479  -1.261  0.00  0.00    +0.387 N 
ATOM     15  H   UNK    1       -0.026  -0.116  -2.103  0.00  0.00    -0.089 HD
ATOM     16  H   UNK    1        1.609  -0.098  -1.360  0.00  0.00    -0.089 HD
ATOM     17  H   UNK    1        0.597  -1.579  -1.267  0.00  0.00    -0.089 HD
ENDBRANCH  13  14
BRANCH  13  18
ATOM     18  C   UNK    1       -1.405  -0.526   0.137  0.00  0.00    +0.290 C 
ATOM     19  O   UNK    1       -2.006  -0.902  -0.842  0.00  0.00    -0.253 OA
BRANCH  18  20
ATOM     20  O   UNK    1       -1.991  -0.574   1.343  0.00  0.00    -0.482 OA
ATOM     21  H   UNK    1       -1.525  -0.283   2.102  0.00  0.00    +0.295 HD
ENDBRANCH  18  20
ENDBRANCH  13  18
ENDBRANCH  12  13
ENDBRANCH   1  12
TORSDOF 9
