REMARK  Name = ZINC28526494
REMARK                            x       y       z     vdW  Elec       q    Type
REMARK                         _______ _______ _______ _____ _____    ______ ____
ROOT
ATOM      1  C   LIG    1        1.238  -2.186  -0.022  0.00  0.00    +0.160 C 
ENDROOT
BRANCH   1   7
ATOM      2  C   LIG    1        0.002  -0.004   0.002  0.00  0.00    +0.126 A 
ATOM      3  C   LIG    1       -0.017   1.383   0.010  0.00  0.00    +0.046 A 
ATOM      4  C   LIG    1        1.171   2.089   0.002  0.00  0.00    +0.004 A 
ATOM      5  C   LIG    1        2.377   1.414  -0.013  0.00  0.00    +0.001 A 
ATOM      6  C   LIG    1        2.399   0.032  -0.021  0.00  0.00    +0.010 A 
ATOM      7  C   LIG    1        1.214  -0.679  -0.013  0.00  0.00    +0.023 A 
BRANCH   2   8
ATOM      8  O   LIG    1       -1.165  -0.701   0.010  0.00  0.00    -0.492 OA
BRANCH   8   9
ATOM      9  C   LIG    1       -2.374   0.060   0.026  0.00  0.00    +0.229 C 
BRANCH   9  10
ATOM     10  C   LIG    1       -3.574  -0.889   0.033  0.00  0.00    +0.041 C 
BRANCH  10  11
ATOM     11  C   LIG    1       -4.869  -0.075   0.050  0.00  0.00    +0.003 C 
BRANCH  11  13
ATOM     12  C   LIG    1       -7.364  -0.210   0.074  0.00  0.00    +0.004 C 
ATOM     13  C   LIG    1       -6.069  -1.025   0.057  0.00  0.00    -0.003 C 
ENDBRANCH  11  13
ENDBRANCH  10  11
ENDBRANCH   9  10
ENDBRANCH   8   9
ENDBRANCH   2   8
ENDBRANCH   1   7
BRANCH   1  14
ATOM     14  O   LIG    1        2.461  -2.639  -0.606  0.00  0.00    -0.386 OA
ATOM     15  H   LIG    1        2.660  -3.717  -0.698  0.00  0.00    +0.210 HD
ENDBRANCH   1  14
BRANCH   1  16
ATOM     16  C   LIG    1        1.134  -2.706   1.413  0.00  0.00    +0.125 C 
BRANCH  16  17
ATOM     17  C   LIG    1        1.037  -4.175   1.397  0.00  0.00    -0.099 C 
ATOM     18  C   LIG    1        0.959  -5.346   1.384  0.00  0.00    -0.102 C 
BRANCH  18  19
ATOM     19  C   LIG    1        0.862  -6.814   1.368  0.00  0.00    +0.089 C 
BRANCH  19  20
ATOM     20  C   LIG    1        0.758  -7.335   2.803  0.00  0.00    +0.024 C 
BRANCH  20  21
ATOM     21  C   LIG    1        0.657  -8.861   2.786  0.00  0.00    +0.121 C 
BRANCH  21  22
ATOM     22  C   LIG    1        0.554  -9.373   4.199  0.00  0.00    +0.307 C 
ATOM     23  O   LIG    1        0.561  -8.597   5.125  0.00  0.00    -0.251 OA
BRANCH  22  24
ATOM     24  O   LIG    1        0.455 -10.692   4.430  0.00  0.00    -0.468 OA
ATOM     25  C   LIG    1        0.360 -11.114   5.816  0.00  0.00    +0.280 C 
ENDBRANCH  22  24
ENDBRANCH  21  22
ENDBRANCH  20  21
ENDBRANCH  19  20
ENDBRANCH  18  19
ENDBRANCH  16  17
ENDBRANCH   1  16
TORSDOF 14
