REMARK  Name = ZINC27556112
REMARK                            x       y       z     vdW  Elec       q    Type
REMARK                         _______ _______ _______ _____ _____    ______ ____
ROOT
ATOM      1  C   LIG    1       -2.646  -0.198   2.234  0.00  0.00    +0.024 A 
ATOM      2  C   LIG    1       -3.260  -0.042   3.417  0.00  0.00    -0.010 A 
ATOM      3  C   LIG    1       -4.050   1.189   3.331  0.00  0.00    +0.007 A 
ATOM      4  C   LIG    1       -4.892   1.864   4.217  0.00  0.00    +0.056 A 
ATOM      5  C   LIG    1       -5.505   3.035   3.818  0.00  0.00    +0.121 A 
ATOM      6  C   LIG    1       -5.285   3.541   2.539  0.00  0.00    +0.048 A 
ATOM      7  C   LIG    1       -4.457   2.884   1.657  0.00  0.00    +0.030 A 
ATOM      8  C   LIG    1       -3.831   1.702   2.040  0.00  0.00    +0.050 A 
ATOM      9  N   LIG    1       -2.969   0.837   1.400  0.00  0.00    -0.339 N 
ENDROOT
BRANCH   1  11
ATOM     10  C   LIG    1       -0.309  -1.021   2.341  0.00  0.00    +0.010 C 
ATOM     11  C   LIG    1       -1.731  -1.342   1.878  0.00  0.00    +0.050 C 
ENDBRANCH   1  11
BRANCH   2  12
ATOM     12  C   LIG    1       -3.162  -0.963   4.606  0.00  0.00    +0.133 C 
BRANCH  12  13
ATOM     13  C   LIG    1       -4.238  -2.014   4.518  0.00  0.00    +0.215 C 
ATOM     14  N   LIG    1       -4.344  -2.953   5.479  0.00  0.00    -0.329 N 
ATOM     15  H   LIG    1       -3.645  -2.951   6.329  0.00  0.00    +0.145 HD
ATOM     16  H   LIG    1       -5.129  -3.720   5.415  0.00  0.00    +0.145 HD
ATOM     17  O   LIG    1       -5.009  -2.016   3.581  0.00  0.00    -0.276 OA
ENDBRANCH  12  13
ENDBRANCH   2  12
BRANCH   5  18
ATOM     18  O   LIG    1       -6.325   3.697   4.677  0.00  0.00    -0.492 OA
BRANCH  18  19
ATOM     19  C   LIG    1       -6.926   4.903   4.201  0.00  0.00    +0.229 C 
BRANCH  19  20
ATOM     20  C   LIG    1       -7.808   5.501   5.299  0.00  0.00    +0.053 C 
BRANCH  20  21
ATOM     21  C   LIG    1       -8.452   6.792   4.788  0.00  0.00    +0.130 C 
BRANCH  21  22
ATOM     22  P   LIG    1       -9.502   7.505   6.096  0.00  0.00    +0.328 P 
ATOM     23  O   LIG    1       -8.700   7.692   7.326  0.00  0.00    -0.259 OA
BRANCH  22  24
ATOM     24  O   LIG    1      -10.729   6.509   6.402  0.00  0.00    -0.324 OA
ATOM     25  H   LIG    1      -11.474   6.772   7.167  0.00  0.00    +0.220 HD
ENDBRANCH  22  24
BRANCH  22  26
ATOM     26  O   LIG    1      -10.075   8.928   5.608  0.00  0.00    -0.324 OA
ATOM     27  H   LIG    1       -9.336   9.529   5.424  0.00  0.00    +0.220 HD
ENDBRANCH  22  26
ENDBRANCH  21  22
ENDBRANCH  20  21
ENDBRANCH  19  20
ENDBRANCH  18  19
ENDBRANCH   5  18
BRANCH   9  28
ATOM     28  C   LIG    1       -2.478   0.999   0.029  0.00  0.00    +0.157 C 
BRANCH  28  29
ATOM     29  C   LIG    1       -3.468   0.397  -0.934  0.00  0.00    -0.028 A 
ATOM     30  C   LIG    1       -4.542   1.145  -1.379  0.00  0.00    +0.005 A 
ATOM     31  C   LIG    1       -5.447   0.595  -2.267  0.00  0.00    +0.000 A 
ATOM     32  C   LIG    1       -5.282  -0.706  -2.705  0.00  0.00    +0.000 A 
ATOM     33  C   LIG    1       -4.212  -1.456  -2.255  0.00  0.00    +0.000 A 
ATOM     34  C   LIG    1       -3.306  -0.905  -1.368  0.00  0.00    +0.005 A 
ENDBRANCH  28  29
ENDBRANCH   9  28
TORSDOF 12
