REMARK  Name = ZINC43019356
REMARK                            x       y       z     vdW  Elec       q    Type
REMARK                         _______ _______ _______ _____ _____    ______ ____
ROOT
ATOM      1  C   LIG    1        2.582  -5.292   0.466  0.00  0.00    +0.081 C 
ATOM      2  C   LIG    1        1.785  -6.099  -0.561  0.00  0.00    +0.032 C 
ATOM      3  C   LIG    1        2.656  -7.241  -1.095  0.00  0.00    +0.110 C 
ATOM      4  N   LIG    1        3.149  -8.030   0.042  0.00  0.00    -0.285 N 
ATOM      5  C   LIG    1        2.961  -9.364   0.085  0.00  0.00    +0.306 C 
ATOM      6  N   LIG    1        3.510 -10.091   1.079  0.00  0.00    -0.269 N 
ATOM      7  H   LIG    1        3.975  -9.646   1.805  0.00  0.00    +0.156 HD
ATOM      8  O   LIG    1        2.297  -9.912  -0.773  0.00  0.00    -0.252 OA
ATOM      9  C   LIG    1        3.852  -7.338   1.131  0.00  0.00    +0.110 C 
ATOM     10  C   LIG    1        2.967  -6.195   1.640  0.00  0.00    +0.032 C 
ENDROOT
BRANCH   6  11
ATOM     11  C   LIG    1        3.409 -11.486   1.064  0.00  0.00    +0.035 A 
ATOM     12  C   LIG    1        3.411 -12.171  -0.144  0.00  0.00    +0.024 A 
ATOM     13  C   LIG    1        3.312 -13.549  -0.156  0.00  0.00    +0.014 A 
ATOM     14  C   LIG    1        3.210 -14.246   1.034  0.00  0.00    +0.055 A 
ATOM     15  C   LIG    1        3.207 -13.567   2.239  0.00  0.00    +0.014 A 
ATOM     16  C   LIG    1        3.312 -12.190   2.257  0.00  0.00    +0.024 A 
BRANCH  14  17
ATOM     17  C   LIG    1        3.102 -15.749   1.017  0.00  0.00    +0.417 C 
ATOM     18  F   LIG    1        2.460 -16.157  -0.157  0.00  0.00    -0.166 F 
ATOM     19  F   LIG    1        2.361 -16.175   2.125  0.00  0.00    -0.166 F 
ATOM     20  F   LIG    1        4.382 -16.309   1.069  0.00  0.00    -0.166 F 
ENDBRANCH  14  17
ENDBRANCH   6  11
BRANCH   1  23
ATOM     21  C   LIG    1        1.062  -2.137   1.419  0.00  0.00    +0.220 A 
ATOM     22  N   LIG    1        2.034  -2.883   0.865  0.00  0.00    -0.190 NA
ATOM     23  C   LIG    1        1.740  -4.148   0.969  0.00  0.00    +0.231 A 
ATOM     24  O   LIG    1        0.562  -4.259   1.596  0.00  0.00    -0.337 OA
ATOM     25  N   LIG    1        0.137  -2.937   1.888  0.00  0.00    -0.054 NA
BRANCH  21  30
ATOM     26  C   LIG    1       -0.030   1.377   2.163  0.00  0.00    +0.004 A 
ATOM     27  C   LIG    1        1.040   2.066   1.612  0.00  0.00    +0.020 A 
ATOM     28  C   LIG    1        2.071   1.358   1.022  0.00  0.00    +0.111 A 
ATOM     29  N   LIG    1        2.049   0.042   0.978  0.00  0.00    -0.252 NA
ATOM     30  C   LIG    1        1.044  -0.654   1.493  0.00  0.00    +0.111 A 
ATOM     31  C   LIG    1       -0.027  -0.006   2.103  0.00  0.00    +0.031 A 
ENDBRANCH  21  30
ENDBRANCH   1  23
TORSDOF 4
