REMARK  Name = ZINC28232237
REMARK                            x       y       z     vdW  Elec       q    Type
REMARK                         _______ _______ _______ _____ _____    ______ ____
ROOT
ATOM      1  N   LIG    1        2.353   3.888   0.000  0.00  0.00    -0.327 N 
ATOM      2  C   LIG    1        2.507   4.671   1.234  0.00  0.00    +0.120 C 
ATOM      3  C   LIG    1        3.864   5.378   1.221  0.00  0.00    +0.103 C 
ATOM      4  N   LIG    1        3.952   6.243   0.037  0.00  0.00    -0.294 NA
ATOM      5  C   LIG    1        3.799   5.460  -1.197  0.00  0.00    +0.103 C 
ATOM      6  C   LIG    1        2.441   4.753  -1.185  0.00  0.00    +0.120 C 
ENDROOT
BRANCH   1  13
ATOM      7  C   LIG    1       -2.561   3.863   0.047  0.00  0.00    +0.044 C 
ATOM      8  C   LIG    1       -1.243   3.133   0.031  0.00  0.00    -0.049 A 
ATOM      9  C   LIG    1       -1.220   1.750   0.017  0.00  0.00    +0.004 A 
ATOM     10  C   LIG    1       -0.013   1.076   0.008  0.00  0.00    +0.005 A 
ATOM     11  C   LIG    1        1.175   1.782   0.000  0.00  0.00    -0.029 A 
ATOM     12  C   LIG    1        2.490   1.046  -0.017  0.00  0.00    +0.045 C 
ATOM     13  C   LIG    1        1.155   3.171   0.008  0.00  0.00    +0.033 A 
ATOM     14  C   LIG    1       -0.060   3.845   0.023  0.00  0.00    +0.026 A 
ENDBRANCH   1  13
BRANCH   4  15
ATOM     15  C   LIG    1        5.213   6.997   0.028  0.00  0.00    +0.085 C 
ATOM     16  C   LIG    1        5.227   7.954  -1.166  0.00  0.00    +0.021 C 
ATOM     17  C   LIG    1        6.540   8.740  -1.175  0.00  0.00    +0.002 C 
ATOM     18  C   LIG    1        6.663   9.541   0.123  0.00  0.00    +0.003 C 
ATOM     19  C   LIG    1        6.649   8.584   1.317  0.00  0.00    +0.033 C 
ATOM     20  C   LIG    1        5.336   7.799   1.326  0.00  0.00    +0.132 C 
BRANCH  20  21
ATOM     21  O   LIG    1        4.238   8.707   1.431  0.00  0.00    -0.390 OA
ATOM     22  H   LIG    1        4.156   9.372   2.303  0.00  0.00    +0.210 HD
ENDBRANCH  20  21
ENDBRANCH   4  15
TORSDOF 3
