REMARK  Name = ZINC20217125
REMARK                            x       y       z     vdW  Elec       q    Type
REMARK                         _______ _______ _______ _____ _____    ______ ____
ROOT
ATOM      1  C   LIG    1       -2.217  -4.182   0.713  0.00  0.00    +0.016 C 
ATOM      2  C   LIG    1       -2.298  -2.816   0.747  0.00  0.00    +0.009 C 
ATOM      3  C   LIG    1       -1.164  -2.078   0.377  0.00  0.00    +0.038 C 
ATOM      4  C   LIG    1       -1.163  -0.666   0.382  0.00  0.00    +0.061 C 
ATOM      5  C   LIG    1        0.002  -0.004   0.002  0.00  0.00    +0.023 C 
ATOM      6  C   LIG    1        1.116  -0.737  -0.364  0.00  0.00    +0.060 C 
ATOM      7  C   LIG    1        2.411  -0.076  -0.769  0.00  0.00    +0.019 C 
ATOM      8  C   LIG    1        2.176   1.385  -1.141  0.00  0.00    +0.002 C 
ATOM      9  C   LIG    1        1.404   2.058  -0.000  0.00  0.00    +0.000 C 
ATOM     10  N   LIG    1        1.092  -2.059  -0.366  0.00  0.00    -0.298 NA
ATOM     11  H   LIG    1        1.986  -2.626  -0.665  0.00  0.00    +0.124 HD
ATOM     12  C   LIG    1       -0.018   1.501   0.010  0.00  0.00    +0.006 C 
ATOM     13  C   LIG    1        0.013  -2.760  -0.015  0.00  0.00    +0.126 C 
ATOM     14  N   LIG    1        0.025  -4.098  -0.026  0.00  0.00    -0.301 NA
ATOM     15  H   LIG    1        0.776  -4.384   0.602  0.00  0.00    +0.123 HD
ATOM     16  C   LIG    1       -1.032  -4.794   0.319  0.00  0.00    +0.082 C 
ENDROOT
BRANCH   4  17
ATOM     17  N   LIG    1       -2.292   0.044   0.757  0.00  0.00    -0.327 NA
ATOM     18  H   LIG    1       -3.205  -0.493   1.055  0.00  0.00    +0.118 HD
ATOM     19  H   LIG    1       -2.276   1.144   0.756  0.00  0.00    +0.118 HD
ENDBRANCH   4  17
TORSDOF 1
