REMARK  Name = ZINC14970819
REMARK                            x       y       z     vdW  Elec       q    Type
REMARK                         _______ _______ _______ _____ _____    ______ ____
ROOT
ATOM      1  N   LIG    1       -0.011   0.966   0.007  0.00  0.00    -0.280 N 
ATOM      2  H   LIG    1       -0.095  -0.001   0.019  0.00  0.00    +0.155 HD
ATOM      3  C   LIG    1        1.210   1.536  -0.020  0.00  0.00    +0.248 C 
ATOM      4  O   LIG    1        1.314   2.744  -0.117  0.00  0.00    -0.270 OA
ENDROOT
BRANCH   3   5
ATOM      5  C   LIG    1        2.421   0.694   0.067  0.00  0.00    +0.039 A 
ATOM      6  C   LIG    1        2.294  -0.702   0.184  0.00  0.00    +0.015 A 
ATOM      7  C   LIG    1        3.392  -1.496   0.260  0.00  0.00    +0.030 A 
ATOM      8  C   LIG    1        4.678  -0.927   0.233  0.00  0.00    +0.089 A 
ATOM      9  C   LIG    1        4.820   0.480   0.121  0.00  0.00    +0.090 A 
ATOM     10  N   LIG    1        6.043   1.021   0.097  0.00  0.00    -0.252 NA
ATOM     11  C   LIG    1        7.100   0.246   0.177  0.00  0.00    +0.131 A 
ATOM     12  C   LIG    1        6.961  -1.140   0.287  0.00  0.00    +0.131 A 
ATOM     13  N   LIG    1        5.771  -1.695   0.313  0.00  0.00    -0.252 NA
ATOM     14  C   LIG    1        3.673   1.285   0.038  0.00  0.00    +0.043 A 
ENDBRANCH   3   5
BRANCH   1  18
ATOM     15  C   LIG    1       -3.430   3.357   0.026  0.00  0.00    +0.002 A 
ATOM     16  C   LIG    1       -2.311   3.753  -0.682  0.00  0.00    +0.002 A 
ATOM     17  C   LIG    1       -1.175   2.966  -0.686  0.00  0.00    +0.025 A 
ATOM     18  C   LIG    1       -1.159   1.768   0.014  0.00  0.00    +0.055 A 
ATOM     19  C   LIG    1       -2.288   1.368   0.729  0.00  0.00    +0.046 A 
ATOM     20  C   LIG    1       -3.422   2.168   0.731  0.00  0.00    +0.024 A 
BRANCH  19  21
ATOM     21  N   LIG    1       -2.277   0.165   1.442  0.00  0.00    -0.357 N 
ATOM     22  H   LIG    1       -3.063  -0.112   1.939  0.00  0.00    +0.142 HD
ATOM     23  H   LIG    1       -1.483  -0.393   1.440  0.00  0.00    +0.142 HD
ENDBRANCH  19  21
ENDBRANCH   1  18
TORSDOF 3
