REMARK  Name = ZINC53276053
REMARK                            x       y       z     vdW  Elec       q    Type
REMARK                         _______ _______ _______ _____ _____    ______ ____
ROOT
ATOM      1  C   LIG    1        2.418  -0.598   5.590  0.00  0.00    +0.129 C 
ATOM      2  N   LIG    1        2.368  -0.194   6.860  0.00  0.00    -0.365 N 
ATOM      3  H   LIG    1        1.649   0.385   7.157  0.00  0.00    +0.162 HD
ENDROOT
BRANCH   2   4
ATOM      4  C   LIG    1        3.400  -0.625   7.806  0.00  0.00    +0.081 C 
ATOM      5  C   LIG    1        2.877  -1.804   8.629  0.00  0.00    +0.024 C 
ATOM      6  C   LIG    1        3.954  -2.254   9.618  0.00  0.00    +0.002 C 
ATOM      7  C   LIG    1        4.304  -1.095  10.553  0.00  0.00    +0.000 C 
ATOM      8  C   LIG    1        4.828   0.084   9.730  0.00  0.00    +0.002 C 
ATOM      9  C   LIG    1        3.750   0.534   8.742  0.00  0.00    +0.024 C 
ENDBRANCH   2   4
BRANCH   1  10
ATOM     10  N   LIG    1        3.378  -1.433   5.194  0.00  0.00    -0.323 N 
ATOM     11  H   LIG    1        4.310  -1.183   5.294  0.00  0.00    +0.148 HD
BRANCH  10  12
ATOM     12  C   LIG    1        3.027  -2.728   4.606  0.00  0.00    +0.072 C 
ATOM     13  C   LIG    1        3.056  -3.805   5.692  0.00  0.00    +0.022 C 
ATOM     14  C   LIG    1        2.689  -5.158   5.079  0.00  0.00    +0.002 C 
ATOM     15  C   LIG    1        3.696  -5.511   3.983  0.00  0.00    +0.000 C 
ATOM     16  C   LIG    1        3.667  -4.434   2.897  0.00  0.00    +0.002 C 
ATOM     17  C   LIG    1        4.035  -3.082   3.511  0.00  0.00    +0.022 C 
ENDBRANCH  10  12
ENDBRANCH   1  10
BRANCH   1  18
ATOM     18  S   LIG    1        1.213  -0.029   4.437  0.00  0.00    -0.087 S 
BRANCH  18  19
ATOM     19  C   LIG    1        1.792  -0.675   2.844  0.00  0.00    +0.131 C 
BRANCH  19  27
ATOM     20  C   LIG    1        1.799   4.442   0.899  0.00  0.00    +0.033 C 
ATOM     21  C   LIG    1        2.025   3.089   0.221  0.00  0.00    +0.046 C 
ATOM     22  N   LIG    1        0.792   2.624  -0.427  0.00  0.00    -0.318 N 
ATOM     23  H   LIG    1        0.322   3.076  -1.145  0.00  0.00    +0.148 HD
ATOM     24  C   LIG    1        0.417   1.433   0.159  0.00  0.00    +0.139 A 
ATOM     25  S   LIG    1       -0.788   0.261   0.060  0.00  0.00    -0.062 S 
ATOM     26  C   LIG    1       -0.186  -0.815   1.349  0.00  0.00    +0.070 A 
ATOM     27  C   LIG    1        0.915  -0.145   1.739  0.00  0.00    +0.038 A 
ATOM     28  N   LIG    1        1.212   1.012   1.115  0.00  0.00    -0.324 N 
ATOM     29  C   LIG    1        3.168   3.180  -0.792  0.00  0.00    +0.033 C 
ATOM     30  C   LIG    1        2.315   2.003   1.266  0.00  0.00    +0.149 C 
ENDBRANCH  19  27
ENDBRANCH  18  19
ENDBRANCH   1  18
TORSDOF 6
