REMARK  Name = ZINC14828480
REMARK                            x       y       z     vdW  Elec       q    Type
REMARK                         _______ _______ _______ _____ _____    ______ ____
ROOT
ATOM      1  C   LIG    1        1.594  -2.803   5.415  0.00  0.00    +0.145 C 
ATOM      2  N   LIG    1        0.386  -2.357   5.311  0.00  0.00    -0.087 NA
ENDROOT
BRANCH   1   3
ATOM      3  C   LIG    1        1.997  -3.574   6.607  0.00  0.00    +0.262 C 
ATOM      4  N   LIG    1        1.104  -3.812   7.589  0.00  0.00    -0.310 N 
ATOM      5  H   LIG    1        0.197  -3.477   7.511  0.00  0.00    +0.149 HD
ATOM      6  O   LIG    1        3.134  -3.993   6.705  0.00  0.00    -0.269 OA
BRANCH   4   7
ATOM      7  C   LIG    1        1.504  -4.577   8.773  0.00  0.00    +0.110 C 
BRANCH   7   8
ATOM      8  C   LIG    1        0.313  -4.702   9.725  0.00  0.00    +0.073 C 
BRANCH   8   9
ATOM      9  C   LIG    1        0.724  -5.489  10.942  0.00  0.00    +0.035 A 
ATOM     10  C   LIG    1        0.736  -6.831  11.051  0.00  0.00    +0.105 A 
ATOM     11  N   LIG    1        1.173  -7.123  12.315  0.00  0.00    -0.352 N 
ATOM     12  C   LIG    1        1.414  -5.948  12.935  0.00  0.00    +0.171 A 
ATOM     13  H   LIG    1        1.289  -8.008  12.694  0.00  0.00    +0.166 HD
ATOM     14  N   LIG    1        1.148  -4.975  12.107  0.00  0.00    -0.350 N 
ATOM     15  H   LIG    1        1.240  -4.030  12.303  0.00  0.00    +0.166 HD
ENDBRANCH   8   9
ENDBRANCH   7   8
ENDBRANCH   4   7
ENDBRANCH   1   3
BRANCH   2  16
ATOM     16  O   LIG    1       -0.035  -1.723   4.117  0.00  0.00    -0.409 OA
ATOM     17  H   LIG    1       -0.954  -1.423   4.134  0.00  0.00    +0.328 HD
ENDBRANCH   2  16
BRANCH   1  18
ATOM     18  C   LIG    1        2.592  -2.537   4.318  0.00  0.00    +0.099 C 
BRANCH  18  22
ATOM     19  C   LIG    1        4.429   1.270   4.955  0.00  0.00    +0.134 A 
ATOM     20  C   LIG    1        4.989   0.127   5.506  0.00  0.00    +0.047 A 
ATOM     21  C   LIG    1        4.394  -1.102   5.298  0.00  0.00    +0.007 A 
ATOM     22  C   LIG    1        3.240  -1.194   4.542  0.00  0.00    -0.040 A 
ATOM     23  C   LIG    1        2.679  -0.057   3.992  0.00  0.00    +0.023 A 
ATOM     24  C   LIG    1        3.267   1.176   4.201  0.00  0.00    +0.060 A 
ATOM     25 BR   LIG    1        2.495   2.732   3.454  0.00  0.00    -0.047 Br
BRANCH  19  27
ATOM     26  C   LIG    1        6.207   2.501   5.943  0.00  0.00    +0.277 C 
ATOM     27  O   LIG    1        5.013   2.480   5.157  0.00  0.00    -0.494 OA
ENDBRANCH  19  27
ENDBRANCH  18  22
ENDBRANCH   1  18
TORSDOF 8
