REMARK  Name = ZINC22062078
REMARK                            x       y       z     vdW  Elec       q    Type
REMARK                         _______ _______ _______ _____ _____    ______ ____
ROOT
ATOM      1  C   LIG    1       -0.222   1.232   2.431  0.00  0.00    +0.217 C 
ATOM      2  N   LIG    1       -0.698   1.558   1.213  0.00  0.00    -0.305 N 
ATOM      3  H   LIG    1       -1.602   2.179   1.124  0.00  0.00    +0.149 HD
ATOM      4  O   LIG    1        0.774   0.548   2.529  0.00  0.00    -0.275 OA
ENDROOT
BRANCH   1   6
ATOM      5  C   LIG    1       -2.363   1.189   3.682  0.00  0.00    +0.018 C 
ATOM      6  C   LIG    1       -0.927   1.718   3.671  0.00  0.00    +0.081 C 
BRANCH   6   7
ATOM      7  C   LIG    1       -0.187   1.212   4.911  0.00  0.00    +0.078 C 
BRANCH   7   8
ATOM      8  S   LIG    1       -0.948   1.917   6.399  0.00  0.00    -0.178 S 
ATOM      9  H   LIG    1       -0.548   1.665   7.393  0.00  0.00    +0.102 HD
ENDBRANCH   7   8
ENDBRANCH   6   7
ENDBRANCH   1   6
BRANCH   2  10
ATOM     10  C   LIG    1       -0.013   1.086   0.008  0.00  0.00    +0.224 C 
BRANCH  10  11
ATOM     11  C   LIG    1       -0.742   1.585  -1.213  0.00  0.00    +0.322 C 
ATOM     12  O   LIG    1       -1.732   2.266  -1.089  0.00  0.00    -0.249 OA
BRANCH  11  13
ATOM     13  O   LIG    1       -0.290   1.274  -2.438  0.00  0.00    -0.480 OA
ATOM     14  H   LIG    1        0.478   0.746  -2.534  0.00  0.00    +0.295 HD
ENDBRANCH  11  13
ENDBRANCH  10  11
ENDBRANCH   2  10
TORSDOF 6
