REMARK  Name = ZINC27642247
REMARK                            x       y       z     vdW  Elec       q    Type
REMARK                         _______ _______ _______ _____ _____    ______ ____
ROOT
ATOM      1  C   LIG    1       -1.547   7.891   0.058  0.00  0.00    -0.038 A 
ATOM      2  C   LIG    1       -0.341   7.213   0.043  0.00  0.00    +0.004 A 
ATOM      3  C   LIG    1       -0.323   5.830   0.036  0.00  0.00    +0.008 A 
ATOM      4  C   LIG    1       -1.510   5.123   0.044  0.00  0.00    -0.003 A 
ATOM      5  C   LIG    1       -2.720   5.801   0.053  0.00  0.00    +0.121 A 
ATOM      6  C   LIG    1       -2.736   7.188   0.066  0.00  0.00    +0.049 A 
ENDROOT
BRANCH   4   7
ATOM      7  C   LIG    1       -1.490   3.616   0.036  0.00  0.00    +0.025 C 
ATOM      8  C   LIG    1       -0.773   3.123  -1.223  0.00  0.00    +0.008 C 
ATOM      9  C   LIG    1       -0.753   1.593  -1.232  0.00  0.00    +0.003 C 
ATOM     10  C   LIG    1       -0.013   1.086   0.008  0.00  0.00    +0.031 C 
ATOM     11  C   LIG    1       -0.729   1.579   1.267  0.00  0.00    +0.115 C 
ATOM     12  C   LIG    1       -0.750   3.109   1.275  0.00  0.00    +0.039 C 
BRANCH  11  13
ATOM     13  O   LIG    1       -0.038   1.106   2.425  0.00  0.00    -0.392 OA
ATOM     14  H   LIG    1       -0.408   1.361   3.429  0.00  0.00    +0.210 HD
ENDBRANCH  11  13
ENDBRANCH   4   7
BRANCH   1  15
ATOM     15  C   LIG    1       -1.563   9.398   0.065  0.00  0.00    -0.010 C 
ATOM     16  C   LIG    1       -2.277   9.894   1.323  0.00  0.00    +0.016 C 
ATOM     17  C   LIG    1       -2.301   9.906  -1.175  0.00  0.00    +0.016 C 
BRANCH  15  18
ATOM     18  C   LIG    1       -0.126   9.923   0.054  0.00  0.00    +0.011 C 
BRANCH  18  19
ATOM     19  C   LIG    1       -0.142  11.453   0.061  0.00  0.00    +0.001 C 
BRANCH  19  20
ATOM     20  C   LIG    1        1.295  11.978   0.050  0.00  0.00    +0.000 C 
BRANCH  20  21
ATOM     21  C   LIG    1        1.279  13.508   0.057  0.00  0.00    -0.000 C 
BRANCH  21  23
ATOM     22  C   LIG    1        2.699  15.563   0.053  0.00  0.00    +0.004 C 
ATOM     23  C   LIG    1        2.716  14.034   0.046  0.00  0.00    -0.003 C 
ENDBRANCH  21  23
ENDBRANCH  20  21
ENDBRANCH  19  20
ENDBRANCH  18  19
ENDBRANCH  15  18
ENDBRANCH   1  15
BRANCH   5  24
ATOM     24  O   LIG    1       -3.889   5.107   0.055  0.00  0.00    -0.506 OA
ATOM     25  H   LIG    1       -4.848   5.645   0.063  0.00  0.00    +0.292 HD
ENDBRANCH   5  24
TORSDOF 9
