REMARK  Name = ZINC18098320
REMARK                            x       y       z     vdW  Elec       q    Type
REMARK                         _______ _______ _______ _____ _____    ______ ____
ROOT
ATOM      1  C   LIG    1       -3.778  -7.303   3.315  0.00  0.00    +0.003 C 
ENDROOT
BRANCH   1   2
ATOM      2  C   LIG    1       -3.205  -5.886   3.400  0.00  0.00    +0.037 C 
BRANCH   2   3
ATOM      3  C   LIG    1       -1.679  -5.947   3.311  0.00  0.00    +0.196 C 
BRANCH   3   5
ATOM      4  C   LIG    1        0.164  -4.403   3.336  0.00  0.00    +0.389 C 
ATOM      5  N   LIG    1       -1.131  -4.590   3.392  0.00  0.00    -0.276 N 
ATOM      6  H   LIG    1       -1.727  -3.831   3.487  0.00  0.00    +0.258 HD
BRANCH   4   7
ATOM      7  N   LIG    1        1.013  -5.483   3.200  0.00  0.00    -0.289 N 
ATOM      8  H   LIG    1        0.649  -6.369   3.043  0.00  0.00    +0.255 HD
ATOM      9  H   LIG    1        1.973  -5.357   3.262  0.00  0.00    +0.255 HD
ENDBRANCH   4   7
BRANCH   4  11
ATOM     10  C   LIG    1        1.637  -2.784   2.594  0.00  0.00    +0.394 C 
ATOM     11  N   LIG    1        0.669  -3.155   3.410  0.00  0.00    -0.006 NA
BRANCH  10  12
ATOM     12  N   LIG    1        2.065  -3.634   1.612  0.00  0.00    -0.288 N 
ATOM     13  H   LIG    1        1.665  -4.513   1.522  0.00  0.00    +0.255 HD
ATOM     14  H   LIG    1        2.770  -3.358   1.005  0.00  0.00    +0.255 HD
ENDBRANCH  10  12
BRANCH  10  15
ATOM     15  N   LIG    1        2.212  -1.550   2.730  0.00  0.00    -0.243 N 
ATOM     16  H   LIG    1        2.862  -1.244   2.078  0.00  0.00    +0.265 HD
BRANCH  15  23
ATOM     17  C   LIG    1        1.554  -1.295   5.040  0.00  0.00    +0.043 A 
ATOM     18  C   LIG    1        1.210  -0.483   6.103  0.00  0.00    +0.023 A 
ATOM     19  C   LIG    1        1.172   0.891   5.943  0.00  0.00    +0.041 A 
ATOM     20 CL   LIG    1        0.739   1.908   7.281  0.00  0.00    -0.084 Cl
ATOM     21  C   LIG    1        1.479   1.455   4.717  0.00  0.00    +0.023 A 
ATOM     22  C   LIG    1        1.824   0.649   3.651  0.00  0.00    +0.043 A 
ATOM     23  C   LIG    1        1.863  -0.731   3.809  0.00  0.00    +0.100 A 
ENDBRANCH  15  23
ENDBRANCH  10  15
ENDBRANCH   4  11
ENDBRANCH   3   5
ENDBRANCH   2   3
ENDBRANCH   1   2
BRANCH   1  24
ATOM     24  C   LIG    1       -5.304  -7.242   3.404  0.00  0.00    +0.003 C 
BRANCH  24  25
ATOM     25  C   LIG    1       -5.876  -8.659   3.320  0.00  0.00    +0.037 C 
BRANCH  25  26
ATOM     26  C   LIG    1       -7.402  -8.598   3.409  0.00  0.00    +0.196 C 
BRANCH  26  27
ATOM     27  N   LIG    1       -7.950  -9.954   3.328  0.00  0.00    -0.276 N 
ATOM     28  H   LIG    1       -7.354 -10.713   3.232  0.00  0.00    +0.258 HD
BRANCH  27  29
ATOM     29  C   LIG    1       -9.310 -10.151   3.386  0.00  0.00    +0.388 C 
ATOM     30  N   LIG    1      -10.116  -9.128   3.393  0.00  0.00    -0.129 NA
ATOM     31  H   LIG    1      -11.070  -9.263   3.508  0.00  0.00    +0.306 HD
BRANCH  29  32
ATOM     32  N   LIG    1       -9.820 -11.431   3.438  0.00  0.00    -0.186 N 
ATOM     33  H   LIG    1      -10.778 -11.574   3.388  0.00  0.00    +0.271 HD
BRANCH  32  34
ATOM     34  C   LIG    1       -8.969 -12.507   3.561  0.00  0.00    +0.394 C 
ATOM     35  N   LIG    1       -7.685 -12.310   3.750  0.00  0.00    -0.073 NA
BRANCH  35  36
ATOM     36  C   LIG    1       -6.857 -13.374   3.991  0.00  0.00    +0.142 A 
ATOM     37  C   LIG    1       -7.161 -14.284   5.006  0.00  0.00    +0.047 A 
ATOM     38  C   LIG    1       -6.323 -15.353   5.243  0.00  0.00    +0.023 A 
ATOM     39  C   LIG    1       -5.182 -15.526   4.478  0.00  0.00    +0.041 A 
ATOM     40 CL   LIG    1       -4.132 -16.874   4.784  0.00  0.00    -0.084 Cl
ATOM     41  C   LIG    1       -4.875 -14.628   3.470  0.00  0.00    +0.023 A 
ATOM     42  C   LIG    1       -5.708 -13.558   3.219  0.00  0.00    +0.047 A 
ENDBRANCH  35  36
BRANCH  34  43
ATOM     43  N   LIG    1       -9.463 -13.785   3.486  0.00  0.00    -0.288 N 
ATOM     44  H   LIG    1      -10.409 -13.948   3.625  0.00  0.00    +0.255 HD
ATOM     45  H   LIG    1       -8.866 -14.525   3.293  0.00  0.00    +0.255 HD
ENDBRANCH  34  43
ENDBRANCH  32  34
ENDBRANCH  29  32
ENDBRANCH  27  29
ENDBRANCH  26  27
ENDBRANCH  25  26
ENDBRANCH  24  25
ENDBRANCH   1  24
TORSDOF 17
