REMARK  Name = ZINC00057195
REMARK                            x       y       z     vdW  Elec       q    Type
REMARK                         _______ _______ _______ _____ _____    ______ ____
ROOT
ATOM      1  C   LIG    1       -2.223   1.924  -0.587  0.00  0.00    +0.226 C 
ATOM      2  C   LIG    1       -0.833   1.634  -1.185  0.00  0.00    +0.088 C 
ATOM      3  C   LIG    1       -0.013   1.086   0.008  0.00  0.00    +0.146 C 
ATOM      4  C   LIG    1       -0.810   1.621   1.224  0.00  0.00    +0.132 C 
ATOM      5  O   LIG    1       -2.186   1.524   0.793  0.00  0.00    -0.353 OA
ENDROOT
BRANCH   1   9
ATOM      6  C   LIG    1       -5.811  -1.456  -0.544  0.00  0.00    +0.051 C 
ATOM      7  C   LIG    1       -4.954  -0.458  -1.279  0.00  0.00    +0.030 A 
ATOM      8  C   LIG    1       -4.013   0.252  -0.620  0.00  0.00    +0.101 A 
ATOM      9  N   LIG    1       -3.243   1.154  -1.302  0.00  0.00    -0.274 N 
ATOM     10  C   LIG    1       -3.419   1.345  -2.622  0.00  0.00    +0.331 A 
ATOM     11  N   LIG    1       -4.346   0.647  -3.305  0.00  0.00    -0.275 N 
ATOM     12  H   LIG    1       -4.458   0.796  -4.287  0.00  0.00    +0.173 HD
ATOM     13  O   LIG    1       -2.727   2.155  -3.208  0.00  0.00    -0.246 OA
ATOM     14  C   LIG    1       -5.125  -0.251  -2.669  0.00  0.00    +0.257 A 
ATOM     15  O   LIG    1       -5.967  -0.879  -3.284  0.00  0.00    -0.267 OA
ENDBRANCH   1   9
BRANCH   3  16
ATOM     16  O   LIG    1        1.316   1.611  -0.002  0.00  0.00    -0.389 OA
ATOM     17  H   LIG    1        1.840   1.341  -0.768  0.00  0.00    +0.210 HD
ENDBRANCH   3  16
BRANCH   4  18
ATOM     18  C   LIG    1       -0.568   0.746   2.455  0.00  0.00    -0.052 C 
BRANCH  18  19
ATOM     19  N   LIG    1       -1.358   1.273   3.582  0.00  0.00    +0.380 N 
ATOM     20  H   LIG    1       -2.356   1.230   3.344  0.00  0.00    -0.090 HD
ATOM     21  H   LIG    1       -1.102   2.242   3.766  0.00  0.00    -0.090 HD
ATOM     22  H   LIG    1       -1.190   0.715   4.418  0.00  0.00    -0.090 HD
ENDBRANCH  18  19
ENDBRANCH   4  18
TORSDOF 4
