REMARK  Name = ZINC43012767
REMARK                            x       y       z     vdW  Elec       q    Type
REMARK                         _______ _______ _______ _____ _____    ______ ____
ROOT
ATOM      1  C   LIG    1        0.606  -0.608  -1.056  0.00  0.00    +0.121 A 
ATOM      2  C   LIG    1        1.174   0.167  -2.065  0.00  0.00    +0.047 A 
ATOM      3  C   LIG    1        1.790  -0.428  -3.143  0.00  0.00    +0.030 A 
ATOM      4  C   LIG    1        1.849  -1.814  -3.232  0.00  0.00    +0.047 A 
ATOM      5  C   LIG    1        1.276  -2.599  -2.216  0.00  0.00    +0.008 A 
ATOM      6  C   LIG    1        1.504  -3.994  -2.603  0.00  0.00    -0.007 A 
ATOM      7  C   LIG    1        2.167  -3.974  -3.770  0.00  0.00    +0.088 A 
ATOM      8  N   LIG    1        2.383  -2.681  -4.163  0.00  0.00    -0.360 N 
ATOM      9  H   LIG    1        2.841  -2.414  -4.975  0.00  0.00    +0.165 HD
ATOM     10  C   LIG    1        0.659  -1.985  -1.124  0.00  0.00    +0.056 A 
ENDROOT
BRANCH   1  12
ATOM     11  C   LIG    1       -0.017   1.425   0.010  0.00  0.00    +0.277 C 
ATOM     12  O   LIG    1        0.002  -0.004   0.002  0.00  0.00    -0.495 OA
ENDBRANCH   1  12
BRANCH   6  13
ATOM     13  C   LIG    1        1.077  -5.218  -1.836  0.00  0.00    +0.136 C 
BRANCH  13  14
ATOM     14  N   LIG    1       -0.346  -5.483  -2.090  0.00  0.00    -0.249 NA
ATOM     15  H   LIG    1       -0.525  -5.578  -3.078  0.00  0.00    +0.141 HD
BRANCH  14  16
ATOM     16  N   LIG    1       -0.794  -6.660  -1.364  0.00  0.00    -0.238 NA
ATOM     17  C   LIG    1       -1.214  -7.722  -2.290  0.00  0.00    +0.130 C 
ATOM     18  C   LIG    1       -1.620  -8.961  -1.487  0.00  0.00    +0.176 C 
ATOM     19  O   LIG    1       -2.655  -8.607  -0.565  0.00  0.00    -0.377 OA
ATOM     20  C   LIG    1       -2.280  -7.576   0.352  0.00  0.00    +0.176 C 
ATOM     21  C   LIG    1       -1.880  -6.323  -0.432  0.00  0.00    +0.130 C 
ENDBRANCH  14  16
ENDBRANCH  13  14
ENDBRANCH   6  13
TORSDOF 4
