REMARK  Name = ZINC20253546
REMARK                            x       y       z     vdW  Elec       q    Type
REMARK                         _______ _______ _______ _____ _____    ______ ____
ROOT
ATOM      1  C   LIG    1       -2.989   0.500  -1.179  0.00  0.00    +0.008 A 
ATOM      2  C   LIG    1       -4.023  -0.416  -1.182  0.00  0.00    +0.046 A 
ATOM      3  C   LIG    1       -4.540  -0.881   0.019  0.00  0.00    +0.121 A 
ATOM      4  C   LIG    1       -4.012  -0.429   1.220  0.00  0.00    +0.046 A 
ATOM      5  C   LIG    1       -2.974   0.483   1.217  0.00  0.00    +0.008 A 
ATOM      6  C   LIG    1       -2.462   0.945   0.019  0.00  0.00    -0.037 A 
ENDROOT
BRANCH   3   7
ATOM      7  O   LIG    1       -5.560  -1.778   0.019  0.00  0.00    -0.490 OA
BRANCH   7   8
ATOM      8  C   LIG    1       -6.054  -2.200  -1.254  0.00  0.00    +0.250 C 
BRANCH   8   9
ATOM      9  C   LIG    1       -7.192  -3.203  -1.054  0.00  0.00    +0.163 C 
BRANCH   9  10
ATOM     10  N   LIG    1       -7.697  -3.634  -2.359  0.00  0.00    -0.335 N 
ATOM     11  C   LIG    1       -8.709  -3.050  -3.072  0.00  0.00    +0.104 A 
ATOM     12  C   LIG    1       -8.845  -3.759  -4.209  0.00  0.00    +0.101 A 
ATOM     13  N   LIG    1       -7.948  -4.756  -4.186  0.00  0.00    -0.352 N 
ATOM     14  H   LIG    1       -7.891  -5.465  -5.025  0.00  0.00    +0.166 HD
ATOM     15  C   LIG    1       -7.257  -4.687  -3.081  0.00  0.00    +0.173 A 
ENDBRANCH   9  10
ENDBRANCH   8   9
ENDBRANCH   7   8
ENDBRANCH   3   7
BRANCH   6  16
ATOM     16  C   LIG    1       -1.329   1.940   0.019  0.00  0.00    +0.155 C 
BRANCH  16  17
ATOM     17  C   LIG    1       -0.014   1.204   0.009  0.00  0.00    +0.309 C 
ATOM     18  O   LIG    1        0.002  -0.004   0.002  0.00  0.00    -0.251 OA
BRANCH  17  19
ATOM     19  O   LIG    1        1.139   1.891   0.001  0.00  0.00    -0.480 OA
ATOM     20  H   LIG    1        1.126   2.828   0.006  0.00  0.00    +0.295 HD
ENDBRANCH  17  19
ENDBRANCH  16  17
ENDBRANCH   6  16
TORSDOF 7
