REMARK  Name = ZINC53271207
REMARK                            x       y       z     vdW  Elec       q    Type
REMARK                         _______ _______ _______ _____ _____    ______ ____
ROOT
ATOM      1  N   LIG    1        4.425   0.045   2.309  0.00  0.00    -0.302 N 
ATOM      2  H   LIG    1        5.241   0.516   2.542  0.00  0.00    +0.150 HD
ATOM      3  C   LIG    1        3.320   0.199   3.065  0.00  0.00    +0.234 C 
ATOM      4  O   LIG    1        2.328  -0.459   2.829  0.00  0.00    -0.274 OA
ENDROOT
BRANCH   3   5
ATOM      5  C   LIG    1        3.316   1.186   4.203  0.00  0.00    +0.162 C 
ATOM      6  C   LIG    1        4.053   0.588   5.420  0.00  0.00    +0.033 C 
ATOM      7  C   LIG    1        3.203   1.083   6.620  0.00  0.00    +0.021 C 
ATOM      8  C   LIG    1        1.773   1.040   6.026  0.00  0.00    +0.108 C 
ATOM      9  N   LIG    1        1.934   1.464   4.620  0.00  0.00    -0.289 N 
ATOM     10  C   LIG    1        0.976   2.014   3.847  0.00  0.00    +0.233 C 
ATOM     11  O   LIG    1        1.202   2.253   2.679  0.00  0.00    -0.274 OA
BRANCH  10  12
ATOM     12  C   LIG    1       -0.376   2.330   4.433  0.00  0.00    +0.142 C 
BRANCH  12  13
ATOM     13  N   LIG    1       -1.361   2.455   3.351  0.00  0.00    -0.320 NA
ATOM     14  H   LIG    1       -1.105   3.193   2.712  0.00  0.00    +0.119 HD
ATOM     15  H   LIG    1       -2.288   2.604   3.721  0.00  0.00    +0.119 HD
ENDBRANCH  12  13
BRANCH  12  16
ATOM     16  C   LIG    1       -0.299   3.647   5.208  0.00  0.00    +0.063 C 
BRANCH  16  17
ATOM     17  C   LIG    1       -1.616   3.902   5.896  0.00  0.00    -0.045 A 
ATOM     18  C   LIG    1       -2.611   4.606   5.242  0.00  0.00    +0.007 A 
ATOM     19  C   LIG    1       -3.818   4.841   5.870  0.00  0.00    +0.045 A 
ATOM     20  C   LIG    1       -4.032   4.371   7.158  0.00  0.00    +0.117 A 
ATOM     21  C   LIG    1       -3.033   3.665   7.811  0.00  0.00    +0.045 A 
ATOM     22  C   LIG    1       -1.829   3.428   7.177  0.00  0.00    +0.007 A 
BRANCH  20  23
ATOM     23  O   LIG    1       -5.219   4.602   7.779  0.00  0.00    -0.507 OA
ATOM     24  H   LIG    1       -5.882   3.913   7.629  0.00  0.00    +0.292 HD
ENDBRANCH  20  23
ENDBRANCH  16  17
ENDBRANCH  12  16
ENDBRANCH  10  12
ENDBRANCH   3   5
BRANCH   1  25
ATOM     25  C   LIG    1        4.395  -0.832   1.137  0.00  0.00    +0.163 C 
BRANCH  25  26
ATOM     26  C   LIG    1        5.790  -1.316   0.835  0.00  0.00    +0.237 C 
ATOM     27  N   LIG    1        5.973  -2.454   0.136  0.00  0.00    -0.288 N 
ATOM     28  C   LIG    1        4.906  -3.263  -0.481  0.00  0.00    +0.109 C 
ATOM     29  C   LIG    1        5.608  -4.036  -1.626  0.00  0.00    +0.021 C 
ATOM     30  C   LIG    1        6.988  -4.349  -0.990  0.00  0.00    +0.033 C 
ATOM     31  C   LIG    1        7.268  -3.090  -0.142  0.00  0.00    +0.162 C 
ATOM     32  O   LIG    1        6.749  -0.681   1.221  0.00  0.00    -0.274 OA
BRANCH  31  33
ATOM     33  C   LIG    1        8.153  -2.140  -0.907  0.00  0.00    +0.231 C 
ATOM     34  N   LIG    1        9.394  -2.518  -1.269  0.00  0.00    -0.328 N 
ATOM     35  H   LIG    1        9.963  -1.906  -1.762  0.00  0.00    +0.145 HD
ATOM     36  H   LIG    1        9.719  -3.402  -1.038  0.00  0.00    +0.145 HD
ATOM     37  O   LIG    1        7.747  -1.034  -1.197  0.00  0.00    -0.274 OA
ENDBRANCH  31  33
ENDBRANCH  25  26
BRANCH  25  38
ATOM     38  C   LIG    1        3.853  -0.057  -0.066  0.00  0.00    +0.067 C 
BRANCH  38  42
ATOM     39  C   LIG    1        6.239   3.426  -0.712  0.00  0.00    +0.000 A 
ATOM     40  C   LIG    1        6.466   2.285  -1.458  0.00  0.00    +0.000 A 
ATOM     41  C   LIG    1        5.694   1.157  -1.249  0.00  0.00    +0.004 A 
ATOM     42  C   LIG    1        4.695   1.171  -0.293  0.00  0.00    -0.045 A 
ATOM     43  C   LIG    1        4.468   2.313   0.453  0.00  0.00    +0.004 A 
ATOM     44  C   LIG    1        5.240   3.441   0.243  0.00  0.00    +0.000 A 
ENDBRANCH  38  42
ENDBRANCH  25  38
ENDBRANCH   1  25
TORSDOF 11
