REMARK  Name = ZINC13819619
REMARK                            x       y       z     vdW  Elec       q    Type
REMARK                         _______ _______ _______ _____ _____    ______ ____
ROOT
ATOM      1  O   LIG    1       -1.160  -0.709   0.009  0.00  0.00    -0.492 OA
ENDROOT
BRANCH   1   2
ATOM      2  C   LIG    1        0.002  -0.004   0.002  0.00  0.00    +0.139 A 
ATOM      3  C   LIG    1       -0.017   1.387   0.010  0.00  0.00    +0.050 A 
ATOM      4  C   LIG    1        1.192   2.062   0.002  0.00  0.00    +0.044 A 
ATOM      5  C   LIG    1        2.371   1.337  -0.013  0.00  0.00    +0.129 A 
ATOM      6 CL   LIG    1        3.892   2.173  -0.023  0.00  0.00    -0.062 Cl
ATOM      7  N   LIG    1        2.353   0.018  -0.020  0.00  0.00    -0.240 NA
ATOM      8  C   LIG    1        1.223  -0.661  -0.013  0.00  0.00    +0.158 A 
ENDBRANCH   1   2
BRANCH   1   9
ATOM      9  C   LIG    1       -1.055  -2.134   0.000  0.00  0.00    +0.210 C 
BRANCH   9  10
ATOM     10  C   LIG    1       -2.455  -2.749   0.010  0.00  0.00    -0.038 C 
BRANCH  10  12
ATOM     11  C   LIG    1       -2.500  -3.033  -2.394  0.00  0.00    -0.096 C 
ATOM     12  N   LIG    1       -3.149  -2.375  -1.241  0.00  0.00    +0.378 N 
ATOM     13  H   LIG    1       -3.092  -1.357  -1.362  0.00  0.00    -0.082 HD
ATOM     14  C   LIG    1       -4.571  -2.771  -1.167  0.00  0.00    -0.096 C 
ENDBRANCH  10  12
ENDBRANCH   9  10
ENDBRANCH   1   9
TORSDOF 4
