REMARK  Name = ZINC66252675
REMARK                            x       y       z     vdW  Elec       q    Type
REMARK                         _______ _______ _______ _____ _____    ______ ____
ROOT
ATOM      1  C   LIG    1        2.152  -4.456  -3.722  0.00  0.00    -0.022 A 
ATOM      2  C   LIG    1        1.576  -4.807  -4.882  0.00  0.00    +0.087 A 
ATOM      3  N   LIG    1        2.533  -5.195  -5.780  0.00  0.00    -0.360 N 
ATOM      4  C   LIG    1        3.781  -5.102  -5.203  0.00  0.00    +0.047 A 
ATOM      5  C   LIG    1        5.067  -5.367  -5.660  0.00  0.00    +0.029 A 
ATOM      6  C   LIG    1        6.148  -5.158  -4.832  0.00  0.00    +0.040 A 
ATOM      7  C   LIG    1        5.968  -4.694  -3.535  0.00  0.00    +0.124 A 
ATOM      8  F   LIG    1        7.039  -4.502  -2.734  0.00  0.00    -0.205 F 
ATOM      9  C   LIG    1        4.701  -4.429  -3.060  0.00  0.00    +0.048 A 
ATOM     10  H   LIG    1        2.359  -5.493  -6.686  0.00  0.00    +0.165 HD
ATOM     11  C   LIG    1        3.597  -4.629  -3.891  0.00  0.00    +0.006 A 
ENDROOT
BRANCH   1  12
ATOM     12  C   LIG    1        1.446  -3.970  -2.482  0.00  0.00    +0.035 C 
BRANCH  12  13
ATOM     13  C   LIG    1        1.426  -2.440  -2.474  0.00  0.00    -0.014 C 
BRANCH  13  14
ATOM     14  C   LIG    1        0.710  -1.947  -1.215  0.00  0.00    -0.082 C 
BRANCH  14  15
ATOM     15  N   LIG    1        0.690  -0.478  -1.207  0.00  0.00    +0.379 N 
ATOM     16  H   LIG    1        1.636  -0.129  -1.214  0.00  0.00    -0.086 HD
ATOM     17  H   LIG    1        0.202  -0.144  -2.024  0.00  0.00    -0.086 HD
BRANCH  15  19
ATOM     18  C   LIG    1       -0.019   1.526   0.010  0.00  0.00    -0.017 C 
ATOM     19  C   LIG    1        0.002  -0.004   0.002  0.00  0.00    -0.086 C 
ENDBRANCH  15  19
ENDBRANCH  14  15
ENDBRANCH  13  14
ENDBRANCH  12  13
ENDBRANCH   1  12
TORSDOF 5
