REMARK  Name = ZINC19874821
REMARK                            x       y       z     vdW  Elec       q    Type
REMARK                         _______ _______ _______ _____ _____    ______ ____
ROOT
ATOM      1  C   LIG    1       -0.096   0.013  -0.091  0.00  0.00    +0.350 C 
ATOM      2  N   LIG    1       -1.221  -0.600   0.143  0.00  0.00    -0.278 N 
ATOM      3  H   LIG    1       -1.228  -1.684   0.331  0.00  0.00    +0.258 HD
ENDROOT
BRANCH   1   4
ATOM      4  N   LIG    1       -0.076   1.379  -0.245  0.00  0.00    -0.291 N 
ATOM      5  H   LIG    1        0.875   1.897  -0.443  0.00  0.00    +0.255 HD
ATOM      6  H   LIG    1       -1.010   1.955  -0.170  0.00  0.00    +0.255 HD
ENDBRANCH   1   4
BRANCH   1   7
ATOM      7  N   LIG    1        1.075  -0.708  -0.185  0.00  0.00    -0.214 N 
ATOM      8  H   LIG    1        2.036  -0.185  -0.299  0.00  0.00    +0.268 HD
BRANCH   7  15
ATOM      9  C   LIG    1       -1.492  -4.713   0.407  0.00  0.00    +0.066 C 
ATOM     10  C   LIG    1       -0.177  -4.026   0.146  0.00  0.00    +0.045 A 
ATOM     11  C   LIG    1        0.978  -4.769  -0.043  0.00  0.00    +0.046 A 
ATOM     12  C   LIG    1        2.167  -4.097  -0.281  0.00  0.00    +0.045 A 
ATOM     13  C   LIG    1        3.447  -4.863  -0.492  0.00  0.00    +0.066 C 
ATOM     14  N   LIG    1        2.163  -2.775  -0.321  0.00  0.00    -0.203 NA
ATOM     15  C   LIG    1        1.042  -2.095  -0.137  0.00  0.00    +0.292 A 
ATOM     16  N   LIG    1       -0.109  -2.706   0.098  0.00  0.00    -0.203 NA
ENDBRANCH   7  15
ENDBRANCH   1   7
BRANCH   2  17
ATOM     17  C   LIG    1       -2.477   0.154   0.155  0.00  0.00    +0.202 C 
BRANCH  17  18
ATOM     18  C   LIG    1       -3.361  -0.307  -1.005  0.00  0.00    +0.091 C 
BRANCH  18  19
ATOM     19  C   LIG    1       -4.653   0.469  -0.992  0.00  0.00    +0.038 A 
ATOM     20  C   LIG    1       -5.757   0.177  -0.278  0.00  0.00    +0.133 A 
ATOM     21  N   LIG    1       -6.681   1.112  -0.544  0.00  0.00    -0.244 NA
ATOM     22  C   LIG    1       -6.195   1.966  -1.403  0.00  0.00    +0.196 A 
ATOM     23  N   LIG    1       -4.931   1.601  -1.708  0.00  0.00    -0.348 N 
ATOM     24  H   LIG    1       -4.170   2.031  -2.376  0.00  0.00    +0.166 HD
ENDBRANCH  18  19
ENDBRANCH  17  18
ENDBRANCH   2  17
TORSDOF 6
