REMARK  Name = ZINC40556535
REMARK                            x       y       z     vdW  Elec       q    Type
REMARK                         _______ _______ _______ _____ _____    ______ ____
ROOT
ATOM      1  N   LIG    1        0.947  -2.092   1.246  0.00  0.00    -0.224 N 
ATOM      2  C   LIG    1       -0.098  -2.766   0.794  0.00  0.00    +0.263 C 
ATOM      3  C   LIG    1        0.086  -4.220   0.599  0.00  0.00    +0.077 C 
ATOM      4  S   LIG    1        1.788  -4.413   1.111  0.00  0.00    -0.061 S 
ATOM      5  C   LIG    1       -0.794  -5.151   0.153  0.00  0.00    +0.028 C 
ATOM      6  O   LIG    1       -1.156  -2.216   0.550  0.00  0.00    -0.269 OA
ATOM      7  C   LIG    1        2.119  -2.704   1.510  0.00  0.00    +0.125 C 
ATOM      8  S   LIG    1        3.573  -2.010   2.089  0.00  0.00    -0.027 S 
ENDROOT
BRANCH   1  13
ATOM      9  C   LIG    1       -0.105   1.141   2.650  0.00  0.00    +0.002 A 
ATOM     10  C   LIG    1        0.612   2.017   1.854  0.00  0.00    +0.012 A 
ATOM     11  C   LIG    1        1.439   1.532   0.858  0.00  0.00    +0.057 A 
ATOM     12  C   LIG    1        1.552   0.171   0.654  0.00  0.00    +0.036 A 
ATOM     13  C   LIG    1        0.834  -0.711   1.451  0.00  0.00    +0.043 A 
ATOM     14  C   LIG    1        0.004  -0.221   2.450  0.00  0.00    +0.024 A 
BRANCH  11  15
ATOM     15  C   LIG    1        2.217   2.490  -0.006  0.00  0.00    +0.417 C 
ATOM     16  F   LIG    1        1.848   2.317  -1.345  0.00  0.00    -0.166 F 
ATOM     17  F   LIG    1        3.586   2.240   0.136  0.00  0.00    -0.166 F 
ATOM     18  F   LIG    1        1.941   3.804   0.387  0.00  0.00    -0.166 F 
ENDBRANCH  11  15
ENDBRANCH   1  13
BRANCH   5  19
ATOM     19  C   LIG    1       -0.454  -6.578   0.226  0.00  0.00    -0.024 A 
ATOM     20  C   LIG    1        0.694  -6.990   0.915  0.00  0.00    +0.008 A 
ATOM     21  C   LIG    1        1.009  -8.318   0.982  0.00  0.00    +0.012 A 
ATOM     22  C   LIG    1        0.188  -9.264   0.364  0.00  0.00    +0.021 A 
ATOM     23  C   LIG    1       -0.958  -8.854  -0.323  0.00  0.00    +0.012 A 
ATOM     24  C   LIG    1       -1.279  -7.528  -0.388  0.00  0.00    +0.008 A 
BRANCH  22  25
ATOM     25  C   LIG    1        0.531 -10.700   0.437  0.00  0.00    +0.179 A 
ATOM     26  N   LIG    1        1.582 -11.240   1.058  0.00  0.00    -0.239 N 
ATOM     27  H   LIG    1        2.278 -10.752   1.555  0.00  0.00    +0.192 HD
ATOM     28  N   LIG    1        1.520 -12.516   0.886  0.00  0.00    -0.046 NA
ATOM     29  N   LIG    1        0.478 -12.800   0.187  0.00  0.00    -0.023 NA
ATOM     30  N   LIG    1       -0.152 -11.713  -0.100  0.00  0.00    -0.108 NA
ENDBRANCH  22  25
ENDBRANCH   5  19
TORSDOF 4
