REMARK  Name = ZINC38741103
REMARK                            x       y       z     vdW  Elec       q    Type
REMARK                         _______ _______ _______ _____ _____    ______ ____
ROOT
ATOM      1  C   LIG    1        3.570   0.619  -0.029  0.00  0.00    +0.109 A 
ATOM      2  C   LIG    1        4.226  -0.611  -0.048  0.00  0.00    +0.042 A 
ATOM      3  C   LIG    1        5.621  -0.639  -0.062  0.00  0.00    +0.012 A 
ATOM      4  C   LIG    1        6.315   0.596  -0.057  0.00  0.00    +0.099 A 
ATOM      5  C   LIG    1        5.574   1.790  -0.038  0.00  0.00    +0.135 A 
ATOM      6  N   LIG    1        4.253   1.762  -0.030  0.00  0.00    -0.228 NA
ENDROOT
BRANCH   1   9
ATOM      7  C   LIG    1       -0.016   1.345   0.009  0.00  0.00    +0.042 A 
ATOM      8  C   LIG    1        1.323   1.776  -0.001  0.00  0.00    +0.051 A 
ATOM      9  C   LIG    1        2.096   0.654  -0.014  0.00  0.00    +0.153 A 
ATOM     10  O   LIG    1        1.279  -0.417  -0.012  0.00  0.00    -0.461 OA
ATOM     11  C   LIG    1        0.002  -0.004   0.002  0.00  0.00    +0.196 A 
ENDBRANCH   1   9
BRANCH   3  12
ATOM     12  C   LIG    1        6.352  -1.919  -0.081  0.00  0.00    +0.021 A 
ATOM     13  C   LIG    1        6.191  -3.018   0.722  0.00  0.00    +0.016 A 
ATOM     14  C   LIG    1        6.999  -4.112   0.515  0.00  0.00    +0.008 A 
ATOM     15  C   LIG    1        7.929  -4.071  -0.475  0.00  0.00    +0.046 A 
ATOM     16  S   LIG    1        7.673  -2.443  -1.162  0.00  0.00    -0.097 S 
ENDBRANCH   3  12
BRANCH   5  17
ATOM     17  N   LIG    1        6.234   3.006  -0.032  0.00  0.00    -0.342 N 
ATOM     18  H   LIG    1        5.728   3.833  -0.019  0.00  0.00    +0.144 HD
ATOM     19  H   LIG    1        7.204   3.032  -0.041  0.00  0.00    +0.144 HD
ENDBRANCH   5  17
BRANCH   4  20
ATOM     20  C   LIG    1        7.746   0.626  -0.071  0.00  0.00    +0.103 C 
ATOM     21  N   LIG    1        8.882   0.651  -0.082  0.00  0.00    -0.191 NA
ENDBRANCH   4  20
TORSDOF 4
