REMARK  Name = ZINC22448624
REMARK                            x       y       z     vdW  Elec       q    Type
REMARK                         _______ _______ _______ _____ _____    ______ ____
ROOT
ATOM      1  N   LIG    1        0.682  -3.916  -2.627  0.00  0.00    -0.312 N 
ATOM      2  H   LIG    1        0.870  -4.418  -1.817  0.00  0.00    +0.149 HD
ATOM      3  C   LIG    1        0.291  -4.561  -3.743  0.00  0.00    +0.249 C 
ATOM      4  O   LIG    1        0.056  -3.932  -4.758  0.00  0.00    -0.270 OA
ENDROOT
BRANCH   1  13
ATOM      5  N   LIG    1        0.690  -0.478  -1.207  0.00  0.00    +0.379 N 
ATOM      6  H   LIG    1        0.260  -0.071  -2.024  0.00  0.00    -0.082 HD
ATOM      7  C   LIG    1        2.083  -0.105  -1.152  0.00  0.00    -0.098 C 
ATOM      8  C   LIG    1        2.658   0.223  -2.539  0.00  0.00    -0.098 C 
ATOM      9  N   LIG    1        2.216  -0.715  -3.595  0.00  0.00    +0.378 N 
ATOM     10  H   LIG    1        1.279  -0.470  -3.876  0.00  0.00    -0.082 HD
ATOM     11  C   LIG    1        3.106  -0.575  -4.756  0.00  0.00    -0.096 C 
ATOM     12  C   LIG    1        2.227  -2.093  -3.166  0.00  0.00    -0.059 C 
ATOM     13  C   LIG    1        0.825  -2.458  -2.634  0.00  0.00    +0.040 C 
ATOM     14  C   LIG    1        0.608  -1.954  -1.281  0.00  0.00    -0.058 C 
BRANCH   5  16
ATOM     15  C   LIG    1       -0.019   1.526   0.010  0.00  0.00    -0.017 C 
ATOM     16  C   LIG    1        0.002  -0.004   0.002  0.00  0.00    -0.082 C 
ENDBRANCH   5  16
ENDBRANCH   1  13
BRANCH   3  17
ATOM     17  C   LIG    1        0.148  -6.026  -3.736  0.00  0.00    +0.099 A 
ATOM     18  C   LIG    1        0.410  -6.761  -2.570  0.00  0.00    +0.037 A 
ATOM     19  C   LIG    1        0.265  -8.122  -2.608  0.00  0.00    +0.058 A 
ATOM     20 BR   LIG    1        0.607  -9.160  -1.064  0.00  0.00    -0.047 Br
ATOM     21  C   LIG    1       -0.138  -8.737  -3.793  0.00  0.00    +0.136 A 
ATOM     22  N   LIG    1       -0.381  -8.025  -4.884  0.00  0.00    -0.196 NA
ATOM     23  C   LIG    1       -0.259  -6.708  -4.892  0.00  0.00    +0.229 A 
BRANCH  21  24
ATOM     24  N   LIG    1       -0.285 -10.114  -3.831  0.00  0.00    -0.331 N 
ATOM     25  H   LIG    1       -0.109 -10.642  -3.037  0.00  0.00    +0.147 HD
ATOM     26  C   LIG    1       -0.707 -10.771  -5.070  0.00  0.00    +0.127 C 
ENDBRANCH  21  24
BRANCH  23  27
ATOM     27  O   LIG    1       -0.523  -6.015  -6.025  0.00  0.00    -0.479 OA
ATOM     28  C   LIG    1       -0.933  -6.770  -7.167  0.00  0.00    +0.279 C 
ENDBRANCH  23  27
ENDBRANCH   3  17
TORSDOF 5
