REMARK  Name = ZINC43176687
REMARK                            x       y       z     vdW  Elec       q    Type
REMARK                         _______ _______ _______ _____ _____    ______ ____
ROOT
ATOM      1  C   LIG    1        5.423  -7.693  -0.091  0.00  0.00    +0.004 A 
ATOM      2  C   LIG    1        5.829  -7.890   1.235  0.00  0.00    +0.036 A 
ATOM      3  C   LIG    1        6.877  -8.760   1.476  0.00  0.00    +0.071 A 
ATOM      4  C   LIG    1        7.492  -9.411   0.401  0.00  0.00    +0.140 A 
ATOM      5  N   LIG    1        8.546 -10.294   0.643  0.00  0.00    -0.326 N 
ATOM      6  H   LIG    1        8.821 -10.930  -0.035  0.00  0.00    +0.148 HD
ATOM      7  C   LIG    1        9.232 -10.243   1.942  0.00  0.00    +0.122 C 
ATOM      8  C   LIG    1        8.168 -10.164   3.047  0.00  0.00    +0.124 C 
ATOM      9  N   LIG    1        7.079  -9.197  -0.838  0.00  0.00    -0.238 NA
ATOM     10  N   LIG    1        7.322  -8.990   2.784  0.00  0.00    -0.321 N 
ATOM     11  C   LIG    1        6.080  -8.378  -1.107  0.00  0.00    +0.121 A 
ENDROOT
BRANCH   1  15
ATOM     12  C   LIG    1        2.239  -5.064  -0.907  0.00  0.00    +0.121 A 
ATOM     13  C   LIG    1        2.848  -5.714  -1.977  0.00  0.00    +0.044 A 
ATOM     14  C   LIG    1        3.894  -6.580  -1.731  0.00  0.00    +0.013 A 
ATOM     15  C   LIG    1        4.303  -6.772  -0.406  0.00  0.00    +0.002 A 
ATOM     16  C   LIG    1        3.645  -6.087   0.611  0.00  0.00    +0.121 A 
ATOM     17  N   LIG    1        2.653  -5.264   0.335  0.00  0.00    -0.240 NA
BRANCH  12  23
ATOM     18  C   LIG    1       -0.393  -0.343  -1.616  0.00  0.00    -0.096 C 
ATOM     19  N   LIG    1       -0.212  -1.797  -1.517  0.00  0.00    +0.380 N 
ATOM     20  H   LIG    1       -1.098  -2.256  -1.665  0.00  0.00    -0.082 HD
ATOM     21  C   LIG    1        0.743  -2.241  -2.541  0.00  0.00    -0.060 C 
ATOM     22  C   LIG    1        0.846  -3.769  -2.514  0.00  0.00    +0.088 C 
ATOM     23  N   LIG    1        1.185  -4.190  -1.145  0.00  0.00    -0.319 N 
ATOM     24  C   LIG    1        0.377  -3.659  -0.037  0.00  0.00    +0.088 C 
ATOM     25  C   LIG    1        0.295  -2.135  -0.181  0.00  0.00    -0.060 C 
ENDBRANCH  12  23
ENDBRANCH   1  15
BRANCH  10  26
ATOM     26  C   LIG    1        6.952  -8.078   3.870  0.00  0.00    +0.141 C 
BRANCH  26  27
ATOM     27  C   LIG    1        5.636  -8.512   4.463  0.00  0.00    -0.017 A 
ATOM     28  C   LIG    1        4.965  -9.599   3.936  0.00  0.00    +0.025 A 
ATOM     29  C   LIG    1        3.758  -9.997   4.481  0.00  0.00    +0.041 A 
ATOM     30 CL   LIG    1        2.914 -11.363   3.820  0.00  0.00    -0.084 Cl
ATOM     31  C   LIG    1        3.222  -9.306   5.554  0.00  0.00    +0.020 A 
ATOM     32  C   LIG    1        3.894  -8.219   6.080  0.00  0.00    +0.014 A 
ATOM     33  C   LIG    1        5.103  -7.825   5.538  0.00  0.00    +0.060 A 
BRANCH  33  34
ATOM     34  C   LIG    1        5.838  -6.643   6.116  0.00  0.00    +0.418 C 
ATOM     35  F   LIG    1        5.935  -5.636   5.149  0.00  0.00    -0.166 F 
ATOM     36  F   LIG    1        7.122  -7.038   6.507  0.00  0.00    -0.166 F 
ATOM     37  F   LIG    1        5.141  -6.158   7.227  0.00  0.00    -0.166 F 
ENDBRANCH  33  34
ENDBRANCH  26  27
ENDBRANCH  10  26
TORSDOF 5
