REMARK  Name = ZINC43761372
REMARK                            x       y       z     vdW  Elec       q    Type
REMARK                         _______ _______ _______ _____ _____    ______ ____
ROOT
ATOM      1  C   LIG    1       -0.085   1.338   0.629  0.00  0.00    +0.001 A 
ATOM      2  C   LIG    1        1.069   2.070   0.402  0.00  0.00    +0.004 A 
ATOM      3  C   LIG    1        2.267   1.433   0.140  0.00  0.00    +0.046 A 
ATOM      4  C   LIG    1        2.319   0.049   0.102  0.00  0.00    +0.132 A 
ATOM      5  C   LIG    1        1.150  -0.693   0.334  0.00  0.00    +0.064 A 
ATOM      6  C   LIG    1        1.231  -2.170   0.295  0.00  0.00    +0.196 C 
ATOM      7  C   LIG    1        2.533  -2.750   0.361  0.00  0.00    +0.038 C 
ATOM      8  C   LIG    1        3.725  -1.836   0.506  0.00  0.00    +0.268 C 
ATOM      9  C   LIG    1        2.696  -4.091   0.294  0.00  0.00    +0.018 C 
ATOM     10  O   LIG    1        0.231  -2.860   0.210  0.00  0.00    -0.287 OA
ATOM     11  O   LIG    1        3.481  -0.597  -0.157  0.00  0.00    -0.487 OA
ATOM     12  C   LIG    1       -0.052  -0.041   0.596  0.00  0.00    +0.015 A 
ENDROOT
BRANCH   9  13
ATOM     13  C   LIG    1        4.019  -4.683   0.523  0.00  0.00    -0.024 A 
ATOM     14  C   LIG    1        4.910  -4.083   1.424  0.00  0.00    +0.010 A 
ATOM     15  C   LIG    1        6.141  -4.637   1.634  0.00  0.00    +0.023 A 
ATOM     16  C   LIG    1        6.511  -5.796   0.956  0.00  0.00    +0.025 A 
ATOM     17  C   LIG    1        5.629  -6.395   0.059  0.00  0.00    +0.023 A 
ATOM     18  C   LIG    1        4.394  -5.851  -0.153  0.00  0.00    +0.010 A 
BRANCH  16  19
ATOM     19  N   LIG    1        7.765  -6.356   1.173  0.00  0.00    -0.358 N 
ATOM     20  H   LIG    1        8.024  -7.163   0.701  0.00  0.00    +0.142 HD
ATOM     21  H   LIG    1        8.381  -5.940   1.796  0.00  0.00    +0.142 HD
ENDBRANCH  16  19
ENDBRANCH   9  13
TORSDOF 2
