REMARK  Name = ZINC28565323
REMARK                            x       y       z     vdW  Elec       q    Type
REMARK                         _______ _______ _______ _____ _____    ______ ____
ROOT
ATOM      1  C   LIG    1        3.682  -0.718  -0.077  0.00  0.00    +0.103 A 
ATOM      2  C   LIG    1        3.996  -1.860   0.684  0.00  0.00    +0.055 A 
ATOM      3  C   LIG    1        5.335  -2.173   0.423  0.00  0.00    +0.077 A 
ATOM      4  C   LIG    1        6.184  -3.191   0.887  0.00  0.00    +0.028 A 
ATOM      5  C   LIG    1        7.471  -3.239   0.443  0.00  0.00    +0.004 A 
ATOM      6  C   LIG    1        7.925  -2.274  -0.470  0.00  0.00    +0.020 A 
ATOM      7  C   LIG    1        7.095  -1.303  -0.907  0.00  0.00    +0.113 A 
ATOM      8  N   LIG    1        5.802  -1.242  -0.469  0.00  0.00    -0.239 N 
ATOM      9  N   LIG    1        4.754  -0.361  -0.761  0.00  0.00    -0.166 NA
ENDROOT
BRANCH   2  10
ATOM     10  C   LIG    1        3.083  -2.590   1.590  0.00  0.00    +0.098 A 
ATOM     11  C   LIG    1        3.512  -2.930   2.866  0.00  0.00    +0.045 A 
ATOM     12  C   LIG    1        2.609  -3.623   3.689  0.00  0.00    +0.064 A 
ATOM     13  C   LIG    1        2.629  -4.136   4.983  0.00  0.00    +0.121 A 
ATOM     14  N   LIG    1        1.434  -4.707   5.210  0.00  0.00    -0.262 N 
ATOM     15  N   LIG    1        0.619  -4.579   4.080  0.00  0.00    -0.150 NA
ATOM     16  H   LIG    1        1.175  -5.143   6.037  0.00  0.00    +0.190 HD
ATOM     17  C   LIG    1        1.278  -3.935   3.136  0.00  0.00    +0.204 A 
ATOM     18  N   LIG    1        0.998  -3.544   1.883  0.00  0.00    -0.127 NA
ATOM     19  N   LIG    1        1.855  -2.908   1.171  0.00  0.00    -0.147 NA
BRANCH  13  20
ATOM     20  N   LIG    1        3.687  -4.070   5.873  0.00  0.00    -0.343 N 
ATOM     21  H   LIG    1        3.602  -4.460   6.757  0.00  0.00    +0.144 HD
ATOM     22  H   LIG    1        4.514  -3.634   5.612  0.00  0.00    +0.144 HD
ENDBRANCH  13  20
ENDBRANCH   2  10
BRANCH   1  26
ATOM     23  C   LIG    1       -0.089   1.243  -0.172  0.00  0.00    +0.000 A 
ATOM     24  C   LIG    1        0.424   0.794   1.031  0.00  0.00    +0.001 A 
ATOM     25  C   LIG    1        1.647   0.156   1.068  0.00  0.00    +0.010 A 
ATOM     26  C   LIG    1        2.367  -0.034  -0.111  0.00  0.00    +0.003 A 
ATOM     27  C   LIG    1        1.845   0.421  -1.320  0.00  0.00    +0.010 A 
ATOM     28  C   LIG    1        0.621   1.057  -1.345  0.00  0.00    +0.001 A 
ENDBRANCH   1  26
TORSDOF 3
