REMARK  Name = ZINC40524285
REMARK                            x       y       z     vdW  Elec       q    Type
REMARK                         _______ _______ _______ _____ _____    ______ ____
ROOT
ATOM      1  C   LIG    1        4.107  -0.595   0.030  0.00  0.00    +0.049 A 
ATOM      2  C   LIG    1        4.718  -1.061   1.159  0.00  0.00    +0.032 A 
ATOM      3  C   LIG    1        6.114  -1.207   1.193  0.00  0.00    -0.016 A 
ATOM      4  C   LIG    1        6.763  -1.685   2.345  0.00  0.00    +0.008 A 
ATOM      5  C   LIG    1        8.117  -1.818   2.351  0.00  0.00    +0.001 A 
ATOM      6  C   LIG    1        8.877  -1.486   1.230  0.00  0.00    +0.001 A 
ATOM      7  C   LIG    1        8.285  -1.020   0.096  0.00  0.00    +0.008 A 
ATOM      8  C   LIG    1        6.887  -0.870   0.051  0.00  0.00    -0.017 A 
ATOM      9  C   LIG    1        6.248  -0.393  -1.102  0.00  0.00    +0.025 A 
ATOM     10  C   LIG    1        4.867  -0.261  -1.114  0.00  0.00    +0.081 A 
ENDROOT
BRANCH   1  13
ATOM     11  N   LIG    1        0.622  -0.990   0.872  0.00  0.00    -0.286 N 
ATOM     12  C   LIG    1        1.950  -1.209   0.810  0.00  0.00    +0.306 C 
ATOM     13  N   LIG    1        2.721  -0.452   0.004  0.00  0.00    -0.269 N 
ATOM     14  H   LIG    1        2.311   0.191  -0.595  0.00  0.00    +0.156 HD
ATOM     15  O   LIG    1        2.454  -2.088   1.483  0.00  0.00    -0.252 OA
BRANCH  11  17
ATOM     16  C   LIG    1        0.008   1.377   0.855  0.00  0.00    +0.024 C 
ATOM     17  C   LIG    1        0.015   0.069   0.061  0.00  0.00    +0.106 C 
ENDBRANCH  11  17
BRANCH  11  18
ATOM     18  C   LIG    1       -0.216  -1.812   1.748  0.00  0.00    +0.106 C 
ATOM     19  C   LIG    1       -0.712  -3.038   0.978  0.00  0.00    +0.024 C 
ENDBRANCH  11  18
ENDBRANCH   1  13
BRANCH  10  20
ATOM     20  C   LIG    1        4.190   0.234  -2.323  0.00  0.00    +0.339 C 
ATOM     21  O   LIG    1        4.833   0.438  -3.344  0.00  0.00    -0.245 OA
BRANCH  20  22
ATOM     22  O   LIG    1        2.984   0.441  -2.308  0.00  0.00    -0.477 OA
ATOM     23  H   LIG    1        2.492   0.284  -1.526  0.00  0.00    +0.295 HD
ENDBRANCH  20  22
ENDBRANCH  10  20
TORSDOF 5
