REMARK  Name = ZINC28256912
REMARK                            x       y       z     vdW  Elec       q    Type
REMARK                         _______ _______ _______ _____ _____    ______ ____
ROOT
ATOM      1  C   LIG    1        5.209   3.630   0.504  0.00  0.00    -0.096 C 
ATOM      2  N   LIG    1        4.106   2.716   0.176  0.00  0.00    +0.380 N 
ATOM      3  H   LIG    1        4.507   1.801  -0.285  0.00  0.00    -0.082 HD
ATOM      4  C   LIG    1        3.259   3.275  -0.871  0.00  0.00    -0.078 C 
ATOM      5  C   LIG    1        2.077   2.361  -1.262  0.00  0.00    -0.003 C 
ATOM      6  C   LIG    1        1.386   2.042   0.050  0.00  0.00    +0.042 C 
ATOM      7  C   LIG    1        0.953   3.341   0.677  0.00  0.00    +0.011 A 
ATOM      8  C   LIG    1        1.643   4.078   1.601  0.00  0.00    -0.041 A 
ATOM      9  C   LIG    1        1.041   5.264   1.971  0.00  0.00    +0.007 A 
ATOM     10  C   LIG    1       -0.216   5.587   1.477  0.00  0.00    +0.049 A 
ATOM     11  C   LIG    1       -0.956   4.757   0.633  0.00  0.00    +0.159 A 
ATOM     12  C   LIG    1        2.893   3.483   2.159  0.00  0.00    +0.021 C 
ATOM     13  C   LIG    1       -0.360   3.563   0.243  0.00  0.00    +0.166 A 
ATOM     14  O   LIG    1       -0.799   2.466  -0.474  0.00  0.00    -0.481 OA
ATOM     15  C   LIG    1        2.371   1.276   0.906  0.00  0.00    +0.012 C 
ATOM     16  C   LIG    1        1.723   0.280   1.786  0.00  0.00    -0.026 C 
ATOM     17  C   LIG    1        0.650  -0.397   1.384  0.00  0.00    +0.004 C 
ATOM     18  C   LIG    1        0.023  -0.037   0.023  0.00  0.00    +0.178 C 
ATOM     19  C   LIG    1       -0.010   1.444   0.078  0.00  0.00    +0.217 C 
ATOM     20  C   LIG    1        3.405   2.263   1.408  0.00  0.00    -0.057 C 
ENDROOT
BRANCH  11  21
ATOM     21  O   LIG    1       -2.202   5.101   0.211  0.00  0.00    -0.503 OA
ATOM     22  H   LIG    1       -2.763   4.428  -0.455  0.00  0.00    +0.292 HD
ENDBRANCH  11  21
BRANCH  18  23
ATOM     23  O   LIG    1        0.847  -0.489  -1.054  0.00  0.00    -0.384 OA
ATOM     24  H   LIG    1        0.977  -1.567  -1.232  0.00  0.00    +0.210 HD
ENDBRANCH  18  23
TORSDOF 2
