REMARK  Name = ZINC27861803
REMARK                            x       y       z     vdW  Elec       q    Type
REMARK                         _______ _______ _______ _____ _____    ______ ____
ROOT
ATOM      1  C   LIG    1        1.002   2.142  -0.230  0.00  0.00    +0.229 C 
ATOM      2  N   LIG    1        0.192   1.580   0.689  0.00  0.00    -0.287 N 
ATOM      3  O   LIG    1        1.900   1.494  -0.725  0.00  0.00    -0.274 OA
ENDROOT
BRANCH   2   4
ATOM      4  C   LIG    1        0.318   0.154   1.001  0.00  0.00    +0.077 C 
ATOM      5  C   LIG    1        1.755  -0.161   1.464  0.00  0.00    +0.022 C 
ATOM      6  C   LIG    1        2.051  -1.557   0.862  0.00  0.00    +0.002 C 
ATOM      7  C   LIG    1        1.365  -1.483  -0.525  0.00  0.00    +0.002 C 
ATOM      8  C   LIG    1        0.070  -0.686  -0.264  0.00  0.00    +0.022 C 
ENDBRANCH   2   4
BRANCH   1  10
ATOM      9  C   LIG    1        0.935   4.485   0.580  0.00  0.00    +0.028 C 
ATOM     10  C   LIG    1        0.792   3.576  -0.643  0.00  0.00    +0.126 C 
BRANCH  10  11
ATOM     11  S   LIG    1       -0.869   3.766  -1.347  0.00  0.00    -0.166 S 
ATOM     12  H   LIG    1       -1.158   3.188  -2.237  0.00  0.00    +0.102 HD
ENDBRANCH  10  11
ENDBRANCH   1  10
BRANCH   2  13
ATOM     13  C   LIG    1       -0.818   2.393   1.371  0.00  0.00    +0.228 C 
BRANCH  13  14
ATOM     14  C   LIG    1       -0.281   2.846   2.704  0.00  0.00    +0.322 C 
ATOM     15  O   LIG    1        0.831   2.523   3.049  0.00  0.00    -0.249 OA
BRANCH  14  16
ATOM     16  O   LIG    1       -1.038   3.609   3.508  0.00  0.00    -0.480 OA
ATOM     17  H   LIG    1       -1.901   3.859   3.240  0.00  0.00    +0.295 HD
ENDBRANCH  14  16
ENDBRANCH  13  14
ENDBRANCH   2  13
TORSDOF 6
