REMARK  Name = ZINC16505435
REMARK                            x       y       z     vdW  Elec       q    Type
REMARK                         _______ _______ _______ _____ _____    ______ ____
ROOT
ATOM      1  C   LIG    1        2.259  -6.096   3.154  0.00  0.00    +0.039 A 
ATOM      2  C   LIG    1        1.676  -6.887   2.159  0.00  0.00    +0.015 A 
ATOM      3  C   LIG    1        1.832  -8.254   2.190  0.00  0.00    +0.026 A 
ATOM      4  C   LIG    1        2.569  -8.849   3.211  0.00  0.00    +0.062 A 
ATOM      5  C   LIG    1        3.151  -8.064   4.203  0.00  0.00    +0.143 A 
ATOM      6  C   LIG    1        3.003  -6.696   4.174  0.00  0.00    +0.047 A 
ENDROOT
BRANCH   1   9
ATOM      7  N   LIG    1        1.376  -4.053   2.140  0.00  0.00    -0.281 N 
ATOM      8  H   LIG    1        0.897  -4.605   1.502  0.00  0.00    +0.155 HD
ATOM      9  C   LIG    1        2.094  -4.631   3.124  0.00  0.00    +0.248 C 
ATOM     10  O   LIG    1        2.606  -3.943   3.987  0.00  0.00    -0.270 OA
BRANCH   7  15
ATOM     11  C   LIG    1        2.304  -0.505   2.439  0.00  0.00    +0.122 A 
ATOM     12  C   LIG    1        1.209   0.101   1.837  0.00  0.00    +0.046 A 
ATOM     13  C   LIG    1        0.177  -0.670   1.339  0.00  0.00    +0.005 A 
ATOM     14  C   LIG    1        0.230  -2.047   1.438  0.00  0.00    +0.023 A 
ATOM     15  C   LIG    1        1.323  -2.660   2.039  0.00  0.00    +0.037 A 
ATOM     16  C   LIG    1        2.363  -1.886   2.535  0.00  0.00    +0.069 A 
BRANCH  11  18
ATOM     17  C   LIG    1        3.190   1.672   2.794  0.00  0.00    +0.277 C 
ATOM     18  O   LIG    1        3.318   0.255   2.928  0.00  0.00    -0.495 OA
ENDBRANCH  11  18
ENDBRANCH   7  15
ENDBRANCH   1   9
BRANCH   4  19
ATOM     19  N   LIG    1        2.724 -10.231   3.240  0.00  0.00    -0.313 N 
ATOM     20  H   LIG    1        3.342 -10.663   2.628  0.00  0.00    +0.152 HD
BRANCH  19  21
ATOM     21  C   LIG    1        1.991 -10.998   4.149  0.00  0.00    +0.031 A 
ATOM     22  C   LIG    1        1.026 -10.397   4.947  0.00  0.00    +0.023 A 
ATOM     23  C   LIG    1        0.303 -11.158   5.844  0.00  0.00    +0.002 A 
ATOM     24  C   LIG    1        0.539 -12.516   5.950  0.00  0.00    +0.000 A 
ATOM     25  C   LIG    1        1.500 -13.117   5.158  0.00  0.00    +0.002 A 
ATOM     26  C   LIG    1        2.223 -12.364   4.254  0.00  0.00    +0.023 A 
ENDBRANCH  19  21
ENDBRANCH   4  19
BRANCH   5  27
ATOM     27  N   LIG    1        3.933  -8.701   5.286  0.00  0.00    +0.008 N 
ATOM     28  O   LIG    1        4.510  -8.016   6.098  0.00  0.00    -0.130 OA
BRANCH  27  29
ATOM     29  O   LIG    1        3.997  -9.906   5.357  0.00  0.00    -0.396 OA
ATOM     30  H   LIG    1        3.550 -10.437   4.728  0.00  0.00    +0.329 HD
ENDBRANCH  27  29
ENDBRANCH   5  27
TORSDOF 7
