REMARK  Name = ZINC28231328
REMARK                            x       y       z     vdW  Elec       q    Type
REMARK                         _______ _______ _______ _____ _____    ______ ____
ROOT
ATOM      1  N   LIG    1        3.584   2.128  -0.021  0.00  0.00    -0.327 N 
ATOM      2  C   LIG    1        4.438   1.735   1.109  0.00  0.00    +0.120 C 
ATOM      3  C   LIG    1        5.772   2.480   1.020  0.00  0.00    +0.103 C 
ATOM      4  N   LIG    1        5.522   3.929   1.030  0.00  0.00    -0.294 NA
ATOM      5  C   LIG    1        4.669   4.321  -0.100  0.00  0.00    +0.103 C 
ATOM      6  C   LIG    1        3.335   3.576  -0.011  0.00  0.00    +0.120 C 
ENDROOT
BRANCH   1  10
ATOM      7  C   LIG    1        0.002  -0.004   0.002  0.00  0.00    +0.120 A 
ATOM      8  C   LIG    1       -0.017   1.383   0.010  0.00  0.00    +0.047 A 
ATOM      9  C   LIG    1        1.170   2.090   0.002  0.00  0.00    +0.027 A 
ATOM     10  C   LIG    1        2.381   1.412  -0.013  0.00  0.00    +0.030 A 
ATOM     11  C   LIG    1        2.399   0.024  -0.021  0.00  0.00    +0.027 A 
ATOM     12  C   LIG    1        1.212  -0.682  -0.013  0.00  0.00    +0.047 A 
BRANCH   7  14
ATOM     13  C   LIG    1       -1.073  -2.126   0.001  0.00  0.00    +0.277 C 
ATOM     14  O   LIG    1       -1.167  -0.700   0.010  0.00  0.00    -0.495 OA
ENDBRANCH   7  14
ENDBRANCH   1  10
BRANCH   4  15
ATOM     15  C   LIG    1        6.785   4.680   1.022  0.00  0.00    +0.085 C 
ATOM     16  C   LIG    1        7.536   4.400  -0.281  0.00  0.00    +0.021 C 
ATOM     17  C   LIG    1        8.851   5.183  -0.289  0.00  0.00    +0.002 C 
ATOM     18  C   LIG    1        9.711   4.748   0.899  0.00  0.00    +0.003 C 
ATOM     19  C   LIG    1        8.960   5.027   2.202  0.00  0.00    +0.033 C 
ATOM     20  C   LIG    1        7.645   4.245   2.210  0.00  0.00    +0.132 C 
BRANCH  20  21
ATOM     21  O   LIG    1        6.943   4.506   3.427  0.00  0.00    -0.390 OA
ATOM     22  H   LIG    1        7.406   4.257   4.394  0.00  0.00    +0.210 HD
ENDBRANCH  20  21
ENDBRANCH   4  15
TORSDOF 4
