REMARK  Name = ZINC58660958
REMARK                            x       y       z     vdW  Elec       q    Type
REMARK                         _______ _______ _______ _____ _____    ______ ____
ROOT
ATOM      1  N   LIG    1       -2.356   4.085   1.882  0.00  0.00    -0.290 N 
ATOM      2  H   LIG    1       -3.140   3.747   1.421  0.00  0.00    +0.154 HD
ENDROOT
BRANCH   1   3
ATOM      3  C   LIG    1       -2.252   5.436   2.174  0.00  0.00    +0.167 A 
ATOM      4  C   LIG    1       -3.290   6.327   1.805  0.00  0.00    +0.179 A 
ATOM      5  N   LIG    1       -4.448   6.160   1.189  0.00  0.00    -0.232 NA
ATOM      6  C   LIG    1       -5.066   7.334   1.083  0.00  0.00    +0.140 A 
ATOM      7  C   LIG    1       -4.276   8.292   1.653  0.00  0.00    +0.076 A 
ATOM      8  N   LIG    1       -3.154   7.660   2.110  0.00  0.00    -0.295 N 
ATOM      9  C   LIG    1       -2.023   8.086   2.758  0.00  0.00    +0.116 A 
ATOM     10  C   LIG    1       -1.063   7.200   3.088  0.00  0.00    +0.057 A 
ATOM     11  C   LIG    1        0.175   7.682   3.800  0.00  0.00    +0.067 C 
ATOM     12  N   LIG    1       -1.188   5.900   2.800  0.00  0.00    -0.232 NA
BRANCH   7  13
ATOM     13  C   LIG    1       -4.577   9.739   1.756  0.00  0.00    +0.038 A 
ATOM     14  C   LIG    1       -5.704  10.363   1.302  0.00  0.00    +0.115 A 
ATOM     15  N   LIG    1       -5.587  11.676   1.590  0.00  0.00    -0.284 N 
ATOM     16  N   LIG    1       -4.361  11.874   2.238  0.00  0.00    -0.182 NA
ATOM     17  H   LIG    1       -6.239  12.364   1.385  0.00  0.00    +0.188 HD
ATOM     18  C   LIG    1       -3.756  10.721   2.346  0.00  0.00    +0.144 A 
ENDBRANCH   7  13
ENDBRANCH   1   3
BRANCH   1  21
ATOM     19  C   LIG    1       -0.114   1.261   2.534  0.00  0.00    +0.036 A 
ATOM     20  C   LIG    1       -1.257   1.863   2.054  0.00  0.00    +0.054 A 
ATOM     21  C   LIG    1       -1.336   3.212   2.252  0.00  0.00    +0.091 A 
ATOM     22  S   LIG    1        0.100   3.560   3.048  0.00  0.00    +0.027 S 
ATOM     23  N   LIG    1        0.767   2.028   3.127  0.00  0.00    -0.215 NA
BRANCH  19  24
ATOM     24  C   LIG    1        0.111  -0.222   2.389  0.00  0.00    -0.021 C 
BRANCH  24  25
ATOM     25  N   LIG    1        0.925  -0.479   1.193  0.00  0.00    +0.388 N 
ATOM     26  H   LIG    1        1.771   0.071   1.237  0.00  0.00    -0.080 HD
BRANCH  25  27
ATOM     27  C   LIG    1        1.271  -1.905   1.133  0.00  0.00    -0.047 C 
ATOM     28  C   LIG    1       -0.011  -2.738   1.065  0.00  0.00    -0.008 C 
ATOM     29  C   LIG    1        2.065  -2.291   2.383  0.00  0.00    -0.008 C 
BRANCH  27  30
ATOM     30  C   LIG    1        2.119  -2.172  -0.112  0.00  0.00    +0.143 C 
BRANCH  30  31
ATOM     31  O   LIG    1        2.455  -3.560  -0.171  0.00  0.00    -0.396 OA
ATOM     32  H   LIG    1        2.994  -3.802  -0.937  0.00  0.00    +0.209 HD
ENDBRANCH  30  31
ENDBRANCH  27  30
ENDBRANCH  25  27
BRANCH  25  34
ATOM     33  C   LIG    1        0.372   1.378  -0.305  0.00  0.00    -0.017 C 
ATOM     34  C   LIG    1        0.163  -0.108  -0.007  0.00  0.00    -0.081 C 
ENDBRANCH  25  34
ENDBRANCH  24  25
ENDBRANCH  19  24
ENDBRANCH   1  21
TORSDOF 9
