REMARK  Name = ZINC13831220
REMARK                            x       y       z     vdW  Elec       q    Type
REMARK                         _______ _______ _______ _____ _____    ______ ____
ROOT
ATOM      1  C   LIG    1       -0.019   1.526   0.010  0.00  0.00    +0.207 C 
ENDROOT
BRANCH   1   2
ATOM      2  N   LIG    1        1.356   2.033   0.000  0.00  0.00    -0.278 N 
ATOM      3  H   LIG    1        2.102   1.413  -0.010  0.00  0.00    +0.258 HD
BRANCH   2   4
ATOM      4  C   LIG    1        1.587   3.381   0.005  0.00  0.00    +0.341 C 
ATOM      5  N   LIG    1        2.837   3.842  -0.004  0.00  0.00    -0.292 N 
ATOM      6  H   LIG    1        3.001   4.798  -0.001  0.00  0.00    +0.255 HD
ATOM      7  H   LIG    1        3.583   3.222  -0.015  0.00  0.00    +0.255 HD
BRANCH   4   8
ATOM      8  N   LIG    1        0.563   4.233   0.019  0.00  0.00    -0.292 N 
ATOM      9  H   LIG    1        0.728   5.189   0.023  0.00  0.00    +0.255 HD
ATOM     10  H   LIG    1       -0.347   3.897   0.026  0.00  0.00    +0.255 HD
ENDBRANCH   4   8
ENDBRANCH   2   4
ENDBRANCH   1   2
BRANCH   1  11
ATOM     11  C   LIG    1        0.002  -0.004   0.002  0.00  0.00    +0.114 C 
BRANCH  11  12
ATOM     12  S   LIG    1       -1.700  -0.632   0.015  0.00  0.00    -0.090 S 
BRANCH  12  13
ATOM     13  C   LIG    1       -1.508  -2.383   0.004  0.00  0.00    +0.123 C 
ATOM     14  N   LIG    1       -2.424  -3.158   0.586  0.00  0.00    -0.382 N 
ATOM     15  H   LIG    1       -2.318  -4.122   0.579  0.00  0.00    +0.158 HD
ATOM     16  H   LIG    1       -3.196  -2.757   1.015  0.00  0.00    +0.158 HD
BRANCH  13  17
ATOM     17  N   LIG    1       -0.447  -2.934  -0.587  0.00  0.00    -0.340 N 
ATOM     18  H   LIG    1       -0.342  -3.898  -0.593  0.00  0.00    +0.144 HD
ATOM     19  H   LIG    1        0.219  -2.370  -1.010  0.00  0.00    +0.144 HD
ENDBRANCH  13  17
ENDBRANCH  12  13
ENDBRANCH  11  12
ENDBRANCH   1  11
TORSDOF 7
