REMARK  Name = ZINC14946469
REMARK                            x       y       z     vdW  Elec       q    Type
REMARK                         _______ _______ _______ _____ _____    ______ ____
ROOT
ATOM      1  C   LIG    1        3.455   3.522  -0.013  0.00  0.00    +0.000 C 
ATOM      2  C   LIG    1        2.217   4.160  -0.000  0.00  0.00    +0.002 C 
ATOM      3  C   LIG    1        1.059   3.446   0.007  0.00  0.00    +0.019 C 
ATOM      4  C   LIG    1        1.105   2.041   0.003  0.00  0.00    +0.058 C 
ATOM      5  N   LIG    1       -0.089   1.353   0.010  0.00  0.00    -0.310 NA
ATOM      6  H   LIG    1       -0.995   1.837   0.021  0.00  0.00    +0.122 HD
ATOM      7  C   LIG    1        0.002  -0.004   0.002  0.00  0.00    +0.061 C 
ATOM      8  C   LIG    1       -1.155  -0.984   0.007  0.00  0.00    +0.021 C 
ATOM      9  C   LIG    1       -0.551  -2.328  -0.450  0.00  0.00    +0.033 C 
ATOM     10  C   LIG    1        0.925  -2.194  -0.020  0.00  0.00    +0.121 C 
ATOM     11  C   LIG    1        1.200  -0.706  -0.012  0.00  0.00    +0.051 C 
ATOM     12  C   LIG    1        2.405  -0.018  -0.018  0.00  0.00    +0.062 C 
ATOM     13  C   LIG    1        2.365   1.396  -0.011  0.00  0.00    +0.023 C 
ATOM     14  C   LIG    1        3.538   2.162  -0.017  0.00  0.00    +0.006 C 
ENDROOT
BRANCH  12  15
ATOM     15  N   LIG    1        3.614  -0.697  -0.030  0.00  0.00    -0.327 NA
ATOM     16  H   LIG    1        4.448  -0.202  -0.034  0.00  0.00    +0.118 HD
ATOM     17  H   LIG    1        3.625  -1.667  -0.035  0.00  0.00    +0.118 HD
ENDBRANCH  12  15
BRANCH  10  18
ATOM     18  O   LIG    1        1.114  -2.740   1.287  0.00  0.00    -0.391 OA
ATOM     19  H   LIG    1        0.951  -3.692   1.343  0.00  0.00    +0.210 HD
ENDBRANCH  10  18
TORSDOF 2
