REMARK  Name = ZINC27092703
REMARK                            x       y       z     vdW  Elec       q    Type
REMARK                         _______ _______ _______ _____ _____    ______ ____
ROOT
ATOM      1  C   LIG    1        0.718  -0.497  -1.257  0.00  0.00    +0.127 C 
ATOM      2  C   LIG    1        0.822  -2.034  -1.250  0.00  0.00    +0.155 C 
ATOM      3  N   LIG    1        0.070  -2.436  -2.450  0.00  0.00    -0.275 N 
ATOM      4  C   LIG    1       -0.409  -1.296  -3.073  0.00  0.00    +0.160 A 
ATOM      5  C   LIG    1       -1.196  -1.474  -4.302  0.00  0.00    +0.127 A 
ATOM      6  C   LIG    1       -1.422  -2.754  -4.778  0.00  0.00    +0.167 A 
ATOM      7  N   LIG    1       -0.899  -3.836  -4.080  0.00  0.00    -0.280 N 
ATOM      8  C   LIG    1       -1.133  -5.195  -4.576  0.00  0.00    +0.155 C 
ATOM      9  N   LIG    1       -2.151  -2.646  -5.890  0.00  0.00    -0.210 NA
ATOM     10  C   LIG    1       -2.397  -1.376  -6.141  0.00  0.00    +0.141 A 
ATOM     11  N   LIG    1       -1.818  -0.608  -5.174  0.00  0.00    -0.334 N 
ATOM     12  H   LIG    1       -1.841   0.359  -5.112  0.00  0.00    +0.168 HD
ATOM     13  C   LIG    1       -0.182  -3.655  -2.960  0.00  0.00    +0.332 A 
ATOM     14  O   LIG    1        0.257  -4.632  -2.383  0.00  0.00    -0.246 OA
ATOM     15  N   LIG    1       -0.075  -0.192  -2.451  0.00  0.00    -0.260 NA
ENDROOT
BRANCH  10  16
ATOM     16  C   LIG    1       -3.175  -0.864  -7.289  0.00  0.00    +0.017 A 
ATOM     17  C   LIG    1       -3.363   0.509  -7.452  0.00  0.00    +0.011 A 
ATOM     18  C   LIG    1       -4.090   0.980  -8.526  0.00  0.00    +0.001 A 
ATOM     19  C   LIG    1       -4.633   0.094  -9.440  0.00  0.00    +0.000 A 
ATOM     20  C   LIG    1       -4.450  -1.268  -9.284  0.00  0.00    +0.001 A 
ATOM     21  C   LIG    1       -3.721  -1.752  -8.218  0.00  0.00    +0.011 A 
ENDBRANCH  10  16
BRANCH   1  23
ATOM     22  C   LIG    1       -0.019   1.526   0.010  0.00  0.00    +0.006 C 
ATOM     23  C   LIG    1        0.002  -0.004   0.002  0.00  0.00    +0.025 C 
ENDBRANCH   1  23
TORSDOF 2
