REMARK  Name = ZINC53259701
REMARK                            x       y       z     vdW  Elec       q    Type
REMARK                         _______ _______ _______ _____ _____    ______ ____
ROOT
ATOM      1  CA  PHE A  3        4.397  -0.832   1.137  0.00  0.00    +0.163 C 
ENDROOT
BRANCH   1   2
ATOM      2  C   PHE A  3        5.792  -1.316   0.835  0.00  0.00    +0.237 C 
ATOM      3  N   PRO A  4        5.975  -2.454   0.137  0.00  0.00    -0.288 N 
ATOM      4  CD  PRO A  4        4.909  -3.264  -0.480  0.00  0.00    +0.109 C 
ATOM      5  CG  PRO A  4        5.611  -4.038  -1.624  0.00  0.00    +0.021 C 
ATOM      6  CB  PRO A  4        6.991  -4.349  -0.988  0.00  0.00    +0.033 C 
ATOM      7  CA  PRO A  4        7.271  -3.090  -0.141  0.00  0.00    +0.162 C 
ATOM      8  O   PHE A  3        6.751  -0.681   1.221  0.00  0.00    -0.274 OA
BRANCH   7   9
ATOM      9  C   PRO A  4        8.155  -2.140  -0.907  0.00  0.00    +0.234 C 
ATOM     10  N   GLY A  5        9.397  -2.518  -1.269  0.00  0.00    -0.303 N 
ATOM     11  H   GLY A  5        9.721  -3.402  -1.037  0.00  0.00    +0.149 HD
ATOM     12  O   PRO A  4        7.749  -1.034  -1.197  0.00  0.00    -0.274 OA
BRANCH  10  13
ATOM     13  CA  GLY A  5       10.256  -1.594  -2.014  0.00  0.00    +0.224 C 
BRANCH  13  14
ATOM     14  C   GLY A  5       11.581  -2.255  -2.293  0.00  0.00    +0.322 C 
ATOM     15  O   GLY A  5       11.788  -3.393  -1.906  0.00  0.00    -0.249 OA
BRANCH  14  16
ATOM     16  OXT GLY A  5       12.446  -1.653  -2.906  0.00  0.00    -0.480 OA
ATOM     17  HXT GLY A  5       12.286  -0.779  -3.203  0.00  0.00    +0.295 HD
ENDBRANCH  14  16
ENDBRANCH  13  14
ENDBRANCH  10  13
ENDBRANCH   7   9
ENDBRANCH   1   2
BRANCH   1  18
ATOM     18  N   PHE A  3        4.427   0.046   2.309  0.00  0.00    -0.302 N 
ATOM     19  H   PHE A  3        5.243   0.517   2.541  0.00  0.00    +0.150 HD
ATOM     20  C   PRO A  2        3.322   0.199   3.065  0.00  0.00    +0.234 C 
ATOM     21  O   PRO A  2        2.330  -0.459   2.829  0.00  0.00    -0.274 OA
BRANCH  20  22
ATOM     22  CA  PRO A  2        3.318   1.187   4.202  0.00  0.00    +0.162 C 
ATOM     23  CB  PRO A  2        4.055   0.589   5.420  0.00  0.00    +0.033 C 
ATOM     24  CG  PRO A  2        3.204   1.085   6.619  0.00  0.00    +0.021 C 
ATOM     25  CD  PRO A  2        1.774   1.042   6.025  0.00  0.00    +0.108 C 
ATOM     26  N   PRO A  2        1.935   1.465   4.619  0.00  0.00    -0.289 N 
ATOM     27  C   TYR A  1        0.978   2.014   3.845  0.00  0.00    +0.233 C 
ATOM     28  O   TYR A  1        1.204   2.253   2.678  0.00  0.00    -0.274 OA
BRANCH  27  29
ATOM     29  CA  TYR A  1       -0.374   2.331   4.431  0.00  0.00    +0.142 C 
BRANCH  29  30
ATOM     30  N   TYR A  1       -1.360   2.455   3.349  0.00  0.00    -0.320 NA
ATOM     31  H1  TYR A  1       -1.103   3.192   2.709  0.00  0.00    +0.119 HD
ATOM     32  H2  TYR A  1       -2.286   2.604   3.719  0.00  0.00    +0.119 HD
ENDBRANCH  29  30
BRANCH  29  33
ATOM     33  CB  TYR A  1       -0.298   3.648   5.205  0.00  0.00    +0.063 C 
BRANCH  33  34
ATOM     34  CG  TYR A  1       -1.615   3.903   5.893  0.00  0.00    -0.045 A 
ATOM     35  CD2 TYR A  1       -2.610   4.606   5.239  0.00  0.00    +0.007 A 
ATOM     36  CE2 TYR A  1       -3.817   4.842   5.867  0.00  0.00    +0.045 A 
ATOM     37  CZ  TYR A  1       -4.032   4.372   7.155  0.00  0.00    +0.117 A 
ATOM     38  CE1 TYR A  1       -3.032   3.667   7.809  0.00  0.00    +0.045 A 
ATOM     39  CD1 TYR A  1       -1.828   3.429   7.174  0.00  0.00    +0.007 A 
BRANCH  37  40
ATOM     40  OH  TYR A  1       -5.218   4.603   7.775  0.00  0.00    -0.507 OA
ATOM     41  HH  TYR A  1       -5.881   3.914   7.626  0.00  0.00    +0.292 HD
ENDBRANCH  37  40
ENDBRANCH  33  34
ENDBRANCH  29  33
ENDBRANCH  27  29
ENDBRANCH  20  22
ENDBRANCH   1  18
BRANCH   1  42
ATOM     42  CB  PHE A  3        3.854  -0.058  -0.067  0.00  0.00    +0.067 C 
BRANCH  42  46
ATOM     43  CZ  PHE A  3        6.240   3.425  -0.715  0.00  0.00    +0.000 A 
ATOM     44  CE1 PHE A  3        6.467   2.284  -1.460  0.00  0.00    +0.000 A 
ATOM     45  CD1 PHE A  3        5.696   1.156  -1.250  0.00  0.00    +0.004 A 
ATOM     46  CG  PHE A  3        4.697   1.170  -0.295  0.00  0.00    -0.045 A 
ATOM     47  CD2 PHE A  3        4.470   2.312   0.451  0.00  0.00    +0.004 A 
ATOM     48  CE2 PHE A  3        5.240   3.440   0.240  0.00  0.00    +0.000 A 
ENDBRANCH  42  46
ENDBRANCH   1  42
TORSDOF 14
