REMARK  Name = ZINC43199890
REMARK                            x       y       z     vdW  Elec       q    Type
REMARK                         _______ _______ _______ _____ _____    ______ ____
ROOT
ATOM      1  C   LIG    1       -1.275  -0.773   0.101  0.00  0.00    +0.076 A 
ATOM      2  C   LIG    1       -1.262  -2.140  -0.190  0.00  0.00    +0.048 A 
ATOM      3  C   LIG    1       -2.470  -2.781  -0.399  0.00  0.00    +0.116 A 
ATOM      4  N   LIG    1       -3.594  -2.087  -0.317  0.00  0.00    -0.223 NA
ATOM      5  C   LIG    1       -3.577  -0.791  -0.039  0.00  0.00    +0.220 A 
ATOM      6  N   LIG    1       -2.443  -0.140   0.172  0.00  0.00    -0.214 NA
ENDROOT
BRANCH   1  12
ATOM      7  C   LIG    1       -0.033   1.323   0.628  0.00  0.00    +0.011 A 
ATOM      8  C   LIG    1        1.145   2.004   0.843  0.00  0.00    +0.014 A 
ATOM      9  C   LIG    1        2.365   1.329   0.766  0.00  0.00    +0.037 A 
ATOM     10  C   LIG    1        2.391  -0.035   0.470  0.00  0.00    +0.014 A 
ATOM     11  C   LIG    1        1.212  -0.715   0.255  0.00  0.00    +0.011 A 
ATOM     12  C   LIG    1       -0.006  -0.040   0.332  0.00  0.00    +0.001 A 
BRANCH   9  13
ATOM     13  C   LIG    1        3.630   2.060   0.996  0.00  0.00    +0.245 C 
ATOM     14  N   LIG    1        4.808   1.409   0.922  0.00  0.00    -0.298 N 
ATOM     15  H   LIG    1        4.825   0.461   0.717  0.00  0.00    +0.150 HD
ATOM     16  O   LIG    1        3.607   3.248   1.253  0.00  0.00    -0.270 OA
BRANCH  14  17
ATOM     17  C   LIG    1        6.061   2.132   1.150  0.00  0.00    +0.223 C 
BRANCH  17  18
ATOM     18  C   LIG    1        7.195   1.205   1.013  0.00  0.00    +0.081 C 
ATOM     19  N   LIG    1        8.071   0.489   0.907  0.00  0.00    -0.195 NA
ENDBRANCH  17  18
ENDBRANCH  14  17
ENDBRANCH   9  13
ENDBRANCH   1  12
BRANCH   5  20
ATOM     20  N   LIG    1       -4.775  -0.101   0.037  0.00  0.00    -0.284 N 
ATOM     21  H   LIG    1       -4.774   0.861   0.158  0.00  0.00    +0.155 HD
BRANCH  20  22
ATOM     22  C   LIG    1       -5.989  -0.793  -0.060  0.00  0.00    +0.034 A 
ATOM     23  C   LIG    1       -6.124  -2.044   0.527  0.00  0.00    +0.025 A 
ATOM     24  C   LIG    1       -7.321  -2.726   0.431  0.00  0.00    +0.025 A 
ATOM     25  C   LIG    1       -8.389  -2.162  -0.253  0.00  0.00    +0.030 A 
ATOM     26  C   LIG    1       -8.254  -0.910  -0.840  0.00  0.00    +0.025 A 
ATOM     27  C   LIG    1       -7.059  -0.226  -0.740  0.00  0.00    +0.025 A 
BRANCH  25  28
ATOM     28  N   LIG    1       -9.602  -2.853  -0.350  0.00  0.00    -0.326 N 
ATOM     29  C   LIG    1      -10.706  -2.334  -1.174  0.00  0.00    +0.133 C 
ATOM     30  C   LIG    1      -11.192  -3.459  -2.095  0.00  0.00    +0.178 C 
ATOM     31  O   LIG    1      -11.476  -4.620  -1.311  0.00  0.00    -0.377 OA
ATOM     32  C   LIG    1      -10.340  -5.159  -0.630  0.00  0.00    +0.178 C 
ATOM     33  C   LIG    1       -9.809  -4.124   0.362  0.00  0.00    +0.133 C 
ENDBRANCH  25  28
ENDBRANCH  20  22
ENDBRANCH   5  20
TORSDOF 7
