REMARK  Name = ZINC27183322
REMARK                            x       y       z     vdW  Elec       q    Type
REMARK                         _______ _______ _______ _____ _____    ______ ____
ROOT
ATOM      1  C   LIG    1       -0.051  -4.181   2.745  0.00  0.00    +0.195 A 
ATOM      2  N   LIG    1       -0.357  -5.259   3.537  0.00  0.00    -0.334 N 
ATOM      3  C   LIG    1        0.746  -5.509   4.322  0.00  0.00    +0.068 A 
ATOM      4  C   LIG    1        1.040  -6.451   5.300  0.00  0.00    +0.028 A 
ATOM      5  C   LIG    1        2.270  -6.441   5.921  0.00  0.00    +0.004 A 
ATOM      6  C   LIG    1        3.226  -5.496   5.579  0.00  0.00    +0.025 A 
ATOM      7  C   LIG    1        2.960  -4.548   4.609  0.00  0.00    +0.052 A 
ATOM      8  C   LIG    1        1.708  -4.544   3.965  0.00  0.00    +0.110 A 
ATOM      9  H   LIG    1       -1.192  -5.752   3.543  0.00  0.00    +0.168 HD
ATOM     10  N   LIG    1        1.167  -3.776   3.004  0.00  0.00    -0.222 NA
ENDROOT
BRANCH   1  17
ATOM     11  C   LIG    1       -0.710   1.735   0.727  0.00  0.00    -0.096 C 
ATOM     12  N   LIG    1       -0.441   0.301   0.553  0.00  0.00    +0.380 N 
ATOM     13  H   LIG    1        0.165   0.168  -0.243  0.00  0.00    -0.082 HD
ATOM     14  C   LIG    1       -1.706  -0.408   0.325  0.00  0.00    -0.060 C 
ATOM     15  C   LIG    1       -1.418  -1.883   0.030  0.00  0.00    +0.089 C 
ATOM     16  N   LIG    1       -0.606  -2.429   1.129  0.00  0.00    -0.299 N 
ATOM     17  C   LIG    1       -0.956  -3.574   1.748  0.00  0.00    +0.282 C 
ATOM     18  O   LIG    1       -2.016  -4.107   1.485  0.00  0.00    -0.267 OA
ATOM     19  C   LIG    1        0.599  -1.688   1.534  0.00  0.00    +0.089 C 
ATOM     20  C   LIG    1        0.215  -0.221   1.758  0.00  0.00    -0.060 C 
ENDBRANCH   1  17
BRANCH   7  21
ATOM     21  N   LIG    1        3.925  -3.601   4.271  0.00  0.00    -0.356 N 
ATOM     22  H   LIG    1        3.735  -2.937   3.590  0.00  0.00    +0.142 HD
ATOM     23  H   LIG    1        4.787  -3.606   4.717  0.00  0.00    +0.142 HD
ENDBRANCH   7  21
TORSDOF 2
