REMARK  Name = ZINC13782579
REMARK                            x       y       z     vdW  Elec       q    Type
REMARK                         _______ _______ _______ _____ _____    ______ ____
ROOT
ATOM      1  N   LIG    1        3.585   2.125  -0.022  0.00  0.00    -0.299 N 
ATOM      2  C   LIG    1        4.649   1.925   0.807  0.00  0.00    +0.205 A 
ATOM      3  N   LIG    1        5.601   2.765   0.523  0.00  0.00    -0.235 NA
ATOM      4  C   LIG    1        5.214   3.562  -0.508  0.00  0.00    +0.090 A 
ATOM      5  C   LIG    1        5.829   4.606  -1.197  0.00  0.00    +0.044 A 
ATOM      6  C   LIG    1        5.149   5.237  -2.235  0.00  0.00    +0.061 A 
ATOM      7  C   LIG    1        3.855   4.824  -2.583  0.00  0.00    +0.017 A 
ATOM      8  C   LIG    1        3.250   3.803  -1.910  0.00  0.00    +0.029 A 
ATOM      9  C   LIG    1        3.917   3.157  -0.875  0.00  0.00    +0.073 A 
ENDROOT
BRANCH   1  13
ATOM     10  C   LIG    1        0.002  -0.004   0.002  0.00  0.00    +0.000 A 
ATOM     11  C   LIG    1       -0.017   1.379   0.010  0.00  0.00    +0.002 A 
ATOM     12  C   LIG    1        1.169   2.087   0.002  0.00  0.00    +0.026 A 
ATOM     13  C   LIG    1        2.381   1.409  -0.014  0.00  0.00    +0.048 A 
ATOM     14  C   LIG    1        2.396   0.021  -0.021  0.00  0.00    +0.026 A 
ATOM     15  C   LIG    1        1.207  -0.682  -0.013  0.00  0.00    +0.002 A 
ENDBRANCH   1  13
BRANCH   6  16
ATOM     16  C   LIG    1        5.792   6.343  -2.970  0.00  0.00    +0.337 C 
ATOM     17  O   LIG    1        6.913   6.701  -2.670  0.00  0.00    -0.245 OA
BRANCH  16  18
ATOM     18  O   LIG    1        5.135   6.955  -3.975  0.00  0.00    -0.477 OA
ATOM     19  H   LIG    1        4.270   6.678  -4.207  0.00  0.00    +0.295 HD
ENDBRANCH  16  18
ENDBRANCH   6  16
TORSDOF 3
