REMARK  Name = ZINC53033378
REMARK                            x       y       z     vdW  Elec       q    Type
REMARK                         _______ _______ _______ _____ _____    ______ ____
ROOT
ATOM      1  C   LIG    1       -0.004  -0.639   2.361  0.00  0.00    +0.100 A 
ATOM      2  C   LIG    1        0.380   0.629   2.792  0.00  0.00    +0.111 A 
ATOM      3  C   LIG    1        0.342   0.620   4.212  0.00  0.00    +0.172 A 
ATOM      4  N   LIG    1        0.689   1.790   4.889  0.00  0.00    -0.276 N 
ATOM      5  C   LIG    1        1.048   2.892   4.210  0.00  0.00    +0.333 A 
ATOM      6  N   LIG    1        1.096   2.939   2.870  0.00  0.00    -0.263 N 
ATOM      7  C   LIG    1        1.499   4.184   2.211  0.00  0.00    +0.157 C 
ATOM      8  O   LIG    1        1.343   3.890   4.837  0.00  0.00    -0.246 OA
ATOM      9  N   LIG    1       -0.037  -0.568   4.599  0.00  0.00    -0.152 NA
ATOM     10  C   LIG    1        0.781   1.865   2.116  0.00  0.00    +0.268 A 
ATOM     11  O   LIG    1        0.829   1.922   0.901  0.00  0.00    -0.267 OA
ATOM     12  N   LIG    1       -0.265  -1.372   3.476  0.00  0.00    -0.255 N 
ENDROOT
BRANCH   1  18
ATOM     13  C   LIG    1        2.341  -0.957   0.381  0.00  0.00    +0.149 C 
ATOM     14  N   LIG    1        0.934  -1.236   0.084  0.00  0.00    -0.347 N 
ATOM     15  C   LIG    1        0.458  -1.680  -1.097  0.00  0.00    +0.104 A 
ATOM     16  C   LIG    1       -0.910  -1.823  -0.988  0.00  0.00    +0.070 A 
ATOM     17  C   LIG    1       -1.264  -1.445   0.330  0.00  0.00    +0.048 A 
ATOM     18  C   LIG    1       -0.111  -1.094   0.968  0.00  0.00    +0.069 A 
BRANCH  16  19
ATOM     19  C   LIG    1       -1.804  -2.271  -2.014  0.00  0.00    +0.101 C 
ATOM     20  N   LIG    1       -2.512  -2.626  -2.827  0.00  0.00    -0.191 NA
ENDBRANCH  16  19
ENDBRANCH   1  18
BRANCH   4  21
ATOM     21  C   LIG    1        0.661   1.816   6.353  0.00  0.00    +0.132 C 
BRANCH  21  22
ATOM     22  C   LIG    1        2.028   1.397   6.897  0.00  0.00    +0.009 C 
ATOM     23  C   LIG    1        2.095   0.113   7.726  0.00  0.00    +0.005 C 
ATOM     24  C   LIG    1        2.240   1.474   8.411  0.00  0.00    +0.005 C 
ENDBRANCH  21  22
ENDBRANCH   4  21
BRANCH  12  25
ATOM     25  C   LIG    1       -0.707  -2.768   3.498  0.00  0.00    +0.180 C 
BRANCH  25  26
ATOM     26  C   LIG    1        0.487  -3.671   3.674  0.00  0.00    -0.015 A 
ATOM     27  C   LIG    1        1.120  -4.216   2.593  0.00  0.00    +0.026 A 
ATOM     28  C   LIG    1        2.222  -5.048   2.779  0.00  0.00    +0.112 A 
ATOM     29  N   LIG    1        2.680  -5.328   3.975  0.00  0.00    -0.255 NA
ATOM     30  C   LIG    1        2.107  -4.828   5.074  0.00  0.00    +0.071 A 
ATOM     31  C   LIG    1        2.602  -5.133   6.354  0.00  0.00    +0.030 A 
ATOM     32  C   LIG    1        2.008  -4.596   7.454  0.00  0.00    +0.022 A 
ATOM     33  C   LIG    1        0.900  -3.757   7.336  0.00  0.00    +0.042 A 
ATOM     34 CL   LIG    1        0.163  -3.104   8.766  0.00  0.00    -0.084 Cl
ATOM     35  C   LIG    1        0.389  -3.443   6.113  0.00  0.00    +0.030 A 
ATOM     36  C   LIG    1        0.984  -3.970   4.956  0.00  0.00    +0.007 A 
ENDBRANCH  25  26
ENDBRANCH  12  25
TORSDOF 6
