REMARK  Name = ZINC34285235
REMARK                            x       y       z     vdW  Elec       q    Type
REMARK                         _______ _______ _______ _____ _____    ______ ____
ROOT
ATOM      1  C   LIG    1       -8.473  -1.679   0.059  0.00  0.00    +0.192 A 
ATOM      2  N   LIG    1       -9.067  -1.196   1.122  0.00  0.00    -0.129 NA
ATOM      3  N   LIG    1      -10.040  -0.426   0.777  0.00  0.00    -0.128 NA
ATOM      4  C   LIG    1      -10.114  -0.381  -0.543  0.00  0.00    +0.178 A 
ATOM      5  C   LIG    1      -10.961   0.284  -1.449  0.00  0.00    +0.052 A 
ATOM      6  C   LIG    1      -10.757   0.128  -2.784  0.00  0.00    +0.034 A 
ATOM      7  C   LIG    1       -9.715  -0.703  -3.248  0.00  0.00    +0.092 A 
ATOM      8  N   LIG    1       -8.926  -1.328  -2.403  0.00  0.00    -0.163 NA
ATOM      9  N   LIG    1       -9.105  -1.181  -1.026  0.00  0.00    -0.193 N 
ENDROOT
BRANCH   7  10
ATOM     10  C   LIG    1       -9.507  -0.872  -4.707  0.00  0.00    +0.002 A 
ATOM     11  C   LIG    1      -10.334  -0.210  -5.613  0.00  0.00    +0.010 A 
ATOM     12  C   LIG    1      -10.136  -0.371  -6.969  0.00  0.00    +0.001 A 
ATOM     13  C   LIG    1       -9.119  -1.188  -7.430  0.00  0.00    +0.000 A 
ATOM     14  C   LIG    1       -8.296  -1.848  -6.536  0.00  0.00    +0.001 A 
ATOM     15  C   LIG    1       -8.481  -1.690  -5.177  0.00  0.00    +0.010 A 
ENDBRANCH   7  10
BRANCH   1  16
ATOM     16  C   LIG    1       -7.294  -2.618   0.049  0.00  0.00    +0.307 C 
BRANCH  16  17
ATOM     17  O   LIG    1       -6.082  -1.860   0.043  0.00  0.00    -0.484 OA
BRANCH  17  22
ATOM     18  C   LIG    1       -1.200  -0.637   0.010  0.00  0.00    +0.122 A 
ATOM     19  C   LIG    1       -2.378   0.116   0.020  0.00  0.00    +0.046 A 
ATOM     20  C   LIG    1       -3.594  -0.493   0.027  0.00  0.00    +0.017 A 
ATOM     21  C   LIG    1       -3.673  -1.894   0.026  0.00  0.00    +0.042 A 
ATOM     22  C   LIG    1       -4.920  -2.558   0.033  0.00  0.00    +0.132 A 
ATOM     23  C   LIG    1       -4.919  -3.941   0.031  0.00  0.00    +0.066 A 
ATOM     24  C   LIG    1       -3.713  -4.630   0.021  0.00  0.00    +0.115 A 
ATOM     25  N   LIG    1       -2.559  -4.003   0.015  0.00  0.00    -0.255 NA
ATOM     26  C   LIG    1       -2.486  -2.667   0.016  0.00  0.00    +0.078 A 
ATOM     27  C   LIG    1       -1.244  -2.013   0.003  0.00  0.00    +0.074 A 
BRANCH  18  29
ATOM     28  C   LIG    1       -0.017   1.425   0.010  0.00  0.00    +0.277 C 
ATOM     29  O   LIG    1        0.002  -0.004   0.002  0.00  0.00    -0.495 OA
ENDBRANCH  18  29
ENDBRANCH  17  22
ENDBRANCH  16  17
ENDBRANCH   1  16
TORSDOF 5
