REMARK  Name = ZINC43207851
REMARK                            x       y       z     vdW  Elec       q    Type
REMARK                         _______ _______ _______ _____ _____    ______ ____
ROOT
ATOM      1  C   LIG    1       -2.416  -0.676   0.021  0.00  0.00    +0.039 A 
ATOM      2  C   LIG    1       -3.009   0.420   0.681  0.00  0.00    +0.144 A 
ATOM      3  N   LIG    1       -4.295   0.378   0.460  0.00  0.00    -0.179 NA
ATOM      4  N   LIG    1       -4.574  -0.736  -0.341  0.00  0.00    -0.267 N 
ATOM      5  C   LIG    1       -3.415  -1.367  -0.606  0.00  0.00    +0.118 A 
ENDROOT
BRANCH   1  13
ATOM      6  C   LIG    1       -0.018   1.456   0.010  0.00  0.00    +0.031 A 
ATOM      7  C   LIG    1        1.263   1.863   0.000  0.00  0.00    +0.085 A 
ATOM      8  N   LIG    1        2.096   0.775  -0.014  0.00  0.00    -0.346 N 
ATOM      9  C   LIG    1        1.361  -0.379  -0.013  0.00  0.00    +0.142 A 
ATOM     10  N   LIG    1        1.663  -1.674  -0.023  0.00  0.00    -0.218 NA
ATOM     11  C   LIG    1        0.714  -2.587  -0.020  0.00  0.00    +0.224 A 
ATOM     12  N   LIG    1       -0.570  -2.283  -0.006  0.00  0.00    -0.235 NA
ATOM     13  C   LIG    1       -0.975  -1.014   0.005  0.00  0.00    +0.086 A 
ATOM     14  H   LIG    1        3.065   0.816  -0.022  0.00  0.00    +0.167 HD
ATOM     15  C   LIG    1        0.002  -0.004   0.002  0.00  0.00    +0.045 A 
ENDBRANCH   1  13
BRANCH   4  16
ATOM     16  C   LIG    1       -5.900  -1.141  -0.815  0.00  0.00    +0.124 C 
BRANCH  16  17
ATOM     17  C   LIG    1       -6.134  -0.577  -2.218  0.00  0.00    +0.015 C 
ATOM     18  C   LIG    1       -6.126   0.965  -2.176  0.00  0.00    +0.005 C 
ATOM     19  C   LIG    1       -7.216   1.379  -3.196  0.00  0.00    +0.000 C 
ATOM     20  C   LIG    1       -8.312   0.307  -2.979  0.00  0.00    +0.000 C 
ATOM     21  C   LIG    1       -7.524  -0.996  -2.729  0.00  0.00    +0.005 C 
ENDBRANCH  16  17
BRANCH  16  22
ATOM     22  C   LIG    1       -5.980  -2.668  -0.860  0.00  0.00    +0.145 C 
BRANCH  22  23
ATOM     23  C   LIG    1       -5.874  -3.205   0.507  0.00  0.00    +0.065 C 
ATOM     24  N   LIG    1       -5.793  -3.619   1.562  0.00  0.00    -0.196 NA
ENDBRANCH  22  23
ENDBRANCH  16  22
ENDBRANCH   4  16
TORSDOF 5
