REMARK  Name = ZINC28456616
REMARK                            x       y       z     vdW  Elec       q    Type
REMARK                         _______ _______ _______ _____ _____    ______ ____
ROOT
ATOM      1  C   LIG    1       -0.019   1.526   0.010  0.00  0.00    +0.108 C 
ATOM      2  C   LIG    1        1.383   2.050  -0.000  0.00  0.00    +0.014 A 
ATOM      3  C   LIG    1        1.860   3.052  -0.774  0.00  0.00    -0.019 A 
ATOM      4  C   LIG    1        0.937   3.766  -1.755  0.00  0.00    +0.052 C 
ATOM      5  C   LIG    1       -0.510   3.470  -1.350  0.00  0.00    +0.086 C 
ATOM      6  C   LIG    1        3.264   3.364  -0.589  0.00  0.00    +0.091 A 
ATOM      7  C   LIG    1        3.967   2.617   0.350  0.00  0.00    +0.087 A 
ATOM      8  S   LIG    1        2.770   1.526   0.965  0.00  0.00    -0.076 S 
ATOM      9  N   LIG    1       -0.705   2.021  -1.198  0.00  0.00    -0.307 NA
ATOM     10  H   LIG    1       -0.298   1.513  -2.085  0.00  0.00    +0.123 HD
ENDROOT
BRANCH   7  11
ATOM     11  N   LIG    1        5.300   2.721   0.708  0.00  0.00    -0.270 N 
ATOM     12  H   LIG    1        5.942   3.471   0.223  0.00  0.00    +0.156 HD
ATOM     13  C   LIG    1        5.811   1.902   1.649  0.00  0.00    +0.326 C 
ATOM     14  O   LIG    1        5.102   1.075   2.183  0.00  0.00    -0.263 OA
BRANCH  13  15
ATOM     15  C   LIG    1        7.248   2.014   2.034  0.00  0.00    +0.393 C 
ATOM     16  O   LIG    1        7.957   2.841   1.500  0.00  0.00    -0.240 OA
BRANCH  15  17
ATOM     17  O   LIG    1        7.759   1.197   2.974  0.00  0.00    -0.474 OA
ATOM     18  H   LIG    1        7.211   0.558   3.386  0.00  0.00    +0.296 HD
ENDBRANCH  15  17
ENDBRANCH  13  15
ENDBRANCH   7  11
BRANCH   6  19
ATOM     19  C   LIG    1        3.917   4.424  -1.361  0.00  0.00    +0.339 C 
ATOM     20  O   LIG    1        3.933   5.564  -0.936  0.00  0.00    -0.245 OA
BRANCH  19  21
ATOM     21  O   LIG    1        4.499   4.137  -2.543  0.00  0.00    -0.477 OA
ATOM     22  H   LIG    1        4.486   3.259  -2.871  0.00  0.00    +0.295 HD
ENDBRANCH  19  21
ENDBRANCH   6  19
BRANCH   1  23
ATOM     23  C   LIG    1        0.002  -0.004   0.002  0.00  0.00    +0.128 C 
BRANCH  23  25
ATOM     24  C   LIG    1       -1.596  -1.839  -0.134  0.00  0.00    +0.260 C 
ATOM     25  N   LIG    1       -1.368  -0.510  -0.108  0.00  0.00    -0.308 N 
ATOM     26  H   LIG    1       -2.211   0.193  -0.169  0.00  0.00    +0.149 HD
ATOM     27  O   LIG    1       -0.663  -2.617  -0.067  0.00  0.00    -0.269 OA
BRANCH  24  33
ATOM     28  C   LIG    1       -7.451  -3.210  -0.601  0.00  0.00    +0.040 A 
ATOM     29  C   LIG    1       -6.572  -2.152  -0.525  0.00  0.00    +0.029 A 
ATOM     30  C   LIG    1       -5.205  -2.393  -0.420  0.00  0.00    +0.047 A 
ATOM     31  C   LIG    1       -4.736  -3.721  -0.393  0.00  0.00    +0.003 A 
ATOM     32  C   LIG    1       -3.325  -3.658  -0.287  0.00  0.00    +0.041 A 
ATOM     33  C   LIG    1       -2.971  -2.347  -0.245  0.00  0.00    +0.103 A 
ATOM     34  C   LIG    1       -5.648  -4.781  -0.471  0.00  0.00    +0.048 A 
ATOM     35  N   LIG    1       -4.109  -1.567  -0.328  0.00  0.00    -0.351 N 
ATOM     36  H   LIG    1       -4.240  -0.475  -0.331  0.00  0.00    +0.166 HD
ATOM     37  C   LIG    1       -6.986  -4.520  -0.574  0.00  0.00    +0.124 A 
ATOM     38  F   LIG    1       -7.864  -5.544  -0.650  0.00  0.00    -0.205 F 
ENDBRANCH  24  33
ENDBRANCH  23  25
ENDBRANCH   1  23
TORSDOF 8
