REMARK  Name = ZINC35342789
REMARK                            x       y       z     vdW  Elec       q    Type
REMARK                         _______ _______ _______ _____ _____    ______ ____
ROOT
ATOM      1  C   LIG    1        0.188  -4.994   1.246  0.00  0.00    +0.028 A 
ATOM      2  C   LIG    1       -0.413  -4.503   2.410  0.00  0.00    +0.048 A 
ATOM      3  C   LIG    1       -0.293  -5.198   3.593  0.00  0.00    +0.167 A 
ATOM      4  C   LIG    1        0.424  -6.387   3.634  0.00  0.00    +0.189 A 
ATOM      5  C   LIG    1        1.026  -6.882   2.477  0.00  0.00    +0.161 A 
ATOM      6  C   LIG    1        0.905  -6.194   1.286  0.00  0.00    +0.061 A 
ENDROOT
BRANCH   1   7
ATOM      7  C   LIG    1        0.060  -4.251  -0.021  0.00  0.00    +0.193 C 
ATOM      8  O   LIG    1       -0.010  -4.854  -1.075  0.00  0.00    -0.287 OA
BRANCH   7  13
ATOM      9  C   LIG    1       -0.111   1.501   0.019  0.00  0.00    +0.044 C 
ATOM     10  C   LIG    1       -0.066  -0.006   0.008  0.00  0.00    -0.050 A 
ATOM     11  C   LIG    1       -0.301  -0.693  -1.169  0.00  0.00    +0.004 A 
ATOM     12  C   LIG    1       -0.262  -2.072  -1.186  0.00  0.00    +0.012 A 
ATOM     13  C   LIG    1        0.016  -2.774  -0.011  0.00  0.00    +0.022 A 
ATOM     14  C   LIG    1        0.253  -2.073   1.174  0.00  0.00    +0.012 A 
ATOM     15  C   LIG    1        0.215  -0.694   1.175  0.00  0.00    +0.004 A 
ENDBRANCH   7  13
ENDBRANCH   1   7
BRANCH   3  16
ATOM     16  N   LIG    1       -0.929  -4.677   4.823  0.00  0.00    +0.010 N 
ATOM     17  O   LIG    1       -1.553  -3.642   4.790  0.00  0.00    -0.130 OA
BRANCH  16  18
ATOM     18  O   LIG    1       -0.825  -5.286   5.862  0.00  0.00    -0.396 OA
ATOM     19  H   LIG    1       -0.341  -6.088   5.889  0.00  0.00    +0.329 HD
ENDBRANCH  16  18
ENDBRANCH   3  16
BRANCH   4  20
ATOM     20  O   LIG    1        0.539  -7.069   4.802  0.00  0.00    -0.502 OA
ATOM     21  H   LIG    1       -0.163  -7.716   4.951  0.00  0.00    +0.292 HD
ENDBRANCH   4  20
BRANCH   5  22
ATOM     22  O   LIG    1        1.728  -8.046   2.521  0.00  0.00    -0.503 OA
ATOM     23  H   LIG    1        1.195  -8.834   2.344  0.00  0.00    +0.292 HD
ENDBRANCH   5  22
TORSDOF 6
