REMARK  Name = ZINC29560054
REMARK                            x       y       z     vdW  Elec       q    Type
REMARK                         _______ _______ _______ _____ _____    ______ ____
ROOT
ATOM      1  C   LIG    1       -0.013   1.076   0.008  0.00  0.00    +0.004 A 
ATOM      2  C   LIG    1        1.176   1.779   0.000  0.00  0.00    +0.012 A 
ATOM      3  C   LIG    1        1.155   3.170   0.013  0.00  0.00    +0.020 A 
ATOM      4  C   LIG    1       -0.069   3.852   0.012  0.00  0.00    +0.169 A 
ATOM      5  O   LIG    1       -0.066   5.210  -0.008  0.00  0.00    -0.483 OA
ATOM      6  C   LIG    1        1.002   5.875   0.668  0.00  0.00    +0.261 C 
ATOM      7  C   LIG    1        2.327   5.257   0.306  0.00  0.00    -0.018 C 
ATOM      8  C   LIG    1       -1.256   3.135   0.024  0.00  0.00    +0.163 A 
ATOM      9  C   LIG    1        2.402   3.963   0.009  0.00  0.00    +0.015 C 
ATOM     10  C   LIG    1       -1.222   1.748   0.017  0.00  0.00    +0.049 A 
ENDROOT
BRANCH   7  11
ATOM     11  C   LIG    1        3.571   6.108   0.279  0.00  0.00    +0.118 C 
BRANCH  11  12
ATOM     12  N   LIG    1        3.682   6.772  -1.026  0.00  0.00    -0.294 NA
ATOM     13  C   LIG    1        3.914   5.792  -2.098  0.00  0.00    +0.113 C 
ATOM     14  C   LIG    1        3.964   6.519  -3.444  0.00  0.00    +0.175 C 
ATOM     15  O   LIG    1        4.980   7.523  -3.401  0.00  0.00    -0.377 OA
ATOM     16  C   LIG    1        4.786   8.495  -2.369  0.00  0.00    +0.175 C 
ATOM     17  C   LIG    1        4.745   7.788  -1.012  0.00  0.00    +0.113 C 
ENDBRANCH  11  12
ENDBRANCH   7  11
BRANCH   8  18
ATOM     18  O   LIG    1       -2.448   3.789   0.035  0.00  0.00    -0.486 OA
BRANCH  18  19
ATOM     19  C   LIG    1       -3.629   2.984   0.046  0.00  0.00    +0.258 C 
BRANCH  19  20
ATOM     20  C   LIG    1       -4.863   3.889   0.059  0.00  0.00    +0.139 C 
ATOM     21  C   LIG    1       -6.126   3.032  -0.053  0.00  0.00    -0.047 C 
ATOM     22  N   LIG    1       -7.310   3.900   0.038  0.00  0.00    +0.382 N 
ATOM     23  H   LIG    1       -8.220   3.284  -0.016  0.00  0.00    -0.086 HD
ATOM     24  H   LIG    1       -7.303   4.618  -0.795  0.00  0.00    -0.086 HD
ATOM     25  C   LIG    1       -7.315   4.644   1.306  0.00  0.00    -0.054 C 
ATOM     26  C   LIG    1       -6.039   5.485   1.403  0.00  0.00    +0.141 C 
ATOM     27  O   LIG    1       -4.900   4.629   1.282  0.00  0.00    -0.377 OA
ENDBRANCH  19  20
ENDBRANCH  18  19
ENDBRANCH   8  18
TORSDOF 5
