REMARK  Name = ZINC36056301
REMARK                            x       y       z     vdW  Elec       q    Type
REMARK                         _______ _______ _______ _____ _____    ______ ____
ROOT
ATOM      1  N   LIG    1       -1.080  -2.128   0.164  0.00  0.00    -0.266 N 
ATOM      2  C   LIG    1       -1.791  -2.235  -1.006  0.00  0.00    +0.162 A 
ATOM      3  C   LIG    1       -3.111  -2.609  -0.665  0.00  0.00    +0.085 A 
ATOM      4  C   LIG    1       -3.168  -2.723   0.741  0.00  0.00    +0.093 A 
ATOM      5  C   LIG    1       -4.345  -3.091   1.528  0.00  0.00    +0.066 A 
ATOM      6  C   LIG    1       -4.517  -2.819   2.889  0.00  0.00    +0.037 A 
ATOM      7  C   LIG    1       -5.765  -3.334   3.243  0.00  0.00    +0.004 A 
ATOM      8  C   LIG    1       -6.519  -3.392   4.428  0.00  0.00    +0.055 A 
ATOM      9  C   LIG    1       -7.744  -3.991   4.415  0.00  0.00    +0.118 A 
ATOM     10  C   LIG    1       -8.269  -4.551   3.246  0.00  0.00    +0.047 A 
ATOM     11  C   LIG    1       -7.586  -4.526   2.071  0.00  0.00    +0.030 A 
ATOM     12  C   LIG    1       -6.316  -3.922   2.015  0.00  0.00    +0.047 A 
ATOM     13  N   LIG    1       -5.421  -3.732   1.050  0.00  0.00    -0.353 N 
ATOM     14  H   LIG    1       -5.530  -4.020   0.130  0.00  0.00    +0.166 HD
ATOM     15  C   LIG    1       -4.045  -2.784  -1.705  0.00  0.00    +0.131 A 
ATOM     16  N   LIG    1       -3.639  -2.588  -2.959  0.00  0.00    -0.220 NA
ATOM     17  C   LIG    1       -2.396  -2.239  -3.226  0.00  0.00    +0.225 A 
ATOM     18  N   LIG    1       -1.487  -2.064  -2.286  0.00  0.00    -0.216 NA
ATOM     19  N   LIG    1       -1.932  -2.435   1.233  0.00  0.00    -0.293 N 
ATOM     20  H   LIG    1       -1.682  -2.439   2.170  0.00  0.00    +0.187 HD
ENDROOT
BRANCH   1  22
ATOM     21  C   LIG    1        0.467  -0.494   1.122  0.00  0.00    +0.032 C 
ATOM     22  C   LIG    1        0.334  -1.762   0.275  0.00  0.00    +0.101 C 
ATOM     23  C   LIG    1        1.106  -2.902   0.941  0.00  0.00    +0.032 C 
ENDBRANCH   1  22
BRANCH  15  24
ATOM     24  N   LIG    1       -5.344  -3.148  -1.433  0.00  0.00    -0.342 N 
ATOM     25  H   LIG    1       -5.784  -3.819  -1.979  0.00  0.00    +0.144 HD
ATOM     26  H   LIG    1       -5.820  -2.734  -0.697  0.00  0.00    +0.144 HD
ENDBRANCH  15  24
BRANCH   9  27
ATOM     27  O   LIG    1       -8.471  -4.045   5.563  0.00  0.00    -0.507 OA
ATOM     28  H   LIG    1       -9.057  -3.287   5.694  0.00  0.00    +0.292 HD
ENDBRANCH   9  27
TORSDOF 3
