REMARK  Name = ZINC00008253
REMARK                            x       y       z     vdW  Elec       q    Type
REMARK                         _______ _______ _______ _____ _____    ______ ____
ROOT
ATOM      1  C   LIG    1        0.626  -0.619   1.042  0.00  0.00    +0.121 A 
ATOM      2  C   LIG    1        1.204   0.145   2.054  0.00  0.00    +0.047 A 
ATOM      3  C   LIG    1        1.839  -0.461   3.114  0.00  0.00    +0.030 A 
ATOM      4  C   LIG    1        1.909  -1.849   3.182  0.00  0.00    +0.047 A 
ATOM      5  C   LIG    1        1.327  -2.623   2.162  0.00  0.00    +0.006 A 
ATOM      6  C   LIG    1        1.570  -4.021   2.526  0.00  0.00    -0.021 A 
ATOM      7  C   LIG    1        2.249  -4.014   3.683  0.00  0.00    +0.087 A 
ATOM      8  N   LIG    1        2.461  -2.726   4.092  0.00  0.00    -0.360 N 
ATOM      9  H   LIG    1        2.931  -2.467   4.900  0.00  0.00    +0.165 HD
ATOM     10  C   LIG    1        0.680  -1.997   1.094  0.00  0.00    +0.056 A 
ENDROOT
BRANCH   1  12
ATOM     11  C   LIG    1       -0.017   1.425   0.010  0.00  0.00    +0.277 C 
ATOM     12  O   LIG    1        0.002  -0.004   0.002  0.00  0.00    -0.495 OA
ENDBRANCH   1  12
BRANCH   6  13
ATOM     13  C   LIG    1        1.138  -5.237   1.747  0.00  0.00    +0.056 C 
BRANCH  13  14
ATOM     14  C   LIG    1        2.178  -5.548   0.669  0.00  0.00    +0.109 C 
BRANCH  14  15
ATOM     15  N   LIG    1        1.758  -6.730  -0.088  0.00  0.00    -0.315 N 
ATOM     16  H   LIG    1        0.929  -7.180   0.136  0.00  0.00    +0.149 HD
ATOM     17  C   LIG    1        2.525  -7.193  -1.095  0.00  0.00    +0.216 C 
ATOM     18  O   LIG    1        3.562  -6.630  -1.375  0.00  0.00    -0.276 OA
BRANCH  17  19
ATOM     19  C   LIG    1        2.093  -8.409  -1.873  0.00  0.00    +0.075 C 
ATOM     20  C   LIG    1        2.919  -9.686  -1.704  0.00  0.00    +0.013 C 
ATOM     21  C   LIG    1        3.007  -8.884  -3.005  0.00  0.00    +0.013 C 
ENDBRANCH  17  19
ENDBRANCH  14  15
ENDBRANCH  13  14
ENDBRANCH   6  13
TORSDOF 5
