REMARK  Name = ZINC43207770
REMARK                            x       y       z     vdW  Elec       q    Type
REMARK                         _______ _______ _______ _____ _____    ______ ____
ROOT
ATOM      1  C   LIG    1        0.731  -0.503   1.223  0.00  0.00    +0.019 A 
ATOM      2  C   LIG    1        2.050  -0.227   1.561  0.00  0.00    +0.141 A 
ATOM      3  N   LIG    1        2.335  -0.832   2.690  0.00  0.00    -0.171 NA
ATOM      4  N   LIG    1        1.203  -1.528   3.130  0.00  0.00    -0.200 N 
ATOM      5  C   LIG    1        0.967  -2.310   4.232  0.00  0.00    +0.126 A 
ATOM      6  C   LIG    1       -0.270  -2.860   4.402  0.00  0.00    +0.087 A 
ATOM      7  C   LIG    1       -1.266  -2.622   3.442  0.00  0.00    +0.124 A 
ATOM      8  N   LIG    1       -1.007  -1.867   2.388  0.00  0.00    -0.213 NA
ATOM      9  C   LIG    1        0.204  -1.317   2.216  0.00  0.00    +0.163 A 
ENDROOT
BRANCH   1  11
ATOM     10  C   LIG    1       -0.019   1.526   0.010  0.00  0.00    +0.012 C 
ATOM     11  C   LIG    1        0.002  -0.004   0.002  0.00  0.00    +0.018 C 
ATOM     12  C   LIG    1        0.718  -0.497  -1.257  0.00  0.00    +0.012 C 
ENDBRANCH   1  11
BRANCH   5  13
ATOM     13  N   LIG    1        1.963  -2.526   5.162  0.00  0.00    -0.325 N 
ATOM     14  H   LIG    1        2.837  -2.124   5.039  0.00  0.00    +0.148 HD
BRANCH  13  15
ATOM     15  C   LIG    1        1.700  -3.363   6.335  0.00  0.00    +0.138 C 
BRANCH  15  16
ATOM     16  C   LIG    1        2.941  -3.439   7.186  0.00  0.00    -0.030 A 
ATOM     17  C   LIG    1        3.871  -4.436   6.965  0.00  0.00    +0.005 A 
ATOM     18  C   LIG    1        5.010  -4.506   7.745  0.00  0.00    +0.000 A 
ATOM     19  C   LIG    1        5.218  -3.577   8.748  0.00  0.00    +0.000 A 
ATOM     20  C   LIG    1        4.288  -2.579   8.969  0.00  0.00    +0.000 A 
ATOM     21  C   LIG    1        3.151  -2.507   8.186  0.00  0.00    +0.005 A 
ENDBRANCH  15  16
ENDBRANCH  13  15
ENDBRANCH   5  13
BRANCH   7  22
ATOM     22  N   LIG    1       -2.524  -3.180   3.600  0.00  0.00    -0.329 N 
ATOM     23  H   LIG    1       -2.716  -3.734   4.372  0.00  0.00    +0.147 HD
BRANCH  22  24
ATOM     24  C   LIG    1       -3.565  -2.933   2.599  0.00  0.00    +0.103 C 
BRANCH  24  25
ATOM     25  C   LIG    1       -4.849  -3.658   3.009  0.00  0.00    +0.019 C 
BRANCH  25  26
ATOM     26  C   LIG    1       -5.936  -3.400   1.964  0.00  0.00    +0.001 C 
BRANCH  26  27
ATOM     27  C   LIG    1       -7.220  -4.125   2.374  0.00  0.00    -0.002 C 
BRANCH  27  28
ATOM     28  C   LIG    1       -8.307  -3.867   1.329  0.00  0.00    -0.020 C 
BRANCH  28  29
ATOM     29  C   LIG    1       -9.591  -4.592   1.739  0.00  0.00    -0.086 C 
BRANCH  29  30
ATOM     30  N   LIG    1      -10.635  -4.345   0.736  0.00  0.00    +0.378 N 
ATOM     31  H   LIG    1      -10.327  -4.687  -0.162  0.00  0.00    -0.090 HD
ATOM     32  H   LIG    1      -10.813  -3.353   0.674  0.00  0.00    -0.090 HD
ATOM     33  H   LIG    1      -11.481  -4.823   1.006  0.00  0.00    -0.090 HD
ENDBRANCH  29  30
ENDBRANCH  28  29
ENDBRANCH  27  28
ENDBRANCH  26  27
ENDBRANCH  25  26
ENDBRANCH  24  25
ENDBRANCH  22  24
ENDBRANCH   7  22
TORSDOF 12
