REMARK  Name = ZINC51355960
REMARK                            x       y       z     vdW  Elec       q    Type
REMARK                         _______ _______ _______ _____ _____    ______ ____
ROOT
ATOM      1  N   LIG    1       -0.150  -0.029   2.411  0.00  0.00    -0.269 N 
ATOM      2  H   LIG    1        0.033   0.924   2.406  0.00  0.00    +0.156 HD
ATOM      3  C   LIG    1       -0.234  -0.693   3.580  0.00  0.00    +0.308 C 
ATOM      4  N   LIG    1       -0.156  -0.019   4.745  0.00  0.00    -0.269 N 
ATOM      5  H   LIG    1       -0.115   0.950   4.743  0.00  0.00    +0.156 HD
ATOM      6  O   LIG    1       -0.381  -1.900   3.585  0.00  0.00    -0.252 OA
ENDROOT
BRANCH   1  13
ATOM      7  C   LIG    1       -1.355   1.363   0.242  0.00  0.00    +0.046 C 
ATOM      8  C   LIG    1       -0.911  -0.072   0.118  0.00  0.00    -0.026 A 
ATOM      9  C   LIG    1       -1.080  -0.747  -1.075  0.00  0.00    +0.050 A 
ATOM     10  C   LIG    1       -0.671  -2.067  -1.190  0.00  0.00    +0.120 A 
ATOM     11  C   LIG    1       -0.092  -2.711  -0.106  0.00  0.00    +0.047 A 
ATOM     12  C   LIG    1        0.078  -2.038   1.087  0.00  0.00    +0.027 A 
ATOM     13  C   LIG    1       -0.327  -0.714   1.201  0.00  0.00    +0.038 A 
BRANCH  10  14
ATOM     14  O   LIG    1       -0.839  -2.731  -2.365  0.00  0.00    -0.495 OA
ATOM     15  C   LIG    1       -0.395  -4.088  -2.412  0.00  0.00    +0.277 C 
ENDBRANCH  10  14
ENDBRANCH   1  13
BRANCH   4  16
ATOM     16  C   LIG    1       -0.135  -0.718   5.958  0.00  0.00    +0.035 A 
ATOM     17  C   LIG    1       -0.738  -0.174   7.084  0.00  0.00    +0.025 A 
ATOM     18  C   LIG    1       -0.716  -0.866   8.279  0.00  0.00    +0.030 A 
ATOM     19  C   LIG    1       -0.094  -2.099   8.355  0.00  0.00    +0.105 A 
ATOM     20  C   LIG    1        0.507  -2.643   7.234  0.00  0.00    +0.030 A 
ATOM     21  C   LIG    1        0.483  -1.959   6.035  0.00  0.00    +0.025 A 
BRANCH  19  22
ATOM     22  S   LIG    1       -0.067  -2.978   9.882  0.00  0.00    +0.056 S 
ATOM     23  O   LIG    1       -0.222  -2.010  10.910  0.00  0.00    -0.153 OA
ATOM     24  O   LIG    1        1.049  -3.857   9.824  0.00  0.00    -0.153 OA
BRANCH  22  25
ATOM     25  N   LIG    1       -1.419  -3.932   9.921  0.00  0.00    -0.204 NA
ATOM     26  H   LIG    1       -1.590  -4.501  10.689  0.00  0.00    +0.144 HD
ATOM     27  H   LIG    1       -2.042  -3.923   9.177  0.00  0.00    +0.144 HD
ENDBRANCH  22  25
ENDBRANCH  19  22
ENDBRANCH   4  16
TORSDOF 5
