REMARK  Name = ZINC19632949
REMARK                            x       y       z     vdW  Elec       q    Type
REMARK                         _______ _______ _______ _____ _____    ______ ____
ROOT
ATOM      1  C   LIG    1        0.437   1.701   0.087  0.00  0.00    +0.018 C 
ATOM      2  C   LIG    1        0.173   0.197  -0.009  0.00  0.00    +0.063 C 
ATOM      3  C   LIG    1        0.802  -0.314  -1.293  0.00  0.00    +0.065 C 
ATOM      4  C   LIG    1        1.741  -1.299  -1.188  0.00  0.00    +0.049 C 
ATOM      5  C   LIG    1        2.382  -1.827  -2.446  0.00  0.00    +0.066 C 
ATOM      6  N   LIG    1        2.108  -1.809  -0.023  0.00  0.00    -0.256 NA
ATOM      7  C   LIG    1        1.636  -1.448   1.148  0.00  0.00    +0.049 C 
ATOM      8  C   LIG    1        2.156  -2.125   2.390  0.00  0.00    +0.066 C 
ATOM      9  C   LIG    1        0.669  -0.454   1.270  0.00  0.00    +0.060 C 
ATOM     10  C   LIG    1        0.181  -0.079   2.503  0.00  0.00    +0.284 C 
ENDROOT
BRANCH   3  11
ATOM     11  C   LIG    1        0.430   0.209  -2.544  0.00  0.00    +0.337 C 
ATOM     12  O   LIG    1        1.030  -0.130  -3.548  0.00  0.00    -0.245 OA
BRANCH  11  13
ATOM     13  O   LIG    1       -0.593   1.086  -2.632  0.00  0.00    -0.460 OA
BRANCH  13  14
ATOM     14  C   LIG    1       -0.917   1.577  -3.935  0.00  0.00    +0.243 C 
BRANCH  14  15
ATOM     15  C   LIG    1       -2.092   2.551  -3.836  0.00  0.00    +0.115 C 
BRANCH  15  16
ATOM     16  S   LIG    1       -2.503   3.173  -5.489  0.00  0.00    -0.122 S 
BRANCH  16  17
ATOM     17  C   LIG    1       -3.856   4.267  -5.210  0.00  0.00    +0.008 A 
ATOM     18  C   LIG    1       -4.336   4.465  -3.921  0.00  0.00    +0.015 A 
ATOM     19  C   LIG    1       -5.397   5.323  -3.705  0.00  0.00    +0.001 A 
ATOM     20  C   LIG    1       -5.980   5.985  -4.770  0.00  0.00    +0.000 A 
ATOM     21  C   LIG    1       -5.505   5.790  -6.054  0.00  0.00    +0.001 A 
ATOM     22  C   LIG    1       -4.441   4.939  -6.276  0.00  0.00    +0.015 A 
ENDBRANCH  16  17
ENDBRANCH  15  16
ENDBRANCH  14  15
ENDBRANCH  13  14
ENDBRANCH  11  13
ENDBRANCH   3  11
BRANCH  10  23
ATOM     23  O   LIG    1       -0.757   0.884   2.592  0.00  0.00    -0.467 OA
ATOM     24  C   LIG    1       -1.217   1.223   3.902  0.00  0.00    +0.280 C 
ENDBRANCH  10  23
BRANCH  10  25
ATOM     25  O   LIG    1        0.642  -0.677   3.620  0.00  0.00    -0.480 OA
ATOM     26  H   LIG    1        1.294  -1.347   3.558  0.00  0.00    +0.295 HD
ENDBRANCH  10  25
TORSDOF 8
