REMARK  Name = ZINC24714117
REMARK                            x       y       z     vdW  Elec       q    Type
REMARK                         _______ _______ _______ _____ _____    ______ ____
ROOT
ATOM      1  C   LIG    1        1.978   0.827  -3.640  0.00  0.00    +0.005 A 
ATOM      2  C   LIG    1        1.284   0.914  -4.830  0.00  0.00    +0.022 A 
ATOM      3  C   LIG    1       -0.070   1.193  -4.817  0.00  0.00    +0.060 A 
ATOM      4 CL   LIG    1       -0.950   1.302  -6.310  0.00  0.00    -0.082 Cl
ATOM      5  C   LIG    1       -0.722   1.386  -3.613  0.00  0.00    +0.064 A 
ATOM      6 CL   LIG    1       -2.422   1.736  -3.597  0.00  0.00    -0.082 Cl
ATOM      7  C   LIG    1       -0.024   1.300  -2.417  0.00  0.00    -0.011 A 
ATOM      8  C   LIG    1       -0.775   1.526  -1.131  0.00  0.00    +0.118 C 
ATOM      9  N   LIG    1       -0.012   1.005   0.008  0.00  0.00    -0.312 NA
ATOM     10  H   LIG    1        0.032  -0.092  -0.060  0.00  0.00    +0.122 HD
ATOM     11  C   LIG    1        1.355   1.551  -0.003  0.00  0.00    +0.086 C 
ATOM     12  C   LIG    1        2.125   0.911  -1.158  0.00  0.00    +0.050 C 
ATOM     13  C   LIG    1        1.326   1.019  -2.431  0.00  0.00    -0.040 A 
ENDROOT
TORSDOF 0
