REMARK  Name = ZINC00056509
REMARK                            x       y       z     vdW  Elec       q    Type
REMARK                         _______ _______ _______ _____ _____    ______ ____
ROOT
ATOM      1  N   LIG    1       -1.251  -1.933   0.243  0.00  0.00    -0.109 NA
ATOM      2  C   LIG    1       -2.418  -2.566   0.260  0.00  0.00    +0.201 A 
ATOM      3  N   LIG    1       -3.630  -1.990   0.031  0.00  0.00    -0.326 N 
ATOM      4  H   LIG    1       -3.784  -1.054  -0.171  0.00  0.00    +0.169 HD
ATOM      5  C   LIG    1       -4.606  -2.971   0.135  0.00  0.00    +0.065 A 
ATOM      6  C   LIG    1       -3.954  -4.172   0.437  0.00  0.00    +0.066 A 
ATOM      7  C   LIG    1       -4.686  -5.334   0.601  0.00  0.00    +0.039 A 
ATOM      8  C   LIG    1       -6.075  -5.303   0.464  0.00  0.00    +0.025 A 
ATOM      9  C   LIG    1       -6.721  -4.099   0.162  0.00  0.00    +0.014 A 
ATOM     10  C   LIG    1       -5.990  -2.945  -0.001  0.00  0.00    +0.028 A 
ATOM     11  N   LIG    1       -2.592  -3.893   0.504  0.00  0.00    -0.326 N 
ATOM     12  H   LIG    1       -1.888  -4.533   0.694  0.00  0.00    +0.169 HD
ENDROOT
BRANCH   1  13
ATOM     13  C   LIG    1       -1.208  -0.615   0.028  0.00  0.00    +0.427 C 
ATOM     14  O   LIG    1       -2.231  -0.007  -0.230  0.00  0.00    -0.224 OA
BRANCH  13  16
ATOM     15  C   LIG    1       -0.060   1.451  -0.145  0.00  0.00    +0.282 C 
ATOM     16  O   LIG    1       -0.031   0.042   0.096  0.00  0.00    -0.452 OA
ENDBRANCH  13  16
ENDBRANCH   1  13
BRANCH   8  17
ATOM     17  C   LIG    1       -6.863  -6.540   0.638  0.00  0.00    +0.200 C 
ATOM     18  O   LIG    1       -8.079  -6.492   0.641  0.00  0.00    -0.286 OA
BRANCH  17  19
ATOM     19  C   LIG    1       -6.180  -7.825   0.806  0.00  0.00    +0.059 A 
ATOM     20  C   LIG    1       -6.724  -9.082   1.035  0.00  0.00    +0.019 A 
ATOM     21  C   LIG    1       -5.822 -10.110   1.150  0.00  0.00    +0.008 A 
ATOM     22  C   LIG    1       -4.496  -9.841   1.036  0.00  0.00    +0.046 A 
ATOM     23  S   LIG    1       -4.435  -8.184   0.763  0.00  0.00    -0.093 S 
ENDBRANCH  17  19
ENDBRANCH   8  17
TORSDOF 4
