REMARK  Name = ZINC13776730
REMARK                            x       y       z     vdW  Elec       q    Type
REMARK                         _______ _______ _______ _____ _____    ______ ____
ROOT
ATOM      1  C   LIG    1       -0.249   0.880  -2.471  0.00  0.00    +0.020 C 
ATOM      2  C   LIG    1       -0.765   1.599  -1.223  0.00  0.00    +0.097 C 
ATOM      3  C   LIG    1       -0.013   1.086   0.008  0.00  0.00    +0.019 C 
ATOM      4  C   LIG    1       -0.743   1.587   1.261  0.00  0.00    +0.046 C 
ATOM      5  C   LIG    1       -2.119   0.919   1.317  0.00  0.00    +0.233 C 
ATOM      6  N   LIG    1       -2.803   1.049   0.037  0.00  0.00    -0.279 N 
ATOM      7  H   LIG    1       -3.889   0.878   0.070  0.00  0.00    +0.303 HD
ATOM      8  C   LIG    1       -2.235   1.335  -1.069  0.00  0.00    +0.239 C 
ENDROOT
BRANCH   8   9
ATOM      9  N   LIG    1       -3.019   1.408  -2.191  0.00  0.00    -0.254 N 
ATOM     10  H   LIG    1       -2.566   1.653  -3.163  0.00  0.00    +0.288 HD
ATOM     11  H   LIG    1       -4.101   1.221  -2.119  0.00  0.00    +0.288 HD
ENDBRANCH   8   9
TORSDOF 1
