REMARK  Name = ZINC13808171
REMARK                            x       y       z     vdW  Elec       q    Type
REMARK                         _______ _______ _______ _____ _____    ______ ____
ROOT
ATOM      1  C   LIG    1       -1.195  -0.717   0.010  0.00  0.00    +0.037 A 
ATOM      2  C   LIG    1       -1.801  -1.072  -1.177  0.00  0.00    +0.024 A 
ATOM      3  C   LIG    1       -2.996  -1.784  -1.180  0.00  0.00    +0.002 A 
ATOM      4  C   LIG    1       -3.600  -2.150  -0.016  0.00  0.00    +0.010 A 
ATOM      5  C   LIG    1       -3.015  -1.808   1.215  0.00  0.00    +0.011 A 
ATOM      6  C   LIG    1       -3.616  -2.172   2.433  0.00  0.00    +0.119 A 
ATOM      7  C   LIG    1       -3.014  -1.840   3.607  0.00  0.00    +0.029 A 
ATOM      8  C   LIG    1       -1.817  -1.126   3.622  0.00  0.00    +0.003 A 
ATOM      9  C   LIG    1       -1.210  -0.752   2.463  0.00  0.00    +0.010 A 
ATOM     10  C   LIG    1       -1.795  -1.088   1.232  0.00  0.00    +0.005 A 
ENDROOT
BRANCH   1  12
ATOM     11  C   LIG    1       -0.018   1.461   0.010  0.00  0.00    +0.129 C 
ATOM     12  N   LIG    1        0.002  -0.004   0.002  0.00  0.00    -0.336 N 
ATOM     13  C   LIG    1        1.281  -0.719  -0.014  0.00  0.00    +0.129 C 
ENDBRANCH   1  12
BRANCH   6  14
ATOM     14  S   LIG    1       -5.130  -3.074   2.438  0.00  0.00    +0.098 S 
ATOM     15  O   LIG    1       -5.486  -3.261   3.801  0.00  0.00    -0.148 OA
ATOM     16  O   LIG    1       -4.959  -4.160   1.539  0.00  0.00    -0.148 OA
BRANCH  14  17
ATOM     17  N   LIG    1       -6.287  -2.091   1.778  0.00  0.00    -0.070 N 
ATOM     18  H   LIG    1       -7.067  -1.842   2.298  0.00  0.00    +0.215 HD
BRANCH  17  19
ATOM     19  N   LIG    1       -6.140  -1.618   0.467  0.00  0.00    +0.026 NA
ATOM     20  C   LIG    1       -7.048  -0.847  -0.051  0.00  0.00    +0.401 C 
BRANCH  20  21
ATOM     21  N   LIG    1       -6.902  -0.379  -1.349  0.00  0.00    -0.288 N 
ATOM     22  H   LIG    1       -7.580   0.197  -1.736  0.00  0.00    +0.255 HD
ATOM     23  H   LIG    1       -6.122  -0.627  -1.870  0.00  0.00    +0.255 HD
ENDBRANCH  20  21
BRANCH  20  24
ATOM     24  N   LIG    1       -8.164  -0.491   0.694  0.00  0.00    -0.288 N 
ATOM     25  H   LIG    1       -8.842   0.085   0.307  0.00  0.00    +0.255 HD
ATOM     26  H   LIG    1       -8.266  -0.818   1.601  0.00  0.00    +0.255 HD
ENDBRANCH  20  24
ENDBRANCH  17  19
ENDBRANCH  14  17
ENDBRANCH   6  14
TORSDOF 6
