REMARK  Name = ZINC35930493
REMARK                            x       y       z     vdW  Elec       q    Type
REMARK                         _______ _______ _______ _____ _____    ______ ____
ROOT
ATOM      1  N   LIG    1       -1.948  -1.147  -1.567  0.00  0.00    -0.215 N 
ATOM      2  H   LIG    1       -1.381  -0.801  -2.293  0.00  0.00    +0.174 HD
ENDROOT
BRANCH   1   3
ATOM      3  C   LIG    1       -3.114  -1.838  -1.867  0.00  0.00    +0.062 A 
ATOM      4  C   LIG    1       -3.921  -2.323  -0.844  0.00  0.00    +0.026 A 
ATOM      5  C   LIG    1       -5.079  -3.009  -1.144  0.00  0.00    +0.017 A 
ATOM      6  C   LIG    1       -5.449  -3.220  -2.465  0.00  0.00    +0.019 A 
ATOM      7 BR   LIG    1       -7.041  -4.163  -2.856  0.00  0.00    -0.050 Br
ATOM      8  C   LIG    1       -4.663  -2.748  -3.492  0.00  0.00    +0.032 A 
ATOM      9  C   LIG    1       -3.488  -2.045  -3.205  0.00  0.00    +0.082 A 
BRANCH   9  10
ATOM     10  C   LIG    1       -2.646  -1.533  -4.296  0.00  0.00    +0.339 C 
ATOM     11  O   LIG    1       -2.976  -1.716  -5.461  0.00  0.00    -0.245 OA
BRANCH  10  12
ATOM     12  O   LIG    1       -1.617  -0.923  -4.041  0.00  0.00    -0.477 OA
ATOM     13  H   LIG    1       -1.364  -0.783  -3.149  0.00  0.00    +0.295 HD
ENDBRANCH  10  12
ENDBRANCH   9  10
ENDBRANCH   1   3
BRANCH   1  14
ATOM     14  S   LIG    1       -1.512  -0.905   0.012  0.00  0.00    +0.072 S 
ATOM     15  O   LIG    1       -2.492  -0.046   0.577  0.00  0.00    -0.150 OA
ATOM     16  O   LIG    1       -1.218  -2.186   0.553  0.00  0.00    -0.150 OA
BRANCH  14  23
ATOM     17  C   LIG    1       -0.017   1.378   0.010  0.00  0.00    +0.030 A 
ATOM     18  C   LIG    1        1.171   2.086   0.002  0.00  0.00    +0.022 A 
ATOM     19  C   LIG    1        2.378   1.410  -0.013  0.00  0.00    +0.041 A 
ATOM     20 CL   LIG    1        3.870   2.298  -0.023  0.00  0.00    -0.084 Cl
ATOM     21  C   LIG    1        2.396   0.027  -0.021  0.00  0.00    +0.022 A 
ATOM     22  C   LIG    1        1.208  -0.679  -0.013  0.00  0.00    +0.030 A 
ATOM     23  C   LIG    1        0.002  -0.004   0.002  0.00  0.00    +0.109 A 
ENDBRANCH  14  23
ENDBRANCH   1  14
TORSDOF 5
