REMARK  Name = ZINC49050974
REMARK                            x       y       z     vdW  Elec       q    Type
REMARK                         _______ _______ _______ _____ _____    ______ ____
ROOT
ATOM      1  C   LIG    1        2.577  -2.539   4.292  0.00  0.00    +0.055 A 
ATOM      2  C   LIG    1        3.134  -1.806   5.278  0.00  0.00    +0.075 A 
ATOM      3  S   LIG    1        3.797  -3.068   6.354  0.00  0.00    -0.056 S 
ATOM      4  C   LIG    1        3.282  -4.493   5.409  0.00  0.00    +0.192 A 
ATOM      5  N   LIG    1        3.467  -5.777   5.666  0.00  0.00    -0.124 NA
ATOM      6  N   LIG    1        2.639  -3.904   4.347  0.00  0.00    -0.332 N 
ATOM      7  H   LIG    1        2.240  -4.446   3.648  0.00  0.00    +0.168 HD
ENDROOT
BRANCH   5   8
ATOM      8  N   LIG    1        4.154  -6.168   6.823  0.00  0.00    -0.156 NA
ATOM      9  C   LIG    1        4.335  -7.426   7.075  0.00  0.00    +0.041 C 
ATOM     10  C   LIG    1        3.819  -8.489   6.130  0.00  0.00    +0.053 C 
ATOM     11  C   LIG    1        4.968  -9.448   5.801  0.00  0.00    +0.006 C 
ATOM     12  C   LIG    1        5.561  -9.995   7.101  0.00  0.00    +0.001 C 
ATOM     13  C   LIG    1        6.172  -8.852   7.913  0.00  0.00    +0.006 C 
ATOM     14  C   LIG    1        5.074  -7.870   8.318  0.00  0.00    +0.053 C 
ENDBRANCH   5   8
BRANCH   1  18
ATOM     15  C   LIG    1        0.626  -0.618   1.042  0.00  0.00    +0.120 A 
ATOM     16  C   LIG    1        1.202   0.142   2.050  0.00  0.00    +0.046 A 
ATOM     17  C   LIG    1        1.835  -0.478   3.107  0.00  0.00    +0.013 A 
ATOM     18  C   LIG    1        1.898  -1.871   3.161  0.00  0.00    -0.001 A 
ATOM     19  C   LIG    1        1.317  -2.632   2.145  0.00  0.00    +0.013 A 
ATOM     20  C   LIG    1        0.680  -2.005   1.095  0.00  0.00    +0.046 A 
BRANCH  15  22
ATOM     21  C   LIG    1       -0.017   1.425   0.010  0.00  0.00    +0.277 C 
ATOM     22  O   LIG    1        0.002  -0.004   0.002  0.00  0.00    -0.495 OA
ENDBRANCH  15  22
ENDBRANCH   1  18
TORSDOF 3
