REMARK  Name = ZINC34803679
REMARK                            x       y       z     vdW  Elec       q    Type
REMARK                         _______ _______ _______ _____ _____    ______ ____
ROOT
ATOM      1  C   LIG    1       -2.866  -7.794  -3.347  0.00  0.00    +0.000 C 
ENDROOT
BRANCH   1   2
ATOM      2  C   LIG    1       -3.833  -7.349  -2.248  0.00  0.00    +0.004 C 
BRANCH   2   3
ATOM      3  C   LIG    1       -3.716  -5.837  -2.048  0.00  0.00    +0.027 C 
BRANCH   3   5
ATOM      4  C   LIG    1       -4.226  -4.705   0.055  0.00  0.00    -0.031 C 
ATOM      5  C   LIG    1       -4.669  -5.398  -0.965  0.00  0.00    -0.031 C 
BRANCH   4   6
ATOM      6  C   LIG    1       -2.806  -4.200   0.064  0.00  0.00    +0.027 C 
BRANCH   6   7
ATOM      7  C   LIG    1       -2.801  -2.697   0.347  0.00  0.00    +0.004 C 
BRANCH   7   8
ATOM      8  C   LIG    1       -1.360  -2.185   0.356  0.00  0.00    +0.000 C 
BRANCH   8   9
ATOM      9  C   LIG    1       -1.354  -0.681   0.639  0.00  0.00    -0.000 C 
BRANCH   9  11
ATOM     10  C   LIG    1        0.092   1.335   0.932  0.00  0.00    +0.004 C 
ATOM     11  C   LIG    1        0.087  -0.169   0.649  0.00  0.00    -0.003 C 
ENDBRANCH   9  11
ENDBRANCH   8   9
ENDBRANCH   7   8
ENDBRANCH   6   7
ENDBRANCH   4   6
ENDBRANCH   3   5
ENDBRANCH   2   3
ENDBRANCH   1   2
BRANCH   1  12
ATOM     12  C   LIG    1       -2.983  -9.306  -3.547  0.00  0.00    +0.000 C 
BRANCH  12  13
ATOM     13  C   LIG    1       -2.016  -9.752  -4.646  0.00  0.00    +0.001 C 
BRANCH  13  14
ATOM     14  C   LIG    1       -2.132 -11.264  -4.846  0.00  0.00    +0.011 C 
BRANCH  14  15
ATOM     15  C   LIG    1       -1.166 -11.709  -5.945  0.00  0.00    +0.120 C 
BRANCH  15  16
ATOM     16  C   LIG    1       -1.280 -13.199  -6.142  0.00  0.00    +0.307 C 
ATOM     17  O   LIG    1       -2.056 -13.839  -5.472  0.00  0.00    -0.251 OA
BRANCH  16  18
ATOM     18  O   LIG    1       -0.521 -13.815  -7.062  0.00  0.00    -0.462 OA
BRANCH  18  19
ATOM     19  C   LIG    1       -0.682 -15.228  -7.195  0.00  0.00    +0.266 C 
BRANCH  19  20
ATOM     20  C   LIG    1        0.259 -15.748  -8.283  0.00  0.00    +0.181 C 
ATOM     21  C   LIG    1        0.181 -17.233  -8.643  0.00  0.00    +0.195 C 
ATOM     22  O   LIG    1        1.271 -16.681  -7.899  0.00  0.00    -0.368 OA
ENDBRANCH  19  20
ENDBRANCH  18  19
ENDBRANCH  16  18
ENDBRANCH  15  16
ENDBRANCH  14  15
ENDBRANCH  13  14
ENDBRANCH  12  13
ENDBRANCH   1  12
TORSDOF 16
