REMARK  Name = ZINC18825330
REMARK                            x       y       z     vdW  Elec       q    Type
REMARK                         _______ _______ _______ _____ _____    ______ ____
ROOT
ATOM      1  C   LIG    1       -1.271  -0.765   0.011  0.00  0.00    +0.064 A 
ATOM      2  C   LIG    1       -2.131  -0.699  -1.039  0.00  0.00    +0.208 A 
ATOM      3  O   LIG    1       -3.279  -1.379  -1.076  0.00  0.00    -0.462 OA
ATOM      4  C   LIG    1       -3.813  -1.928   0.032  0.00  0.00    +0.145 A 
ATOM      5  C   LIG    1       -5.137  -2.345   0.046  0.00  0.00    +0.092 A 
ATOM      6  C   LIG    1       -5.674  -2.917   1.188  0.00  0.00    +0.124 A 
ATOM      7  C   LIG    1       -4.900  -3.084   2.331  0.00  0.00    +0.091 A 
ATOM      8  C   LIG    1       -3.580  -2.674   2.341  0.00  0.00    +0.135 A 
ATOM      9  C   LIG    1       -3.034  -2.087   1.192  0.00  0.00    +0.106 A 
ATOM     10  C   LIG    1       -1.637  -1.619   1.157  0.00  0.00    +0.204 A 
ATOM     11  O   LIG    1       -0.833  -1.916   2.025  0.00  0.00    -0.286 OA
ENDROOT
BRANCH   1  17
ATOM     12  C   LIG    1       -0.017   1.390   0.010  0.00  0.00    +0.012 A 
ATOM     13  C   LIG    1        1.169   2.094   0.002  0.00  0.00    +0.046 A 
ATOM     14  C   LIG    1        2.380   1.417  -0.013  0.00  0.00    +0.117 A 
ATOM     15  C   LIG    1        2.403   0.029  -0.022  0.00  0.00    +0.046 A 
ATOM     16  C   LIG    1        1.220  -0.682  -0.014  0.00  0.00    +0.012 A 
ATOM     17  C   LIG    1        0.002  -0.004   0.002  0.00  0.00    -0.011 A 
BRANCH  14  18
ATOM     18  O   LIG    1        3.547   2.113  -0.021  0.00  0.00    -0.507 OA
ATOM     19  H   LIG    1        3.894   2.310   0.860  0.00  0.00    +0.292 HD
ENDBRANCH  14  18
ENDBRANCH   1  17
BRANCH   6  20
ATOM     20  O   LIG    1       -6.971  -3.319   1.190  0.00  0.00    -0.507 OA
ATOM     21  H   LIG    1       -7.099  -4.234   0.907  0.00  0.00    +0.292 HD
ENDBRANCH   6  20
BRANCH   8  22
ATOM     22  O   LIG    1       -2.820  -2.837   3.453  0.00  0.00    -0.506 OA
ATOM     23  H   LIG    1       -2.350  -3.681   3.488  0.00  0.00    +0.292 HD
ENDBRANCH   8  22
TORSDOF 4
