REMARK  Name = ZINC16052698
REMARK                            x       y       z     vdW  Elec       q    Type
REMARK                         _______ _______ _______ _____ _____    ______ ____
ROOT
ATOM      1  N   LIG    1       -1.239   2.075   0.019  0.00  0.00    -0.260 N 
ATOM      2  C   LIG    1       -1.824   2.394   1.205  0.00  0.00    +0.128 A 
ATOM      3  N   LIG    1       -2.951   3.032   1.296  0.00  0.00    -0.232 NA
ATOM      4  C   LIG    1       -3.639   3.421   0.194  0.00  0.00    +0.080 A 
ATOM      5  C   LIG    1       -4.853   4.103   0.291  0.00  0.00    +0.028 A 
ATOM      6  C   LIG    1       -5.518   4.480  -0.855  0.00  0.00    +0.004 A 
ATOM      7  C   LIG    1       -4.997   4.190  -2.108  0.00  0.00    +0.021 A 
ATOM      8  C   LIG    1       -3.799   3.518  -2.232  0.00  0.00    +0.055 A 
ATOM      9 CL   LIG    1       -3.153   3.162  -3.803  0.00  0.00    -0.083 Cl
ATOM     10  C   LIG    1       -3.110   3.128  -1.083  0.00  0.00    +0.083 A 
ATOM     11  C   LIG    1       -1.829   2.410  -1.152  0.00  0.00    +0.268 A 
ATOM     12  O   LIG    1       -1.319   2.127  -2.220  0.00  0.00    -0.267 OA
ENDROOT
BRANCH   1  18
ATOM     13  C   LIG    1        0.002  -0.004   0.002  0.00  0.00    +0.144 A 
ATOM     14  C   LIG    1        1.214  -0.677  -0.013  0.00  0.00    +0.048 A 
ATOM     15  C   LIG    1        2.399   0.034  -0.021  0.00  0.00    +0.004 A 
ATOM     16  C   LIG    1        2.381   1.416  -0.013  0.00  0.00    +0.002 A 
ATOM     17  C   LIG    1        1.177   2.095   0.002  0.00  0.00    +0.030 A 
ATOM     18  C   LIG    1       -0.017   1.389   0.010  0.00  0.00    +0.093 A 
BRANCH  13  20
ATOM     19  C   LIG    1       -1.069  -2.127   0.001  0.00  0.00    +0.277 C 
ATOM     20  O   LIG    1       -1.165  -0.702   0.010  0.00  0.00    -0.493 OA
ENDBRANCH  13  20
ENDBRANCH   1  18
BRANCH   2  21
ATOM     21  C   LIG    1       -1.125   1.991   2.478  0.00  0.00    +0.150 C 
BRANCH  21  22
ATOM     22  S   LIG    1       -2.106   2.530   3.901  0.00  0.00    -0.096 S 
BRANCH  22  23
ATOM     23  C   LIG    1       -1.086   1.947   5.214  0.00  0.00    +0.126 A 
ATOM     24  C   LIG    1       -1.455   2.144   6.547  0.00  0.00    +0.115 A 
ATOM     25  C   LIG    1       -0.609   1.661   7.558  0.00  0.00    +0.160 A 
ATOM     26  N   LIG    1       -1.185   1.975   8.735  0.00  0.00    -0.331 N 
ATOM     27  H   LIG    1       -0.800   1.751   9.660  0.00  0.00    +0.168 HD
ATOM     28  C   LIG    1       -2.307   2.606   8.519  0.00  0.00    +0.173 A 
ATOM     29  N   LIG    1        0.517   1.031   7.205  0.00  0.00    -0.216 NA
ATOM     30  C   LIG    1        0.824   0.869   5.937  0.00  0.00    +0.224 A 
ATOM     31  N   LIG    1       -2.521   2.736   7.191  0.00  0.00    -0.343 N 
ATOM     32  H   LIG    1       -3.305   3.180   6.756  0.00  0.00    +0.167 HD
ATOM     33  N   LIG    1        0.052   1.305   4.958  0.00  0.00    -0.227 NA
ENDBRANCH  22  23
ENDBRANCH  21  22
ENDBRANCH   2  21
TORSDOF 5
