REMARK  Name = ZINC49867711
REMARK                            x       y       z     vdW  Elec       q    Type
REMARK                         _______ _______ _______ _____ _____    ______ ____
ROOT
ATOM      1  C   LIG    1        2.708  -7.511  -0.210  0.00  0.00    +0.017 A 
ATOM      2  C   LIG    1        3.916  -7.579   0.486  0.00  0.00    +0.013 A 
ATOM      3  C   LIG    1        4.467  -8.808   0.786  0.00  0.00    +0.029 A 
ATOM      4  C   LIG    1        3.825  -9.970   0.399  0.00  0.00    +0.106 A 
ATOM      5  C   LIG    1        2.627  -9.910  -0.291  0.00  0.00    +0.029 A 
ATOM      6  C   LIG    1        2.063  -8.688  -0.593  0.00  0.00    +0.013 A 
ENDROOT
BRANCH   1  12
ATOM      7  N   LIG    1        0.738  -1.962  -1.265  0.00  0.00    -0.259 N 
ATOM      8  C   LIG    1        1.767  -2.616  -0.686  0.00  0.00    +0.282 A 
ATOM      9  C   LIG    1        1.780  -4.027  -0.697  0.00  0.00    +0.149 A 
ATOM     10  C   LIG    1        0.732  -4.710  -1.304  0.00  0.00    +0.166 A 
ATOM     11  N   LIG    1        0.976  -6.014  -1.180  0.00  0.00    -0.210 NA
ATOM     12  C   LIG    1        2.111  -6.198  -0.535  0.00  0.00    +0.141 A 
ATOM     13  N   LIG    1       -0.296  -3.980  -1.881  0.00  0.00    -0.291 N 
ATOM     14  H   LIG    1       -1.035  -4.439  -2.309  0.00  0.00    +0.172 HD
ATOM     15  N   LIG    1        2.647  -4.988  -0.214  0.00  0.00    -0.332 N 
ATOM     16  H   LIG    1        3.478  -4.832   0.262  0.00  0.00    +0.168 HD
ATOM     17  O   LIG    1        2.673  -1.995  -0.160  0.00  0.00    -0.265 OA
ATOM     18  C   LIG    1       -0.272  -2.635  -1.844  0.00  0.00    +0.331 A 
ATOM     19  O   LIG    1       -1.184  -2.011  -2.351  0.00  0.00    -0.246 OA
BRANCH   7  20
ATOM     20  C   LIG    1        0.718  -0.497  -1.257  0.00  0.00    +0.130 C 
BRANCH  20  22
ATOM     21  C   LIG    1       -0.019   1.526   0.010  0.00  0.00    +0.005 C 
ATOM     22  C   LIG    1        0.002  -0.004   0.002  0.00  0.00    +0.018 C 
ENDBRANCH  20  22
ENDBRANCH   7  20
ENDBRANCH   1  12
BRANCH   4  23
ATOM     23  S   LIG    1        4.536 -11.536   0.786  0.00  0.00    +0.061 S 
ATOM     24  O   LIG    1        5.929 -11.317   0.957  0.00  0.00    -0.153 OA
ATOM     25  O   LIG    1        4.020 -12.461  -0.161  0.00  0.00    -0.153 OA
BRANCH  23  26
ATOM     26  N   LIG    1        3.943 -11.991   2.264  0.00  0.00    -0.174 NA
ATOM     27  C   LIG    1        4.637 -11.613   3.504  0.00  0.00    +0.125 C 
ATOM     28  C   LIG    1        4.838 -12.873   4.353  0.00  0.00    +0.102 C 
ATOM     29  N   LIG    1        3.545 -13.542   4.544  0.00  0.00    -0.296 NA
ATOM     30  C   LIG    1        2.986 -13.997   3.264  0.00  0.00    +0.102 C 
ATOM     31  C   LIG    1        2.705 -12.778   2.371  0.00  0.00    +0.125 C 
BRANCH  29  32
ATOM     32  C   LIG    1        3.664 -14.658   5.492  0.00  0.00    +0.119 C 
BRANCH  32  33
ATOM     33  C   LIG    1        2.289 -15.161   5.851  0.00  0.00    -0.033 A 
ATOM     34  C   LIG    1        1.613 -14.615   6.926  0.00  0.00    +0.006 A 
ATOM     35  C   LIG    1        0.352 -15.076   7.256  0.00  0.00    +0.020 A 
ATOM     36  C   LIG    1       -0.233 -16.084   6.510  0.00  0.00    +0.041 A 
ATOM     37 CL   LIG    1       -1.816 -16.664   6.924  0.00  0.00    -0.084 Cl
ATOM     38  C   LIG    1        0.445 -16.630   5.434  0.00  0.00    +0.020 A 
ATOM     39  C   LIG    1        1.703 -16.164   5.102  0.00  0.00    +0.006 A 
ENDBRANCH  32  33
ENDBRANCH  29  32
ENDBRANCH  23  26
ENDBRANCH   4  23
TORSDOF 7
