REMARK  Name = ZINC13782564
REMARK                            x       y       z     vdW  Elec       q    Type
REMARK                         _______ _______ _______ _____ _____    ______ ____
ROOT
ATOM      1  C   LIG    1       -1.989   8.188  -2.134  0.00  0.00    +0.002 A 
ATOM      2  C   LIG    1       -2.282   6.884  -2.508  0.00  0.00    +0.002 A 
ATOM      3  C   LIG    1       -1.698   5.821  -1.852  0.00  0.00    +0.028 A 
ATOM      4  C   LIG    1       -0.807   6.059  -0.815  0.00  0.00    +0.073 A 
ATOM      5  C   LIG    1       -0.515   7.380  -0.432  0.00  0.00    +0.089 A 
ATOM      6  N   LIG    1        0.368   7.308   0.597  0.00  0.00    -0.235 NA
ATOM      7  C   LIG    1        0.626   6.062   0.868  0.00  0.00    +0.205 A 
ATOM      8  N   LIG    1       -0.074   5.247   0.030  0.00  0.00    -0.298 N 
ATOM      9  C   LIG    1       -1.119   8.441  -1.112  0.00  0.00    +0.030 A 
ENDROOT
BRANCH   8  10
ATOM     10  C   LIG    1       -0.051   3.846   0.023  0.00  0.00    +0.052 A 
ATOM     11  C   LIG    1       -1.242   3.131   0.031  0.00  0.00    +0.026 A 
ATOM     12  C   LIG    1       -1.219   1.750   0.017  0.00  0.00    +0.006 A 
ATOM     13  C   LIG    1       -0.013   1.076   0.008  0.00  0.00    +0.045 A 
ATOM     14  C   LIG    1        1.180   1.785   0.000  0.00  0.00    +0.119 A 
ATOM     15  C   LIG    1        1.161   3.171   0.008  0.00  0.00    +0.071 A 
BRANCH  14  16
ATOM     16  O   LIG    1        2.366   1.121  -0.015  0.00  0.00    -0.507 OA
ATOM     17  H   LIG    1        2.700   0.934  -0.903  0.00  0.00    +0.292 HD
ENDBRANCH  14  16
ENDBRANCH   8  10
TORSDOF 2
