REMARK  Name = ZINC26263384
REMARK                            x       y       z     vdW  Elec       q    Type
REMARK                         _______ _______ _______ _____ _____    ______ ____
ROOT
ATOM      1  C   LIG    1        0.731  -0.503   1.223  0.00  0.00    +0.215 C 
ATOM      2  N   LIG    1        0.874  -1.828   1.428  0.00  0.00    -0.305 N 
ATOM      3  C   LIG    1        0.330  -2.799   0.466  0.00  0.00    +0.092 C 
ATOM      4  C   LIG    1        1.423  -3.841   0.171  0.00  0.00    -0.050 C 
ATOM      5  C   LIG    1        2.691  -3.081  -0.280  0.00  0.00    -0.015 C 
ATOM      6  C   LIG    1        3.461  -2.784   1.023  0.00  0.00    -0.015 C 
ATOM      7  C   LIG    1        2.591  -3.391   2.147  0.00  0.00    -0.050 C 
ATOM      8  N   LIG    1        1.794  -4.468   1.468  0.00  0.00    +0.388 N 
ATOM      9  H   LIG    1        0.968  -4.702   1.998  0.00  0.00    -0.080 HD
ATOM     10  C   LIG    1        1.583  -2.332   2.615  0.00  0.00    +0.092 C 
ATOM     11  O   LIG    1        1.189   0.287   2.021  0.00  0.00    -0.276 OA
ENDROOT
BRANCH   1  13
ATOM     12  C   LIG    1       -0.019   1.526   0.010  0.00  0.00    +0.013 C 
ATOM     13  C   LIG    1        0.002  -0.004   0.002  0.00  0.00    +0.092 C 
ENDBRANCH   1  13
BRANCH   8  14
ATOM     14  C   LIG    1        2.623  -5.661   1.246  0.00  0.00    -0.050 C 
BRANCH  14  15
ATOM     15  C   LIG    1        2.882  -6.344   2.564  0.00  0.00    -0.045 C 
ATOM     16  C   LIG    1        2.573  -7.624   2.719  0.00  0.00    +0.002 C 
BRANCH  16  17
ATOM     17  C   LIG    1        2.827  -8.294   4.012  0.00  0.00    -0.025 A 
ATOM     18  C   LIG    1        3.386  -7.581   5.073  0.00  0.00    +0.008 A 
ATOM     19  C   LIG    1        3.620  -8.213   6.277  0.00  0.00    +0.001 A 
ATOM     20  C   LIG    1        3.303  -9.550   6.433  0.00  0.00    +0.000 A 
ATOM     21  C   LIG    1        2.749 -10.263   5.385  0.00  0.00    +0.001 A 
ATOM     22  C   LIG    1        2.503  -9.642   4.178  0.00  0.00    +0.008 A 
ENDBRANCH  16  17
ENDBRANCH  14  15
ENDBRANCH   8  14
TORSDOF 4
