REMARK  Name = ZINC21290085
REMARK                            x       y       z     vdW  Elec       q    Type
REMARK                         _______ _______ _______ _____ _____    ______ ____
ROOT
ATOM      1  C   LIG    1       -2.672   5.021   0.042  0.00  0.00    +0.004 A 
ATOM      2  C   LIG    1       -4.015   5.143   0.048  0.00  0.00    +0.089 A 
ATOM      3  N   LIG    1       -4.583   3.905   0.044  0.00  0.00    -0.355 N 
ATOM      4  C   LIG    1       -3.581   2.958   0.035  0.00  0.00    +0.131 A 
ATOM      5  C   LIG    1       -3.565   1.551   0.027  0.00  0.00    +0.277 A 
ATOM      6  O   LIG    1       -4.606   0.916   0.028  0.00  0.00    -0.266 OA
ATOM      7  N   LIG    1       -2.371   0.919   0.018  0.00  0.00    -0.294 N 
ATOM      8  H   LIG    1       -2.338  -0.180   0.013  0.00  0.00    +0.172 HD
ATOM      9  C   LIG    1       -1.210   1.637   0.017  0.00  0.00    +0.194 A 
ATOM     10  N   LIG    1       -1.207   2.948   0.029  0.00  0.00    -0.214 NA
ATOM     11  H   LIG    1       -5.678   3.802   0.048  0.00  0.00    +0.166 HD
ATOM     12  C   LIG    1       -2.361   3.644   0.033  0.00  0.00    +0.101 A 
ENDROOT
BRANCH   9  13
ATOM     13  N   LIG    1       -0.011   0.966   0.007  0.00  0.00    -0.329 N 
ATOM     14  H   LIG    1        0.934   1.529   0.011  0.00  0.00    +0.145 HD
ATOM     15  H   LIG    1        0.004  -0.134  -0.003  0.00  0.00    +0.145 HD
ENDBRANCH   9  13
BRANCH   1  16
ATOM     16  C   LIG    1       -1.680   6.155   0.043  0.00  0.00    +0.063 C 
BRANCH  16  19
ATOM     17  C   LIG    1       -3.276   8.386   2.638  0.00  0.00    +0.002 A 
ATOM     18  C   LIG    1       -3.092   7.619   1.502  0.00  0.00    +0.004 A 
ATOM     19  C   LIG    1       -1.879   6.995   1.278  0.00  0.00    -0.038 A 
ATOM     20  C   LIG    1       -0.846   7.146   2.185  0.00  0.00    +0.024 A 
ATOM     21  C   LIG    1       -1.029   7.918   3.319  0.00  0.00    +0.041 A 
ATOM     22 CL   LIG    1        0.268   8.108   4.457  0.00  0.00    -0.084 Cl
ATOM     23  C   LIG    1       -2.245   8.538   3.545  0.00  0.00    +0.020 A 
ENDBRANCH  16  19
BRANCH  16  24
ATOM     24  C   LIG    1       -1.891   7.020  -1.201  0.00  0.00    +0.133 C 
BRANCH  24  25
ATOM     25  C   LIG    1       -0.822   8.081  -1.264  0.00  0.00    +0.306 C 
ATOM     26  O   LIG    1        0.022   8.139  -0.401  0.00  0.00    -0.251 OA
BRANCH  25  27
ATOM     27  O   LIG    1       -0.808   8.961  -2.277  0.00  0.00    -0.481 OA
ATOM     28  H   LIG    1       -1.463   8.916  -2.946  0.00  0.00    +0.295 HD
ENDBRANCH  25  27
ENDBRANCH  24  25
ENDBRANCH  16  24
ENDBRANCH   1  16
TORSDOF 6
