REMARK  Name = ZINC00004028
REMARK                            x       y       z     vdW  Elec       q    Type
REMARK                         _______ _______ _______ _____ _____    ______ ____
ROOT
ATOM      1  N   LIG    1        0.836  -2.051   1.042  0.00  0.00    +0.382 N 
ATOM      2  H   LIG    1       -0.138  -2.271   0.899  0.00  0.00    -0.081 HD
ENDROOT
BRANCH   1   3
ATOM      3  C   LIG    1        1.325  -2.751   2.238  0.00  0.00    -0.064 C 
ATOM      4  C   LIG    1        0.505  -2.319   3.460  0.00  0.00    -0.010 C 
ATOM      5  C   LIG    1        1.183  -2.871   4.713  0.00  0.00    +0.037 C 
ATOM      6  C   LIG    1        1.446  -4.346   4.567  0.00  0.00    -0.003 A 
ATOM      7  C   LIG    1        1.444  -4.982   3.346  0.00  0.00    -0.042 A 
ATOM      8  C   LIG    1        1.702  -6.345   3.279  0.00  0.00    +0.004 A 
ATOM      9  C   LIG    1        1.955  -7.071   4.426  0.00  0.00    +0.004 A 
ATOM     10  C   LIG    1        1.953  -6.438   5.654  0.00  0.00    +0.046 A 
ATOM     11  C   LIG    1        1.700  -5.079   5.725  0.00  0.00    +0.120 A 
ATOM     12  C   LIG    1        1.162  -4.258   2.055  0.00  0.00    +0.020 C 
BRANCH  11  13
ATOM     13  O   LIG    1        1.698  -4.454   6.932  0.00  0.00    -0.506 OA
ATOM     14  H   LIG    1        0.834  -4.439   7.366  0.00  0.00    +0.292 HD
ENDBRANCH  11  13
ENDBRANCH   1   3
BRANCH   1  15
ATOM     15  C   LIG    1        0.989  -0.602   1.226  0.00  0.00    -0.079 C 
BRANCH  15  17
ATOM     16  C   LIG    1        2.618   1.233   1.698  0.00  0.00    +0.002 C 
ATOM     17  C   LIG    1        2.449  -0.281   1.556  0.00  0.00    -0.022 C 
ENDBRANCH  15  17
ENDBRANCH   1  15
BRANCH   1  18
ATOM     18  C   LIG    1        1.612  -2.482  -0.128  0.00  0.00    -0.073 C 
BRANCH  18  19
ATOM     19  C   LIG    1        1.026  -1.846  -1.391  0.00  0.00    +0.024 C 
BRANCH  19  20
ATOM     20  C   LIG    1        1.732  -2.395  -2.604  0.00  0.00    -0.012 A 
ATOM     21  C   LIG    1        1.420  -3.479  -3.355  0.00  0.00    +0.011 A 
ATOM     22  C   LIG    1        2.220  -3.798  -4.437  0.00  0.00    +0.008 A 
ATOM     23  C   LIG    1        3.293  -3.017  -4.713  0.00  0.00    +0.045 A 
ATOM     24  S   LIG    1        3.192  -1.782  -3.428  0.00  0.00    -0.102 S 
ENDBRANCH  19  20
ENDBRANCH  18  19
ENDBRANCH   1  18
TORSDOF 7
