REMARK  Name = ZINC22066510
REMARK                            x       y       z     vdW  Elec       q    Type
REMARK                         _______ _______ _______ _____ _____    ______ ____
ROOT
ATOM      1  C   LIG    1        4.132  -2.053  -4.494  0.00  0.00    +0.118 C 
ENDROOT
BRANCH   1   2
ATOM      2  N   LIG    1        5.489  -1.650  -4.885  0.00  0.00    -0.286 NA
ATOM      3  C   LIG    1        5.952  -2.419  -6.049  0.00  0.00    +0.104 C 
ATOM      4  C   LIG    1        7.395  -2.028  -6.375  0.00  0.00    +0.068 C 
ATOM      5  C   LIG    1        7.866  -2.797  -7.611  0.00  0.00    +0.025 C 
ATOM      6  N   LIG    1        7.460  -0.584  -6.641  0.00  0.00    -0.293 NA
ATOM      7  C   LIG    1        6.997   0.185  -5.477  0.00  0.00    +0.103 C 
ATOM      8  C   LIG    1        5.554  -0.207  -5.152  0.00  0.00    +0.069 C 
ATOM      9  C   LIG    1        5.083   0.562  -3.916  0.00  0.00    +0.025 C 
BRANCH   6  10
ATOM     10  C   LIG    1        8.818  -0.181  -7.032  0.00  0.00    +0.111 C 
BRANCH  10  11
ATOM     11  C   LIG    1        8.796   1.240  -7.532  0.00  0.00    -0.019 C 
ATOM     12  C   LIG    1        9.585   2.136  -6.993  0.00  0.00    +0.005 C 
ENDBRANCH  10  11
ENDBRANCH   6  10
ENDBRANCH   1   2
BRANCH   1  16
ATOM     13  C   LIG    1        3.379  -0.812  -0.472  0.00  0.00    +0.037 A 
ATOM     14  C   LIG    1        2.380  -0.697  -1.439  0.00  0.00    +0.013 A 
ATOM     15  C   LIG    1        2.629  -1.099  -2.735  0.00  0.00    +0.006 A 
ATOM     16  C   LIG    1        3.866  -1.616  -3.077  0.00  0.00    -0.026 A 
ATOM     17  C   LIG    1        4.861  -1.733  -2.122  0.00  0.00    +0.006 A 
ATOM     18  C   LIG    1        4.627  -1.329  -0.824  0.00  0.00    +0.013 A 
BRANCH  13  20
ATOM     19  N   LIG    1        1.968  -0.730   1.527  0.00  0.00    -0.298 N 
ATOM     20  C   LIG    1        3.119  -0.383   0.919  0.00  0.00    +0.247 C 
ATOM     21  O   LIG    1        3.944   0.283   1.514  0.00  0.00    -0.270 OA
BRANCH  19  23
ATOM     22  C   LIG    1        2.130  -1.321   3.895  0.00  0.00    +0.024 C 
ATOM     23  C   LIG    1        1.686  -0.260   2.886  0.00  0.00    +0.104 C 
ENDBRANCH  19  23
BRANCH  19  24
ATOM     24  C   LIG    1        0.998  -1.578   0.830  0.00  0.00    +0.104 C 
ATOM     25  C   LIG    1       -0.118  -0.707   0.251  0.00  0.00    +0.024 C 
ENDBRANCH  19  24
ENDBRANCH  13  20
ENDBRANCH   1  16
BRANCH   1  26
ATOM     26  C   LIG    1        4.005  -3.552  -4.590  0.00  0.00    -0.022 A 
ATOM     27  C   LIG    1        4.957  -4.364  -4.002  0.00  0.00    +0.006 A 
ATOM     28  C   LIG    1        4.844  -5.739  -4.088  0.00  0.00    +0.004 A 
ATOM     29  C   LIG    1        3.779  -6.305  -4.761  0.00  0.00    +0.045 A 
ATOM     30  C   LIG    1        2.822  -5.492  -5.351  0.00  0.00    +0.120 A 
ATOM     31  C   LIG    1        2.935  -4.113  -5.259  0.00  0.00    +0.051 A 
BRANCH  30  32
ATOM     32  O   LIG    1        1.774  -6.047  -6.014  0.00  0.00    -0.495 OA
ATOM     33  C   LIG    1        1.719  -7.474  -6.065  0.00  0.00    +0.277 C 
ENDBRANCH  30  32
ENDBRANCH   1  26
TORSDOF 9
