REMARK  Name = ZINC13782405
REMARK                            x       y       z     vdW  Elec       q    Type
REMARK                         _______ _______ _______ _____ _____    ______ ____
ROOT
ATOM      1  S   LIG    1        0.058  -1.507   3.638  0.00  0.00    +0.077 S 
ATOM      2  O   LIG    1        1.312  -2.170   3.554  0.00  0.00    -0.150 OA
ATOM      3  O   LIG    1       -1.178  -2.205   3.578  0.00  0.00    -0.150 OA
ENDROOT
BRANCH   1   4
ATOM      4  C   LIG    1        0.060  -0.616   5.158  0.00  0.00    +0.144 A 
ATOM      5  C   LIG    1       -1.013  -0.722   6.023  0.00  0.00    +0.032 A 
ATOM      6  C   LIG    1       -1.012  -0.022   7.215  0.00  0.00    +0.002 A 
ATOM      7  C   LIG    1        0.062   0.784   7.544  0.00  0.00    +0.003 A 
ATOM      8  C   LIG    1        1.136   0.891   6.681  0.00  0.00    +0.040 A 
ATOM      9  C   LIG    1        1.138   0.187   5.488  0.00  0.00    +0.150 A 
ATOM     10  F   LIG    1        2.189   0.288   4.646  0.00  0.00    -0.203 F 
ENDBRANCH   1   4
BRANCH   1  11
ATOM     11  N   LIG    1        0.030  -0.391   2.415  0.00  0.00    -0.183 N 
ATOM     12  H   LIG    1        0.019   0.571   2.627  0.00  0.00    +0.177 HD
BRANCH  11  19
ATOM     13  C   LIG    1       -0.018   1.503   0.010  0.00  0.00    +0.051 C 
ATOM     14  C   LIG    1        0.002  -0.004   0.002  0.00  0.00    +0.035 A 
ATOM     15  C   LIG    1        0.008  -0.821  -1.136  0.00  0.00    +0.085 A 
ATOM     16  C   LIG    1       -0.006  -0.344  -2.566  0.00  0.00    +0.069 C 
ATOM     17  N   LIG    1        0.028  -2.066  -0.745  0.00  0.00    -0.081 NA
ATOM     18  O   LIG    1        0.035  -2.083   0.671  0.00  0.00    -0.338 OA
ATOM     19  C   LIG    1        0.024  -0.808   1.097  0.00  0.00    +0.240 A 
ENDBRANCH  11  19
ENDBRANCH   1  11
TORSDOF 3
