REMARK  Name = ZINC27867544
REMARK                            x       y       z     vdW  Elec       q    Type
REMARK                         _______ _______ _______ _____ _____    ______ ____
ROOT
ATOM      1  C   LIG    1        1.098   2.195  -0.046  0.00  0.00    -0.034 C 
ATOM      2  C   LIG    1       -0.016   1.474   0.065  0.00  0.00    +0.056 C 
ENDROOT
BRANCH   2   3
ATOM      3  C   LIG    1        0.064   0.042   0.380  0.00  0.00    +0.335 C 
ATOM      4  O   LIG    1        1.148  -0.486   0.540  0.00  0.00    -0.245 OA
BRANCH   3   5
ATOM      5  O   LIG    1       -1.064  -0.688   0.493  0.00  0.00    -0.477 OA
ATOM      6  H   LIG    1       -1.899  -0.281   0.369  0.00  0.00    +0.295 HD
ENDBRANCH   3   5
ENDBRANCH   2   3
BRANCH   1   7
ATOM      7  C   LIG    1        1.015   3.692  -0.200  0.00  0.00    -0.058 C 
BRANCH   7   8
ATOM      8  N   LIG    1        1.860   4.335   0.814  0.00  0.00    +0.380 N 
ATOM      9  H   LIG    1        1.510   4.050   1.817  0.00  0.00    -0.090 HD
ATOM     10  H   LIG    1        2.902   4.011   0.683  0.00  0.00    -0.090 HD
ATOM     11  H   LIG    1        1.799   5.428   0.702  0.00  0.00    -0.090 HD
ENDBRANCH   7   8
ENDBRANCH   1   7
BRANCH   2  12
ATOM     12  C   LIG    1       -1.359   2.127  -0.140  0.00  0.00    +0.197 C 
BRANCH  12  13
ATOM     13  O   LIG    1       -2.113   2.053   1.071  0.00  0.00    -0.390 OA
ATOM     14  H   LIG    1       -3.126   2.480   1.115  0.00  0.00    +0.210 HD
ENDBRANCH  12  13
ENDBRANCH   2  12
TORSDOF 6
