REMARK  Name = ZINC49054044
REMARK                            x       y       z     vdW  Elec       q    Type
REMARK                         _______ _______ _______ _____ _____    ______ ____
ROOT
ATOM      1  C   LIG    1        1.332  -4.082  -2.301  0.00  0.00    +0.121 C 
ATOM      2  N   LIG    1        0.838  -4.926  -1.435  0.00  0.00    -0.177 NA
ATOM      3  N   LIG    1        1.069  -6.245  -1.825  0.00  0.00    -0.201 N 
ATOM      4  H   LIG    1        0.786  -7.027  -1.327  0.00  0.00    +0.178 HD
ATOM      5  C   LIG    1        1.740  -6.277  -2.994  0.00  0.00    +0.285 C 
ATOM      6  O   LIG    1        2.096  -7.269  -3.606  0.00  0.00    -0.267 OA
ATOM      7  C   LIG    1        1.950  -4.873  -3.384  0.00  0.00    +0.172 C 
ATOM      8  N   LIG    1        2.560  -4.421  -4.463  0.00  0.00    -0.175 NA
ENDROOT
BRANCH   1  13
ATOM      9  C   LIG    1        0.606  -0.607  -1.056  0.00  0.00    +0.121 A 
ATOM     10  C   LIG    1        1.173   0.163  -2.063  0.00  0.00    +0.045 A 
ATOM     11  C   LIG    1        1.789  -0.446  -3.140  0.00  0.00    +0.004 A 
ATOM     12  C   LIG    1        1.843  -1.823  -3.222  0.00  0.00    +0.010 A 
ATOM     13  C   LIG    1        1.276  -2.604  -2.215  0.00  0.00    +0.008 A 
ATOM     14  C   LIG    1        0.660  -1.989  -1.126  0.00  0.00    +0.055 A 
BRANCH   9  16
ATOM     15  C   LIG    1       -0.017   1.425   0.010  0.00  0.00    +0.277 C 
ATOM     16  O   LIG    1        0.002  -0.004   0.002  0.00  0.00    -0.495 OA
ENDBRANCH   9  16
ENDBRANCH   1  13
BRANCH   8  17
ATOM     17  N   LIG    1        3.051  -5.250  -5.322  0.00  0.00    -0.237 N 
ATOM     18  H   LIG    1        2.972  -6.205  -5.173  0.00  0.00    +0.174 HD
BRANCH  17  19
ATOM     19  C   LIG    1        3.696  -4.772  -6.463  0.00  0.00    +0.048 A 
ATOM     20  C   LIG    1        3.816  -3.403  -6.673  0.00  0.00    +0.026 A 
ATOM     21  C   LIG    1        4.455  -2.933  -7.803  0.00  0.00    +0.022 A 
ATOM     22  C   LIG    1        4.976  -3.824  -8.726  0.00  0.00    +0.041 A 
ATOM     23 CL   LIG    1        5.778  -3.229 -10.146  0.00  0.00    -0.084 Cl
ATOM     24  C   LIG    1        4.859  -5.187  -8.519  0.00  0.00    +0.022 A 
ATOM     25  C   LIG    1        4.226  -5.664  -7.388  0.00  0.00    +0.026 A 
ENDBRANCH  17  19
ENDBRANCH   8  17
TORSDOF 4
