REMARK  Name = ZINC28523416
REMARK                            x       y       z     vdW  Elec       q    Type
REMARK                         _______ _______ _______ _____ _____    ______ ____
ROOT
ATOM      1  C   LIG    1        5.965  -4.433  -0.078  0.00  0.00    +0.063 C 
ATOM      2  C   LIG    1        7.330  -4.115  -0.693  0.00  0.00    -0.043 C 
ATOM      3  N   LIG    1        8.393  -4.385   0.279  0.00  0.00    +0.383 N 
ATOM      4  H   LIG    1        9.280  -4.172  -0.151  0.00  0.00    -0.081 HD
ATOM      5  C   LIG    1        8.400  -5.800   0.656  0.00  0.00    -0.078 C 
ATOM      6  C   LIG    1        7.071  -6.174   1.315  0.00  0.00    -0.014 C 
ATOM      7  C   LIG    1        8.236  -3.537   1.463  0.00  0.00    -0.078 C 
ATOM      8  C   LIG    1        6.897  -3.838   2.152  0.00  0.00    -0.014 C 
ATOM      9  C   LIG    1        6.170  -4.932   1.358  0.00  0.00    +0.004 C 
ENDROOT
BRANCH   1  11
ATOM     10  C   LIG    1        3.796  -3.324  -0.052  0.00  0.00    +0.280 C 
ATOM     11  N   LIG    1        5.140  -3.223  -0.064  0.00  0.00    -0.307 N 
ATOM     12  H   LIG    1        5.560  -2.349  -0.064  0.00  0.00    +0.149 HD
ATOM     13  O   LIG    1        3.268  -4.420  -0.052  0.00  0.00    -0.267 OA
BRANCH  10  20
ATOM     14  C   LIG    1       -0.017   1.362   0.009  0.00  0.00    +0.001 A 
ATOM     15  C   LIG    1        1.171   2.082   0.002  0.00  0.00    +0.004 A 
ATOM     16  C   LIG    1        2.387   1.434  -0.013  0.00  0.00    +0.047 A 
ATOM     17  C   LIG    1        2.431   0.045  -0.021  0.00  0.00    +0.136 A 
ATOM     18  C   LIG    1        1.225  -0.680  -0.013  0.00  0.00    +0.021 A 
ATOM     19  C   LIG    1        1.609  -2.091  -0.025  0.00  0.00    +0.063 A 
ATOM     20  C   LIG    1        2.967  -2.110  -0.038  0.00  0.00    +0.190 A 
ATOM     21  O   LIG    1        3.441  -0.847  -0.035  0.00  0.00    -0.450 OA
ATOM     22  C   LIG    1        0.002  -0.004   0.002  0.00  0.00    +0.011 A 
ENDBRANCH  10  20
ENDBRANCH   1  11
BRANCH   2  23
ATOM     23  C   LIG    1        7.375  -2.640  -1.095  0.00  0.00    +0.023 C 
BRANCH  23  24
ATOM     24  C   LIG    1        8.670  -2.353  -1.811  0.00  0.00    -0.031 A 
ATOM     25  C   LIG    1        9.793  -1.957  -1.100  0.00  0.00    +0.006 A 
ATOM     26  C   LIG    1       10.962  -1.704  -1.800  0.00  0.00    +0.020 A 
ATOM     27  C   LIG    1       10.970  -1.854  -3.174  0.00  0.00    +0.111 A 
ATOM     28  N   LIG    1        9.883  -2.233  -3.818  0.00  0.00    -0.263 NA
ATOM     29  C   LIG    1        8.755  -2.488  -3.183  0.00  0.00    +0.114 A 
ENDBRANCH  23  24
ENDBRANCH   2  23
TORSDOF 4
