REMARK  Name = ZINC28363384
REMARK                            x       y       z     vdW  Elec       q    Type
REMARK                         _______ _______ _______ _____ _____    ______ ____
ROOT
ATOM      1  C   LIG    1        5.060  -2.307  -1.147  0.00  0.00    +0.162 A 
ATOM      2  C   LIG    1        6.078  -2.275  -0.203  0.00  0.00    +0.050 A 
ATOM      3  C   LIG    1        7.343  -2.707  -0.535  0.00  0.00    +0.012 A 
ATOM      4  C   LIG    1        7.605  -3.180  -1.827  0.00  0.00    -0.020 A 
ATOM      5  C   LIG    1        6.577  -3.212  -2.777  0.00  0.00    +0.057 A 
ATOM      6  C   LIG    1        5.311  -2.781  -2.434  0.00  0.00    +0.163 A 
ENDROOT
BRANCH   4   7
ATOM      7  C   LIG    1        8.952  -3.642  -2.183  0.00  0.00    +0.028 C 
ATOM      8  C   LIG    1        9.986  -3.447  -1.325  0.00  0.00    +0.077 C 
ATOM      9  C   LIG    1       11.367  -3.965  -1.382  0.00  0.00    +0.259 C 
ATOM     10  N   LIG    1       12.175  -3.610  -0.397  0.00  0.00    -0.244 N 
ATOM     11  C   LIG    1       11.753  -2.815   0.608  0.00  0.00    +0.121 C 
ATOM     12  S   LIG    1       12.639  -2.251   1.960  0.00  0.00    -0.027 S 
ATOM     13  O   LIG    1       11.744  -4.682  -2.290  0.00  0.00    -0.269 OA
ATOM     14  S   LIG    1       10.050  -2.488   0.182  0.00  0.00    -0.061 S 
BRANCH  10  15
ATOM     15  C   LIG    1       13.559  -4.091  -0.397  0.00  0.00    +0.235 C 
BRANCH  15  16
ATOM     16  C   LIG    1       14.432  -3.110  -1.136  0.00  0.00    +0.323 C 
ATOM     17  O   LIG    1       13.947  -2.111  -1.614  0.00  0.00    -0.249 OA
BRANCH  16  18
ATOM     18  O   LIG    1       15.747  -3.345  -1.264  0.00  0.00    -0.480 OA
ATOM     19  H   LIG    1       16.122  -4.120  -0.893  0.00  0.00    +0.295 HD
ENDBRANCH  16  18
ENDBRANCH  15  16
ENDBRANCH  10  15
ENDBRANCH   4   7
BRANCH   1  20
ATOM     20  O   LIG    1        3.814  -1.879  -0.814  0.00  0.00    -0.484 OA
BRANCH  20  21
ATOM     21  C   LIG    1        3.625  -1.411   0.523  0.00  0.00    +0.264 C 
BRANCH  21  25
ATOM     22  C   LIG    1       -0.437  -0.196   1.045  0.00  0.00    +0.000 A 
ATOM     23  C   LIG    1        0.508   0.716   0.613  0.00  0.00    +0.000 A 
ATOM     24  C   LIG    1        1.822   0.323   0.445  0.00  0.00    +0.007 A 
ATOM     25  C   LIG    1        2.192  -0.983   0.707  0.00  0.00    -0.010 A 
ATOM     26  C   LIG    1        1.248  -1.895   1.139  0.00  0.00    +0.007 A 
ATOM     27  C   LIG    1       -0.067  -1.502   1.308  0.00  0.00    +0.000 A 
ENDBRANCH  21  25
ENDBRANCH  20  21
ENDBRANCH   1  20
BRANCH   6  28
ATOM     28  O   LIG    1        4.309  -2.815  -3.353  0.00  0.00    -0.484 OA
BRANCH  28  29
ATOM     29  C   LIG    1        4.636  -3.313  -4.652  0.00  0.00    +0.264 C 
BRANCH  29  30
ATOM     30  C   LIG    1        3.411  -3.276  -5.528  0.00  0.00    -0.010 A 
ATOM     31  C   LIG    1        2.566  -4.369  -5.581  0.00  0.00    +0.007 A 
ATOM     32  C   LIG    1        1.440  -4.333  -6.381  0.00  0.00    +0.000 A 
ATOM     33  C   LIG    1        1.163  -3.208  -7.135  0.00  0.00    +0.000 A 
ATOM     34  C   LIG    1        2.010  -2.117  -7.086  0.00  0.00    +0.000 A 
ATOM     35  C   LIG    1        3.135  -2.151  -6.282  0.00  0.00    +0.007 A 
ENDBRANCH  29  30
ENDBRANCH  28  29
ENDBRANCH   6  28
TORSDOF 10
