REMARK  Name = ZINC44672349
REMARK                            x       y       z     vdW  Elec       q    Type
REMARK                         _______ _______ _______ _____ _____    ______ ____
ROOT
ATOM      1  C   LIG    1        3.698  -0.688  -0.038  0.00  0.00    +0.164 A 
ATOM      2  N   LIG    1        4.819   0.017  -0.041  0.00  0.00    -0.210 NA
ATOM      3  C   LIG    1        6.002  -0.591  -0.056  0.00  0.00    +0.144 A 
ATOM      4  C   LIG    1        6.038  -1.999  -0.069  0.00  0.00    +0.058 A 
ATOM      5  C   LIG    1        4.825  -2.707  -0.066  0.00  0.00    +0.132 A 
ATOM      6  C   LIG    1        7.451  -2.370  -0.084  0.00  0.00    +0.032 A 
ATOM      7  C   LIG    1        8.154  -1.226  -0.079  0.00  0.00    +0.085 A 
ATOM      8  N   LIG    1        7.299  -0.154  -0.062  0.00  0.00    -0.346 N 
ATOM      9  H   LIG    1        7.572   0.776  -0.056  0.00  0.00    +0.167 HD
ATOM     10  N   LIG    1        3.690  -2.017  -0.045  0.00  0.00    -0.212 NA
ENDROOT
BRANCH   1  14
ATOM     11  C   LIG    1       -0.017   1.379   0.010  0.00  0.00    +0.000 A 
ATOM     12  C   LIG    1        1.169   2.092   0.002  0.00  0.00    +0.001 A 
ATOM     13  C   LIG    1        2.377   1.427  -0.013  0.00  0.00    +0.011 A 
ATOM     14  C   LIG    1        2.402   0.033  -0.021  0.00  0.00    +0.019 A 
ATOM     15  C   LIG    1        1.205  -0.680  -0.013  0.00  0.00    +0.011 A 
ATOM     16  C   LIG    1        0.002  -0.004   0.002  0.00  0.00    +0.001 A 
ENDBRANCH   1  14
BRANCH   5  17
ATOM     17  N   LIG    1        4.812  -4.090  -0.080  0.00  0.00    -0.326 N 
ATOM     18  H   LIG    1        5.648  -4.582  -0.091  0.00  0.00    +0.148 HD
BRANCH  17  19
ATOM     19  C   LIG    1        3.537  -4.811  -0.076  0.00  0.00    +0.072 C 
ATOM     20  C   LIG    1        3.019  -4.938  -1.510  0.00  0.00    +0.025 C 
ATOM     21  C   LIG    1        1.687  -5.691  -1.506  0.00  0.00    +0.033 C 
ATOM     22  C   LIG    1        1.892  -7.086  -0.912  0.00  0.00    +0.115 C 
ATOM     23  C   LIG    1        2.409  -6.959   0.522  0.00  0.00    +0.033 C 
ATOM     24  C   LIG    1        3.741  -6.206   0.518  0.00  0.00    +0.025 C 
BRANCH  22  25
ATOM     25  O   LIG    1        2.843  -7.805  -1.700  0.00  0.00    -0.392 OA
ATOM     26  H   LIG    1        3.022  -8.700  -1.380  0.00  0.00    +0.210 HD
ENDBRANCH  22  25
ENDBRANCH  17  19
ENDBRANCH   5  17
TORSDOF 4
