REMARK  Name = ZINC29043796
REMARK                            x       y       z     vdW  Elec       q    Type
REMARK                         _______ _______ _______ _____ _____    ______ ____
ROOT
ATOM      1  N   LIG    1        2.240   1.324  -1.350  0.00  0.00    +0.386 N 
ATOM      2  H   LIG    1        1.734   1.502  -2.311  0.00  0.00    -0.081 HD
ATOM      3  C   LIG    1        1.310   1.700  -0.278  0.00  0.00    -0.078 C 
ATOM      4  C   LIG    1        0.004   0.917  -0.434  0.00  0.00    -0.015 C 
ATOM      5  C   LIG    1        0.305  -0.584  -0.371  0.00  0.00    -0.010 C 
ATOM      6  C   LIG    1        1.312  -0.941  -1.467  0.00  0.00    -0.015 C 
ATOM      7  C   LIG    1        2.580  -0.103  -1.281  0.00  0.00    -0.078 C 
ENDROOT
BRANCH   1   9
ATOM      8  C   LIG    1        3.052   3.632  -1.262  0.00  0.00    -0.005 C 
ATOM      9  C   LIG    1        3.450   2.156  -1.314  0.00  0.00    +0.001 C 
BRANCH   9  10
ATOM     10  C   LIG    1        4.261   1.810  -0.092  0.00  0.00    +0.150 C 
ATOM     11  O   LIG    1        3.724   1.294   0.866  0.00  0.00    -0.294 OA
BRANCH  10  12
ATOM     12  C   LIG    1        5.699   2.098  -0.060  0.00  0.00    +0.016 A 
ATOM     13  C   LIG    1        6.322   2.689  -1.167  0.00  0.00    +0.013 A 
ATOM     14  C   LIG    1        7.660   2.960  -1.131  0.00  0.00    +0.023 A 
ATOM     15  C   LIG    1        8.407   2.640  -0.000  0.00  0.00    +0.025 A 
ATOM     16  C   LIG    1        7.793   2.047   1.101  0.00  0.00    +0.023 A 
ATOM     17  C   LIG    1        6.455   1.778   1.076  0.00  0.00    +0.013 A 
BRANCH  15  18
ATOM     18  N   LIG    1        9.769   2.912   0.030  0.00  0.00    -0.358 N 
ATOM     19  H   LIG    1       10.256   3.380  -0.839  0.00  0.00    +0.142 HD
ATOM     20  H   LIG    1       10.361   2.660   0.922  0.00  0.00    +0.142 HD
ENDBRANCH  15  18
ENDBRANCH  10  12
ENDBRANCH   9  10
ENDBRANCH   1   9
BRANCH   5  21
ATOM     21  C   LIG    1       -0.988  -1.373  -0.588  0.00  0.00    +0.038 C 
BRANCH  21  22
ATOM     22  C   LIG    1       -0.715  -2.844  -0.404  0.00  0.00    -0.047 A 
ATOM     23  C   LIG    1       -0.340  -3.618  -1.486  0.00  0.00    +0.003 A 
ATOM     24  C   LIG    1       -0.085  -4.966  -1.317  0.00  0.00    +0.000 A 
ATOM     25  C   LIG    1       -0.214  -5.542  -0.067  0.00  0.00    +0.000 A 
ATOM     26  C   LIG    1       -0.594  -4.769   1.014  0.00  0.00    +0.000 A 
ATOM     27  C   LIG    1       -0.844  -3.420   0.846  0.00  0.00    +0.003 A 
ENDBRANCH  21  22
ENDBRANCH   5  21
TORSDOF 6
