REMARK  Name = ZINC14946475
REMARK                            x       y       z     vdW  Elec       q    Type
REMARK                         _______ _______ _______ _____ _____    ______ ____
ROOT
ATOM      1  C   LIG    1        1.389  -2.264  -0.150  0.00  0.00    +0.065 C 
ATOM      2  C   LIG    1        1.576  -0.897   0.153  0.00  0.00    +0.023 C 
ATOM      3  C   LIG    1        0.520  -0.092   0.600  0.00  0.00    +0.006 C 
ATOM      4  C   LIG    1        0.747   1.222   0.881  0.00  0.00    +0.000 C 
ATOM      5  C   LIG    1        2.016   1.775   0.729  0.00  0.00    +0.002 C 
ATOM      6  C   LIG    1        3.063   1.020   0.296  0.00  0.00    +0.019 C 
ATOM      7  C   LIG    1        2.867  -0.339  -0.003  0.00  0.00    +0.058 C 
ATOM      8  N   LIG    1        3.950  -1.071  -0.438  0.00  0.00    -0.310 NA
ATOM      9  H   LIG    1        4.881  -0.650  -0.543  0.00  0.00    +0.122 HD
ATOM     10  C   LIG    1        3.717  -2.386  -0.720  0.00  0.00    +0.061 C 
ATOM     11  C   LIG    1        4.938  -3.131  -1.201  0.00  0.00    +0.019 C 
ATOM     12  C   LIG    1        4.732  -4.639  -1.075  0.00  0.00    +0.004 C 
ATOM     13  C   LIG    1        3.407  -5.005  -1.754  0.00  0.00    +0.032 C 
ATOM     14  C   LIG    1        2.263  -4.458  -0.902  0.00  0.00    +0.121 C 
ATOM     15  C   LIG    1        2.484  -3.001  -0.590  0.00  0.00    +0.052 C 
ENDROOT
BRANCH   1  16
ATOM     16  N   LIG    1        0.144  -2.858  -0.010  0.00  0.00    -0.314 NA
ATOM     17  H   LIG    1       -0.272  -2.622   0.878  0.00  0.00    +0.122 HD
BRANCH  16  18
ATOM     18  C   LIG    1       -0.742  -2.489  -1.122  0.00  0.00    +0.062 C 
BRANCH  18  19
ATOM     19  C   LIG    1       -2.055  -3.266  -1.007  0.00  0.00    -0.064 C 
BRANCH  19  21
ATOM     20  C   LIG    1       -2.386  -3.340  -3.404  0.00  0.00    -0.097 C 
ATOM     21  N   LIG    1       -2.944  -2.868  -2.119  0.00  0.00    +0.377 N 
ATOM     22  H   LIG    1       -3.013  -1.844  -2.141  0.00  0.00    -0.083 HD
ATOM     23  C   LIG    1       -4.293  -3.436  -1.916  0.00  0.00    -0.097 C 
ENDBRANCH  19  21
ENDBRANCH  18  19
ENDBRANCH  16  18
ENDBRANCH   1  16
BRANCH  14  24
ATOM     24  O   LIG    1        1.033  -4.606  -1.613  0.00  0.00    -0.391 OA
ATOM     25  H   LIG    1        0.822  -5.520  -1.849  0.00  0.00    +0.210 HD
ENDBRANCH  14  24
TORSDOF 5
