REMARK  Name = ZINC28232218
REMARK                            x       y       z     vdW  Elec       q    Type
REMARK                         _______ _______ _______ _____ _____    ______ ____
ROOT
ATOM      1  C   LIG    1        1.294   0.116   7.190  0.00  0.00    +0.000 A 
ATOM      2  C   LIG    1        0.592   1.306   7.240  0.00  0.00    +0.000 A 
ATOM      3  C   LIG    1        0.002   1.805   6.097  0.00  0.00    +0.002 A 
ATOM      4  C   LIG    1        0.107   1.118   4.896  0.00  0.00    -0.061 A 
ATOM      5  C   LIG    1        0.810  -0.066   4.846  0.00  0.00    -0.048 A 
ATOM      6  C   LIG    1        0.958  -0.845   3.564  0.00  0.00    +0.017 C 
ATOM      7  C   LIG    1       -0.081  -0.375   2.545  0.00  0.00    -0.073 C 
ATOM      8  N   LIG    1       -0.018   1.093   2.457  0.00  0.00    +0.386 N 
ATOM      9  H   LIG    1        1.035   1.394   2.362  0.00  0.00    -0.081 HD
ATOM     10  C   LIG    1       -0.561   1.698   3.677  0.00  0.00    -0.042 C 
ATOM     11  C   LIG    1        1.403  -0.567   5.995  0.00  0.00    +0.004 A 
ENDROOT
BRANCH   8  12
ATOM     12  C   LIG    1       -0.729   1.579   1.267  0.00  0.00    -0.039 C 
ATOM     13  C   LIG    1       -0.013   1.086   0.008  0.00  0.00    -0.013 C 
ATOM     14  C   LIG    1       -0.753   1.593  -1.232  0.00  0.00    -0.001 C 
ATOM     15  C   LIG    1       -0.773   3.123  -1.223  0.00  0.00    +0.002 C 
ATOM     16  C   LIG    1       -1.490   3.616   0.036  0.00  0.00    +0.030 C 
ATOM     17  C   LIG    1       -0.750   3.109   1.275  0.00  0.00    +0.101 C 
BRANCH  17  18
ATOM     18  O   LIG    1        0.591   3.604   1.265  0.00  0.00    -0.393 OA
ATOM     19  H   LIG    1        0.777   4.688   1.269  0.00  0.00    +0.210 HD
ENDBRANCH  17  18
ENDBRANCH   8  12
TORSDOF 2
