REMARK  Name = ZINC28528239
REMARK                            x       y       z     vdW  Elec       q    Type
REMARK                         _______ _______ _______ _____ _____    ______ ____
ROOT
ATOM      1  N   LIG    1       -3.571   3.716  -0.792  0.00  0.00    -0.330 N 
ATOM      2  C   LIG    1       -4.441   4.715  -0.530  0.00  0.00    +0.200 A 
ATOM      3  N   LIG    1       -4.027   5.394   0.503  0.00  0.00    -0.235 NA
ATOM      4  C   LIG    1       -2.877   4.864   0.960  0.00  0.00    +0.097 A 
ATOM      5  C   LIG    1       -2.568   3.787   0.148  0.00  0.00    +0.077 A 
ENDROOT
BRANCH   4   6
ATOM      6  C   LIG    1       -2.089   5.344   2.118  0.00  0.00    +0.003 A 
ATOM      7  C   LIG    1       -1.419   4.434   2.935  0.00  0.00    +0.013 A 
ATOM      8  C   LIG    1       -0.682   4.886   4.010  0.00  0.00    +0.039 A 
ATOM      9  C   LIG    1       -0.615   6.243   4.284  0.00  0.00    +0.123 A 
ATOM     10  F   LIG    1        0.103   6.681   5.341  0.00  0.00    -0.205 F 
ATOM     11  C   LIG    1       -1.282   7.152   3.478  0.00  0.00    +0.039 A 
ATOM     12  C   LIG    1       -2.018   6.709   2.398  0.00  0.00    +0.013 A 
ENDBRANCH   4   6
BRANCH   5  13
ATOM     13  C   LIG    1       -1.397   2.898   0.263  0.00  0.00    +0.003 A 
ATOM     14  C   LIG    1       -1.553   1.508   0.352  0.00  0.00    +0.030 A 
ATOM     15  C   LIG    1       -0.430   0.715   0.463  0.00  0.00    +0.111 A 
ATOM     16  N   LIG    1        0.777   1.248   0.476  0.00  0.00    -0.263 NA
ATOM     17  C   LIG    1        0.970   2.551   0.390  0.00  0.00    +0.111 A 
ATOM     18  C   LIG    1       -0.096   3.419   0.281  0.00  0.00    +0.030 A 
ENDBRANCH   5  13
BRANCH   1  19
ATOM     19  C   LIG    1       -3.677   2.735  -1.876  0.00  0.00    +0.125 C 
BRANCH  19  20
ATOM     20  C   LIG    1       -2.833   3.197  -3.066  0.00  0.00    +0.040 C 
BRANCH  20  21
ATOM     21  C   LIG    1       -3.040   2.239  -4.240  0.00  0.00    +0.106 C 
BRANCH  21  23
ATOM     22  C   LIG    1       -2.256   1.984  -6.533  0.00  0.00    +0.244 C 
ATOM     23  N   LIG    1       -2.232   2.681  -5.379  0.00  0.00    -0.311 N 
ATOM     24  H   LIG    1       -1.606   3.581  -5.293  0.00  0.00    +0.149 HD
ATOM     25  O   LIG    1       -2.947   0.989  -6.628  0.00  0.00    -0.270 OA
BRANCH  22  29
ATOM     26  C   LIG    1        0.087   3.266  -9.836  0.00  0.00    +0.000 A 
ATOM     27  C   LIG    1       -0.699   2.133  -9.948  0.00  0.00    +0.001 A 
ATOM     28  C   LIG    1       -1.462   1.711  -8.879  0.00  0.00    +0.013 A 
ATOM     29  C   LIG    1       -1.440   2.430  -7.683  0.00  0.00    +0.037 A 
ATOM     30  C   LIG    1       -0.649   3.576  -7.579  0.00  0.00    +0.013 A 
ATOM     31  C   LIG    1        0.113   3.984  -8.653  0.00  0.00    +0.001 A 
ENDBRANCH  22  29
ENDBRANCH  21  23
ENDBRANCH  20  21
ENDBRANCH  19  20
ENDBRANCH   1  19
TORSDOF 7
