REMARK  Name = ZINC36294894
REMARK                            x       y       z     vdW  Elec       q    Type
REMARK                         _______ _______ _______ _____ _____    ______ ____
ROOT
ATOM      1  N   LIG    1        2.959  -0.052  -4.055  0.00  0.00    -0.267 N 
ATOM      2  H   LIG    1        3.321  -0.695  -4.685  0.00  0.00    +0.157 HD
ATOM      3  C   LIG    1        3.293   1.250  -4.155  0.00  0.00    +0.252 C 
ATOM      4  O   LIG    1        2.839   2.056  -3.366  0.00  0.00    -0.270 OA
ENDROOT
BRANCH   3   5
ATOM      5  C   LIG    1        4.209   1.698  -5.223  0.00  0.00    +0.073 A 
ATOM      6  C   LIG    1        4.728   0.775  -6.135  0.00  0.00    +0.016 A 
ATOM      7  C   LIG    1        5.583   1.200  -7.129  0.00  0.00    +0.001 A 
ATOM      8  C   LIG    1        5.930   2.537  -7.227  0.00  0.00    +0.015 A 
ATOM      9  C   LIG    1        5.421   3.457  -6.330  0.00  0.00    +0.091 A 
ATOM     10  C   LIG    1        4.558   3.048  -5.330  0.00  0.00    +0.147 A 
ATOM     11  F   LIG    1        4.057   3.948  -4.456  0.00  0.00    -0.204 F 
BRANCH   9  12
ATOM     12  C   LIG    1        5.805   4.910  -6.444  0.00  0.00    +0.420 C 
ATOM     13  F   LIG    1        6.439   5.319  -5.266  0.00  0.00    -0.166 F 
ATOM     14  F   LIG    1        4.655   5.681  -6.647  0.00  0.00    -0.166 F 
ATOM     15  F   LIG    1        6.676   5.078  -7.526  0.00  0.00    -0.166 F 
ENDBRANCH   9  12
ENDBRANCH   3   5
BRANCH   1  18
ATOM     16  C   LIG    1        0.723  -0.502  -1.289  0.00  0.00    +0.044 A 
ATOM     17  C   LIG    1        1.514   0.314  -2.101  0.00  0.00    +0.066 A 
ATOM     18  C   LIG    1        2.094  -0.474  -3.048  0.00  0.00    +0.122 A 
ATOM     19  N   LIG    1        1.674  -1.747  -2.830  0.00  0.00    -0.270 N 
ATOM     20  N   LIG    1        0.821  -1.734  -1.720  0.00  0.00    -0.289 N 
ATOM     21  C   LIG    1        0.149  -2.900  -1.140  0.00  0.00    +0.170 C 
BRANCH  16  23
ATOM     22  C   LIG    1       -0.110   1.486  -0.063  0.00  0.00    +0.017 C 
ATOM     23  C   LIG    1       -0.099  -0.043  -0.112  0.00  0.00    +0.004 C 
ATOM     24  C   LIG    1       -1.532  -0.558  -0.259  0.00  0.00    +0.017 C 
ATOM     25  C   LIG    1        0.510  -0.591   1.180  0.00  0.00    +0.017 C 
ENDBRANCH  16  23
BRANCH  19  26
ATOM     26  C   LIG    1        2.050  -2.926  -3.615  0.00  0.00    +0.147 C 
BRANCH  26  27
ATOM     27  C   LIG    1        1.055  -3.113  -4.762  0.00  0.00    +0.010 C 
ATOM     28  C   LIG    1        0.205  -4.386  -4.760  0.00  0.00    +0.005 C 
ATOM     29  C   LIG    1        1.342  -4.227  -5.771  0.00  0.00    +0.005 C 
ENDBRANCH  26  27
ENDBRANCH  19  26
ENDBRANCH   1  18
TORSDOF 6
