REMARK  Name = ZINC00017086
REMARK                            x       y       z     vdW  Elec       q    Type
REMARK                         _______ _______ _______ _____ _____    ______ ____
ROOT
ATOM      1  C   LIG    1        5.289   1.339  -0.042  0.00  0.00    +0.002 A 
ATOM      2  C   LIG    1        4.023   1.891  -0.026  0.00  0.00    +0.016 A 
ATOM      3  C   LIG    1        2.922   1.063  -0.020  0.00  0.00    +0.021 A 
ATOM      4  C   LIG    1        3.038  -0.347  -0.029  0.00  0.00    +0.003 A 
ATOM      5  C   LIG    1        4.356  -0.871  -0.044  0.00  0.00    +0.022 A 
ATOM      6  I   LIG    1        4.646  -2.946  -0.057  0.00  0.00    -0.043 I 
ATOM      7  C   LIG    1        1.819  -1.052  -0.021  0.00  0.00    +0.033 A 
ATOM      8  C   LIG    1        0.644  -0.374  -0.006  0.00  0.00    +0.099 A 
ATOM      9  S   LIG    1        1.167   1.332  -0.002  0.00  0.00    -0.081 S 
ATOM     10  C   LIG    1        5.433  -0.042  -0.050  0.00  0.00    +0.015 A 
ENDROOT
BRANCH   8  11
ATOM     11  C   LIG    1       -0.728  -0.914   0.004  0.00  0.00    +0.273 C 
ATOM     12  N   LIG    1       -0.857  -2.235  -0.001  0.00  0.00    -0.288 N 
ATOM     13  H   LIG    1       -0.022  -2.832  -0.012  0.00  0.00    +0.301 HD
ATOM     14  H   LIG    1       -1.786  -2.656   0.006  0.00  0.00    +0.301 HD
BRANCH  11  15
ATOM     15  N   LIG    1       -1.807  -0.055   0.019  0.00  0.00    -0.249 N 
ATOM     16  H   LIG    1       -2.710  -0.410   0.026  0.00  0.00    +0.288 HD
ATOM     17  H   LIG    1       -1.663   0.904   0.023  0.00  0.00    +0.288 HD
ENDBRANCH  11  15
ENDBRANCH   8  11
TORSDOF 2
