REMARK  Name = ZINC45350560
REMARK                            x       y       z     vdW  Elec       q    Type
REMARK                         _______ _______ _______ _____ _____    ______ ____
ROOT
ATOM      1  C   LIG    1        2.736  -1.073  -2.455  0.00  0.00    +0.166 C 
ENDROOT
BRANCH   1   4
ATOM      2  N   LIG    1        0.688  -0.476  -1.203  0.00  0.00    -0.299 N 
ATOM      3  H   LIG    1        0.175  -0.710  -1.993  0.00  0.00    +0.150 HD
ATOM      4  C   LIG    1        2.031  -0.587  -1.215  0.00  0.00    +0.235 C 
ATOM      5  O   LIG    1        2.672  -0.295  -0.228  0.00  0.00    -0.274 OA
BRANCH   2   7
ATOM      6  C   LIG    1       -0.019   1.526   0.010  0.00  0.00    +0.044 C 
ATOM      7  C   LIG    1        0.002  -0.004   0.002  0.00  0.00    +0.173 C 
BRANCH   7   8
ATOM      8  C   LIG    1       -1.379  -0.514   0.013  0.00  0.00    +0.085 C 
ATOM      9  N   LIG    1       -2.445  -0.907   0.021  0.00  0.00    -0.195 NA
ENDBRANCH   7   8
ENDBRANCH   2   7
ENDBRANCH   1   4
BRANCH   1  10
ATOM     10  N   LIG    1        4.181  -1.104  -2.214  0.00  0.00    -0.269 N 
ATOM     11  H   LIG    1        4.608  -1.927  -1.929  0.00  0.00    +0.153 HD
ATOM     12  C   LIG    1        4.918   0.011  -2.389  0.00  0.00    +0.401 C 
ATOM     13  O   LIG    1        4.383   1.042  -2.746  0.00  0.00    -0.226 OA
BRANCH  12  14
ATOM     14  O   LIG    1        6.245  -0.017  -2.168  0.00  0.00    -0.446 OA
BRANCH  14  15
ATOM     15  C   LIG    1        6.963   1.201  -2.373  0.00  0.00    +0.269 C 
BRANCH  15  16
ATOM     16  C   LIG    1        8.425   0.978  -2.079  0.00  0.00    -0.010 A 
ATOM     17  C   LIG    1        8.910   1.171  -0.799  0.00  0.00    +0.007 A 
ATOM     18  C   LIG    1       10.250   0.967  -0.530  0.00  0.00    +0.000 A 
ATOM     19  C   LIG    1       11.105   0.569  -1.540  0.00  0.00    +0.000 A 
ATOM     20  C   LIG    1       10.620   0.375  -2.820  0.00  0.00    +0.000 A 
ATOM     21  C   LIG    1        9.279   0.576  -3.088  0.00  0.00    +0.007 A 
ENDBRANCH  15  16
ENDBRANCH  14  15
ENDBRANCH  12  14
ENDBRANCH   1  10
BRANCH   1  22
ATOM     22  C   LIG    1        2.247  -2.480  -2.801  0.00  0.00    +0.067 C 
BRANCH  22  23
ATOM     23  C   LIG    1        2.859  -2.918  -4.107  0.00  0.00    -0.045 A 
ATOM     24  C   LIG    1        2.214  -2.644  -5.299  0.00  0.00    +0.004 A 
ATOM     25  C   LIG    1        2.776  -3.046  -6.497  0.00  0.00    +0.000 A 
ATOM     26  C   LIG    1        3.982  -3.720  -6.503  0.00  0.00    +0.000 A 
ATOM     27  C   LIG    1        4.628  -3.992  -5.311  0.00  0.00    +0.000 A 
ATOM     28  C   LIG    1        4.068  -3.587  -4.114  0.00  0.00    +0.004 A 
ENDBRANCH  22  23
ENDBRANCH   1  22
TORSDOF 9
