REMARK  Name = ZINC71329484
REMARK                            x       y       z     vdW  Elec       q    Type
REMARK                         _______ _______ _______ _____ _____    ______ ____
ROOT
ATOM      1  C   LIG    1        0.649   0.351   2.223  0.00  0.00    +0.006 A 
ATOM      2  C   LIG    1        1.807   1.064   2.212  0.00  0.00    +0.028 A 
ATOM      3  C   LIG    1        2.687   0.967   1.122  0.00  0.00    +0.073 A 
ATOM      4  C   LIG    1        2.354   0.119   0.037  0.00  0.00    +0.025 A 
ATOM      5  C   LIG    1        3.248   0.029  -1.056  0.00  0.00    +0.068 A 
ATOM      6  C   LIG    1        4.426   0.789  -1.008  0.00  0.00    +0.018 A 
ATOM      7  C   LIG    1        4.677   1.605   0.112  0.00  0.00    +0.121 A 
ATOM      8  C   LIG    1        5.341   0.720  -2.088  0.00  0.00    +0.017 A 
ATOM      9  C   LIG    1        5.053  -0.083  -3.145  0.00  0.00    +0.071 A 
ATOM     10  C   LIG    1        3.860  -0.833  -3.162  0.00  0.00    +0.256 A 
ATOM     11  O   LIG    1        3.613  -1.549  -4.117  0.00  0.00    -0.267 OA
ATOM     12  N   LIG    1        2.989  -0.769  -2.136  0.00  0.00    -0.276 N 
ATOM     13  C   LIG    1        1.159  -0.608   0.063  0.00  0.00    +0.016 A 
ATOM     14  N   LIG    1        3.831   1.668   1.107  0.00  0.00    -0.254 NA
ATOM     15  C   LIG    1        0.312  -0.489   1.152  0.00  0.00    -0.042 A 
ENDROOT
BRANCH  12  16
ATOM     16  C   LIG    1        1.810  -1.525  -2.176  0.00  0.00    +0.051 A 
ATOM     17  C   LIG    1        0.638  -0.960  -2.664  0.00  0.00    +0.029 A 
ATOM     18  C   LIG    1       -0.522  -1.707  -2.703  0.00  0.00    +0.041 A 
ATOM     19  C   LIG    1       -0.519  -3.018  -2.256  0.00  0.00    +0.135 A 
ATOM     20  F   LIG    1       -1.656  -3.747  -2.294  0.00  0.00    -0.205 F 
ATOM     21  C   LIG    1        0.648  -3.583  -1.769  0.00  0.00    +0.092 A 
ATOM     22  C   LIG    1        1.813  -2.841  -1.734  0.00  0.00    +0.041 A 
BRANCH  21  23
ATOM     23  C   LIG    1        0.648  -5.009  -1.283  0.00  0.00    +0.420 C 
ATOM     24  F   LIG    1        0.272  -5.859  -2.329  0.00  0.00    -0.166 F 
ATOM     25  F   LIG    1       -0.258  -5.142  -0.226  0.00  0.00    -0.166 F 
ATOM     26  F   LIG    1        1.932  -5.351  -0.843  0.00  0.00    -0.166 F 
ENDBRANCH  21  23
ENDBRANCH  12  16
BRANCH  15  27
ATOM     27  C   LIG    1       -0.957  -1.256   1.187  0.00  0.00    +0.033 C 
ATOM     28  C   LIG    1       -1.015  -2.556   0.671  0.00  0.00    +0.012 C 
ATOM     29  C   LIG    1       -2.218  -3.232   0.726  0.00  0.00    +0.035 C 
ATOM     30  C   LIG    1       -3.326  -2.602   1.288  0.00  0.00    +0.119 C 
ATOM     31  N   LIG    1       -3.237  -1.371   1.767  0.00  0.00    -0.301 NA
ATOM     32  H   LIG    1       -4.025  -0.956   2.152  0.00  0.00    +0.123 HD
ATOM     33  C   LIG    1       -2.105  -0.695   1.738  0.00  0.00    +0.090 C 
BRANCH  30  34
ATOM     34  N   LIG    1       -4.540  -3.275   1.347  0.00  0.00    -0.316 NA
ATOM     35  H   LIG    1       -5.316  -2.842   1.737  0.00  0.00    +0.120 HD
ATOM     36  H   LIG    1       -4.612  -4.177   0.998  0.00  0.00    +0.120 HD
ENDBRANCH  30  34
ENDBRANCH  15  27
TORSDOF 4
