REMARK  Name = ZINC49792299
REMARK                            x       y       z     vdW  Elec       q    Type
REMARK                         _______ _______ _______ _____ _____    ______ ____
ROOT
ATOM      1  N   LIG    1        0.177   1.872  -3.037  0.00  0.00    -0.271 NA
ATOM      2  C   LIG    1        0.478   2.499  -4.124  0.00  0.00    +0.115 C 
ATOM      3  C   LIG    1       -0.160   2.705  -5.481  0.00  0.00    +0.198 C 
ATOM      4  C   LIG    1        0.640   3.988  -5.540  0.00  0.00    +0.230 C 
ATOM      5  O   LIG    1        0.542   5.055  -6.097  0.00  0.00    -0.286 OA
ATOM      6  C   LIG    1        1.603   3.347  -4.598  0.00  0.00    +0.246 C 
ATOM      7  O   LIG    1        2.781   3.467  -4.335  0.00  0.00    -0.282 OA
ENDROOT
BRANCH   3   8
ATOM      8  N   LIG    1        0.241   1.711  -6.480  0.00  0.00    -0.326 N 
ATOM      9  H   LIG    1        1.089   1.248  -6.390  0.00  0.00    +0.147 HD
BRANCH   8  10
ATOM     10  C   LIG    1       -0.599   1.430  -7.564  0.00  0.00    +0.071 A 
ATOM     11  C   LIG    1       -1.808   2.095  -7.696  0.00  0.00    +0.026 A 
ATOM     12  C   LIG    1       -2.643   1.822  -8.766  0.00  0.00    +0.003 A 
ATOM     13  C   LIG    1       -2.282   0.886  -9.710  0.00  0.00    +0.017 A 
ATOM     14  C   LIG    1       -1.066   0.206  -9.592  0.00  0.00    +0.080 A 
ATOM     15  C   LIG    1       -0.218   0.485  -8.514  0.00  0.00    +0.150 A 
BRANCH  14  16
ATOM     16  C   LIG    1       -0.677  -0.797 -10.601  0.00  0.00    +0.250 C 
ATOM     17  N   LIG    1       -1.500  -1.827 -10.881  0.00  0.00    -0.304 N 
ATOM     18  C   LIG    1       -2.819  -1.903 -10.247  0.00  0.00    +0.132 C 
ATOM     19  C   LIG    1       -1.077  -2.870 -11.818  0.00  0.00    +0.132 C 
ATOM     20  O   LIG    1        0.387  -0.695 -11.181  0.00  0.00    -0.270 OA
ENDBRANCH  14  16
BRANCH  15  21
ATOM     21  O   LIG    1        0.967  -0.166  -8.392  0.00  0.00    -0.504 OA
ATOM     22  H   LIG    1        0.914  -0.988  -7.886  0.00  0.00    +0.292 HD
ENDBRANCH  15  21
ENDBRANCH   8  10
ENDBRANCH   3   8
BRANCH   1  23
ATOM     23  C   LIG    1        1.085   1.918  -1.889  0.00  0.00    +0.171 C 
BRANCH  23  24
ATOM     24  C   LIG    1        1.530   0.520  -1.544  0.00  0.00    +0.129 A 
ATOM     25  C   LIG    1        2.769   0.159  -1.166  0.00  0.00    +0.047 A 
ATOM     26  C   LIG    1        2.740  -1.236  -0.943  0.00  0.00    +0.045 A 
ATOM     27  C   LIG    1        1.484  -1.645  -1.198  0.00  0.00    +0.102 A 
ATOM     28  C   LIG    1        0.980  -3.062  -1.094  0.00  0.00    +0.086 C 
ATOM     29  O   LIG    1        0.754  -0.576  -1.556  0.00  0.00    -0.463 OA
ENDBRANCH  23  24
BRANCH  23  31
ATOM     30  C   LIG    1        0.019   3.993  -0.995  0.00  0.00    +0.006 C 
ATOM     31  C   LIG    1        0.361   2.533  -0.690  0.00  0.00    +0.031 C 
ENDBRANCH  23  31
ENDBRANCH   1  23
TORSDOF 7
