REMARK  Name = ZINC27196931
REMARK                            x       y       z     vdW  Elec       q    Type
REMARK                         _______ _______ _______ _____ _____    ______ ____
ROOT
ATOM      1  C   LIG    1        0.002  -0.004   0.002  0.00  0.00    +0.176 C 
ATOM      2  C   LIG    1       -0.019   1.542   0.011  0.00  0.00    +0.042 C 
ATOM      3  C   LIG    1       -0.683   2.078   1.281  0.00  0.00    +0.012 C 
ATOM      4  C   LIG    1        1.496   1.858  -0.002  0.00  0.00    +0.130 C 
ATOM      5  C   LIG    1        2.120   0.620  -0.608  0.00  0.00    +0.237 C 
ATOM      6  N   LIG    1        1.293  -0.367  -0.594  0.00  0.00    -0.277 N 
ATOM      7  H   LIG    1        1.595  -1.343  -1.002  0.00  0.00    +0.304 HD
ENDROOT
BRANCH   5   8
ATOM      8  N   LIG    1        3.395   0.557  -1.104  0.00  0.00    -0.254 N 
ATOM      9  H   LIG    1        4.040   1.447  -1.079  0.00  0.00    +0.288 HD
ATOM     10  H   LIG    1        3.774  -0.385  -1.529  0.00  0.00    +0.288 HD
ENDBRANCH   5   8
BRANCH   1  11
ATOM     11  C   LIG    1       -1.149  -0.546  -0.849  0.00  0.00    +0.049 C 
BRANCH  11  13
ATOM     12  C   LIG    1       -2.336  -2.614  -1.594  0.00  0.00    +0.004 C 
ATOM     13  C   LIG    1       -1.186  -2.072  -0.743  0.00  0.00    +0.001 C 
ENDBRANCH  11  13
ENDBRANCH   1  11
TORSDOF 3
