REMARK  Name = ZINC26829431
REMARK                            x       y       z     vdW  Elec       q    Type
REMARK                         _______ _______ _______ _____ _____    ______ ____
ROOT
ATOM      1  N   LIG    1       -3.829  -0.677   1.256  0.00  0.00    +0.380 N 
ATOM      2  H   LIG    1       -4.661   0.040   1.185  0.00  0.00    -0.082 HD
ATOM      3  C   LIG    1       -3.901  -1.563   0.087  0.00  0.00    -0.079 C 
ATOM      4  C   LIG    1       -3.877  -0.724  -1.193  0.00  0.00    -0.018 C 
ATOM      5  C   LIG    1       -2.587   0.100  -1.233  0.00  0.00    +0.004 C 
ATOM      6  C   LIG    1       -2.513   0.979   0.019  0.00  0.00    +0.006 C 
ATOM      7  C   LIG    1       -2.577   0.091   1.264  0.00  0.00    -0.071 C 
ENDROOT
BRANCH   6   8
ATOM      8  C   LIG    1       -1.219   1.750   0.017  0.00  0.00    -0.005 A 
ATOM      9  C   LIG    1       -0.013   1.076   0.008  0.00  0.00    +0.007 A 
ATOM     10  C   LIG    1        1.175   1.783   0.000  0.00  0.00    +0.000 A 
ATOM     11  C   LIG    1        1.160   3.166   0.007  0.00  0.00    +0.004 A 
ATOM     12  C   LIG    1       -0.043   3.844   0.023  0.00  0.00    +0.046 A 
ATOM     13  C   LIG    1       -1.237   3.137   0.031  0.00  0.00    +0.120 A 
BRANCH  13  14
ATOM     14  O   LIG    1       -2.422   3.802   0.047  0.00  0.00    -0.506 OA
ATOM     15  H   LIG    1       -2.435   4.902   0.058  0.00  0.00    +0.292 HD
ENDBRANCH  13  14
ENDBRANCH   6   8
BRANCH   1  16
ATOM     16  C   LIG    1       -3.990  -1.436   2.503  0.00  0.00    -0.079 C 
BRANCH  16  18
ATOM     17  C   LIG    1       -5.570  -2.810   3.866  0.00  0.00    +0.002 C 
ATOM     18  C   LIG    1       -5.403  -2.019   2.567  0.00  0.00    -0.022 C 
ENDBRANCH  16  18
ENDBRANCH   1  16
TORSDOF 4
