REMARK  Name = ZINC00008977
REMARK                            x       y       z     vdW  Elec       q    Type
REMARK                         _______ _______ _______ _____ _____    ______ ____
ROOT
ATOM      1  C   LIG    1       -0.704   7.365   0.046  0.00  0.00    +0.221 A 
ATOM      2  N   LIG    1       -1.161   6.096   0.040  0.00  0.00    -0.186 NA
ATOM      3  C   LIG    1       -0.085   5.333   0.031  0.00  0.00    +0.259 A 
ATOM      4  O   LIG    1        0.975   6.156   0.024  0.00  0.00    -0.332 OA
ATOM      5  N   LIG    1        0.603   7.310   0.033  0.00  0.00    -0.054 NA
ENDROOT
BRANCH   1  10
ATOM      6  C   LIG    1       -1.697  10.986   0.074  0.00  0.00    +0.004 A 
ATOM      7  C   LIG    1       -3.076  10.841   0.087  0.00  0.00    +0.020 A 
ATOM      8  C   LIG    1       -3.624   9.571   0.086  0.00  0.00    +0.111 A 
ATOM      9  N   LIG    1       -2.854   8.502   0.068  0.00  0.00    -0.252 NA
ATOM     10  C   LIG    1       -1.532   8.598   0.061  0.00  0.00    +0.111 A 
ATOM     11  C   LIG    1       -0.912   9.845   0.060  0.00  0.00    +0.031 A 
ENDBRANCH   1  10
BRANCH   3  12
ATOM     12  C   LIG    1       -0.053   3.855   0.023  0.00  0.00    +0.041 A 
ATOM     13  C   LIG    1       -1.246   3.129   0.031  0.00  0.00    +0.013 A 
ATOM     14  C   LIG    1       -1.218   1.748   0.017  0.00  0.00    +0.002 A 
ATOM     15  C   LIG    1       -0.013   1.076   0.008  0.00  0.00    +0.019 A 
ATOM     16  C   LIG    1        1.188   1.789   0.000  0.00  0.00    +0.052 A 
ATOM     17  C   LIG    1        1.167   3.183   0.008  0.00  0.00    +0.032 A 
BRANCH  16  18
ATOM     18  C   LIG    1        2.438   1.091  -0.016  0.00  0.00    +0.099 C 
ATOM     19  N   LIG    1        3.430   0.536  -0.029  0.00  0.00    -0.191 NA
ENDBRANCH  16  18
ENDBRANCH   3  12
TORSDOF 3
