REMARK  Name = ZINC37858692
REMARK                            x       y       z     vdW  Elec       q    Type
REMARK                         _______ _______ _______ _____ _____    ______ ____
ROOT
ATOM      1  C   LIG    1       -0.003   1.331  -0.581  0.00  0.00    +0.001 A 
ATOM      2  C   LIG    1        1.181   2.064  -0.582  0.00  0.00    +0.001 A 
ATOM      3  C   LIG    1        2.388   1.444  -0.455  0.00  0.00    +0.012 A 
ATOM      4  C   LIG    1        2.441   0.048  -0.320  0.00  0.00    +0.025 A 
ATOM      5  C   LIG    1        1.238  -0.698  -0.319  0.00  0.00    -0.014 A 
ATOM      6  C   LIG    1        1.281  -2.100  -0.185  0.00  0.00    +0.009 A 
ATOM      7  C   LIG    1        2.471  -2.738  -0.058  0.00  0.00    +0.016 A 
ATOM      8  C   LIG    1        3.676  -2.015  -0.057  0.00  0.00    +0.065 A 
ATOM      9  C   LIG    1        4.974  -2.705   0.082  0.00  0.00    +0.194 A 
ATOM     10  O   LIG    1        5.037  -3.918   0.199  0.00  0.00    -0.287 OA
ATOM     11  C   LIG    1        6.136  -1.910   0.073  0.00  0.00    +0.114 A 
ATOM     12  C   LIG    1        6.023  -0.559  -0.060  0.00  0.00    +0.193 A 
ATOM     13  O   LIG    1        4.838   0.052  -0.185  0.00  0.00    -0.440 OA
ATOM     14  C   LIG    1        3.674  -0.626  -0.187  0.00  0.00    +0.148 A 
ATOM     15  C   LIG    1        0.013  -0.025  -0.452  0.00  0.00    +0.008 A 
ENDROOT
BRANCH  12  16
ATOM     16  N   LIG    1        7.164   0.203  -0.068  0.00  0.00    -0.297 N 
ATOM     17  C   LIG    1        8.422  -0.322  -0.623  0.00  0.00    +0.136 C 
ATOM     18  C   LIG    1        8.980   0.707  -1.613  0.00  0.00    +0.179 C 
ATOM     19  O   LIG    1        9.052   1.984  -0.974  0.00  0.00    -0.377 OA
ATOM     20  C   LIG    1        7.786   2.506  -0.565  0.00  0.00    +0.179 C 
ATOM     21  C   LIG    1        7.165   1.572   0.473  0.00  0.00    +0.136 C 
ENDBRANCH  12  16
TORSDOF 1
