REMARK  Name = ZINC28641215
REMARK                            x       y       z     vdW  Elec       q    Type
REMARK                         _______ _______ _______ _____ _____    ______ ____
ROOT
ATOM      1  C   LIG    1       -1.183  -0.709  -0.004  0.00  0.00    +0.137 C 
ATOM      2  C   LIG    1       -1.181  -2.117  -0.104  0.00  0.00    +0.120 C 
ATOM      3  C   LIG    1       -2.412  -2.783  -0.077  0.00  0.00    +0.099 C 
ATOM      4  N   LIG    1       -3.521  -2.076   0.040  0.00  0.00    -0.288 NA
ATOM      5  H   LIG    1       -4.497  -2.584   0.062  0.00  0.00    +0.125 HD
ATOM      6  C   LIG    1       -3.485  -0.752   0.131  0.00  0.00    +0.195 C 
ATOM      7  N   LIG    1       -2.345  -0.077   0.116  0.00  0.00    -0.273 NA
ATOM      8  H   LIG    1       -2.404   0.575  -0.666  0.00  0.00    +0.126 HD
ENDROOT
BRANCH   2   9
ATOM      9  C   LIG    1        0.080  -2.865  -0.233  0.00  0.00    +0.218 C 
ATOM     10  N   LIG    1        0.056  -4.196  -0.442  0.00  0.00    -0.329 N 
ATOM     11  H   LIG    1       -0.906  -4.724  -0.516  0.00  0.00    +0.145 HD
ATOM     12  H   LIG    1        0.999  -4.755  -0.538  0.00  0.00    +0.145 HD
ATOM     13  O   LIG    1        1.144  -2.281  -0.152  0.00  0.00    -0.276 OA
ENDBRANCH   2   9
BRANCH   1  14
ATOM     14  N   LIG    1        0.001  -0.002  -0.025  0.00  0.00    -0.297 NA
ATOM     15  H   LIG    1        0.961  -0.538  -0.032  0.00  0.00    +0.124 HD
BRANCH  14  16
ATOM     16  C   LIG    1       -0.021   1.463  -0.040  0.00  0.00    +0.117 C 
BRANCH  16  20
ATOM     17  C   LIG    1        3.985   2.945  -0.102  0.00  0.00    +0.000 A 
ATOM     18  C   LIG    1        3.322   2.693  -1.289  0.00  0.00    +0.000 A 
ATOM     19  C   LIG    1        2.026   2.213  -1.269  0.00  0.00    +0.005 A 
ATOM     20  C   LIG    1        1.392   1.986  -0.062  0.00  0.00    -0.034 A 
ATOM     21  C   LIG    1        2.053   2.243   1.125  0.00  0.00    +0.005 A 
ATOM     22  C   LIG    1        3.351   2.717   1.105  0.00  0.00    +0.000 A 
ENDBRANCH  16  20
ENDBRANCH  14  16
ENDBRANCH   1  14
BRANCH   6  23
ATOM     23  N   LIG    1       -4.671  -0.058   0.252  0.00  0.00    -0.289 NA
ATOM     24  H   LIG    1       -4.661   1.039   0.329  0.00  0.00    +0.125 HD
BRANCH  23  25
ATOM     25  C   LIG    1       -5.944  -0.783   0.277  0.00  0.00    +0.088 C 
BRANCH  25  26
ATOM     26  C   LIG    1       -7.096   0.215   0.417  0.00  0.00    +0.050 C 
BRANCH  26  27
ATOM     27  C   LIG    1       -8.406  -0.530   0.443  0.00  0.00    -0.045 A 
ATOM     28  C   LIG    1       -9.080  -0.782  -0.738  0.00  0.00    +0.007 A 
ATOM     29  C   LIG    1      -10.278  -1.470  -0.718  0.00  0.00    +0.047 A 
ATOM     30  C   LIG    1      -10.810  -1.898   0.489  0.00  0.00    +0.135 A 
ATOM     31  C   LIG    1      -10.135  -1.639   1.674  0.00  0.00    +0.083 A 
ATOM     32 CL   LIG    1      -10.798  -2.173   3.187  0.00  0.00    -0.080 Cl
ATOM     33  C   LIG    1       -8.934  -0.956   1.647  0.00  0.00    +0.027 A 
BRANCH  30  34
ATOM     34  O   LIG    1      -11.992  -2.570   0.512  0.00  0.00    -0.505 OA
ATOM     35  H   LIG    1      -12.414  -2.909   1.469  0.00  0.00    +0.292 HD
ENDBRANCH  30  34
ENDBRANCH  26  27
ENDBRANCH  25  26
ENDBRANCH  23  25
ENDBRANCH   6  23
TORSDOF 9
