REMARK  Name = ZINC22243236
REMARK                            x       y       z     vdW  Elec       q    Type
REMARK                         _______ _______ _______ _____ _____    ______ ____
ROOT
ATOM      1  N   LIG    1        1.259  -2.060  -0.059  0.00  0.00    -0.265 N 
ATOM      2  H   LIG    1        2.105  -2.525  -0.153  0.00  0.00    +0.157 HD
ATOM      3  C   LIG    1        0.115  -2.760   0.070  0.00  0.00    +0.271 C 
ATOM      4  O   LIG    1       -0.953  -2.180   0.095  0.00  0.00    -0.268 OA
ENDROOT
BRANCH   1   9
ATOM      5  C   LIG    1        2.374   1.432  -0.076  0.00  0.00    +0.005 A 
ATOM      6  C   LIG    1        1.133   2.054  -0.047  0.00  0.00    +0.020 A 
ATOM      7  C   LIG    1       -0.010   1.280  -0.023  0.00  0.00    +0.113 A 
ATOM      8  N   LIG    1        0.064  -0.037  -0.028  0.00  0.00    -0.240 NA
ATOM      9  C   LIG    1        1.228  -0.667  -0.055  0.00  0.00    +0.125 A 
ATOM     10  C   LIG    1        2.420   0.049  -0.081  0.00  0.00    +0.044 A 
ENDBRANCH   1   9
BRANCH   3  11
ATOM     11  C   LIG    1        0.159  -4.232   0.180  0.00  0.00    +0.165 A 
ATOM     12  C   LIG    1       -1.034  -4.974   0.196  0.00  0.00    +0.147 A 
ATOM     13  N   LIG    1       -0.983  -6.298   0.296  0.00  0.00    -0.237 NA
ATOM     14  C   LIG    1        0.184  -6.909   0.379  0.00  0.00    +0.132 A 
ATOM     15  C   LIG    1        1.362  -6.175   0.363  0.00  0.00    +0.131 A 
ATOM     16  N   LIG    1        1.327  -4.862   0.260  0.00  0.00    -0.246 NA
BRANCH  12  17
ATOM     17  N   LIG    1       -2.255  -4.330   0.110  0.00  0.00    -0.341 N 
ATOM     18  H   LIG    1       -3.072  -4.848   0.042  0.00  0.00    +0.144 HD
ATOM     19  H   LIG    1       -2.293  -3.361   0.116  0.00  0.00    +0.144 HD
ENDBRANCH  12  17
ENDBRANCH   3  11
TORSDOF 3
