REMARK  Name = ZINC00057530
REMARK                            x       y       z     vdW  Elec       q    Type
REMARK                         _______ _______ _______ _____ _____    ______ ____
ROOT
ATOM      1  C   LIG    1        1.580  -2.804   5.436  0.00  0.00    +0.089 C 
ATOM      2  C   LIG    1        2.243  -3.600   6.530  0.00  0.00    -0.023 A 
ATOM      3  C   LIG    1        3.077  -4.649   6.168  0.00  0.00    +0.054 A 
ATOM      4  C   LIG    1        3.704  -5.412   7.136  0.00  0.00    +0.162 A 
ATOM      5  C   LIG    1        3.497  -5.123   8.482  0.00  0.00    +0.162 A 
ATOM      6  C   LIG    1        2.667  -4.075   8.839  0.00  0.00    +0.053 A 
ATOM      7  C   LIG    1        2.042  -3.312   7.863  0.00  0.00    -0.038 A 
ATOM      8  C   LIG    1        1.156  -2.174   8.301  0.00  0.00    +0.050 C 
ATOM      9  C   LIG    1        0.258  -1.736   7.145  0.00  0.00    +0.086 C 
ATOM     10  N   LIG    1        1.098  -1.521   5.956  0.00  0.00    -0.309 NA
ATOM     11  H   LIG    1        1.868  -0.903   6.165  0.00  0.00    +0.123 HD
ENDROOT
BRANCH   4  12
ATOM     12  O   LIG    1        4.519  -6.438   6.776  0.00  0.00    -0.491 OA
ATOM     13  C   LIG    1        4.684  -6.675   5.376  0.00  0.00    +0.277 C 
ENDBRANCH   4  12
BRANCH   5  14
ATOM     14  O   LIG    1        4.107  -5.868   9.443  0.00  0.00    -0.491 OA
ATOM     15  C   LIG    1        3.847  -5.513  10.802  0.00  0.00    +0.277 C 
ENDBRANCH   5  14
BRANCH   1  16
ATOM     16  C   LIG    1        2.590  -2.548   4.315  0.00  0.00    +0.058 C 
BRANCH  16  20
ATOM     17  C   LIG    1        0.626  -0.619   1.042  0.00  0.00    +0.161 A 
ATOM     18  C   LIG    1        1.202   0.137   2.051  0.00  0.00    +0.049 A 
ATOM     19  C   LIG    1        1.836  -0.490   3.108  0.00  0.00    +0.007 A 
ATOM     20  C   LIG    1        1.897  -1.870   3.161  0.00  0.00    -0.042 A 
ATOM     21  C   LIG    1        1.325  -2.630   2.158  0.00  0.00    +0.053 A 
ATOM     22  C   LIG    1        0.683  -2.008   1.099  0.00  0.00    +0.162 A 
BRANCH  17  24
ATOM     23  C   LIG    1       -0.017   1.425   0.010  0.00  0.00    +0.277 C 
ATOM     24  O   LIG    1        0.002  -0.004   0.002  0.00  0.00    -0.491 OA
ENDBRANCH  17  24
BRANCH  22  25
ATOM     25  O   LIG    1        0.115  -2.754   0.114  0.00  0.00    -0.491 OA
ATOM     26  C   LIG    1        0.211  -4.174   0.238  0.00  0.00    +0.277 C 
ENDBRANCH  22  25
ENDBRANCH  16  20
ENDBRANCH   1  16
TORSDOF 6
