REMARK  Name = ZINC13808146
REMARK                            x       y       z     vdW  Elec       q    Type
REMARK                         _______ _______ _______ _____ _____    ______ ____
ROOT
ATOM      1  S   LIG    1        1.232  -2.441  -0.022  0.00  0.00    +0.086 S 
ATOM      2  O   LIG    1        2.477  -2.827  -0.588  0.00  0.00    -0.151 OA
ATOM      3  O   LIG    1       -0.013  -2.861  -0.562  0.00  0.00    -0.151 OA
ENDROOT
BRANCH   1   8
ATOM      4  C   LIG    1       -0.017   1.378   0.010  0.00  0.00    +0.004 A 
ATOM      5  C   LIG    1        1.171   2.085   0.002  0.00  0.00    +0.033 A 
ATOM      6  C   LIG    1        2.377   1.411  -0.013  0.00  0.00    +0.123 A 
ATOM      7  C   LIG    1        2.396   0.028  -0.020  0.00  0.00    +0.061 A 
ATOM      8  C   LIG    1        1.209  -0.679  -0.012  0.00  0.00    +0.110 A 
ATOM      9  C   LIG    1        0.002  -0.004   0.002  0.00  0.00    +0.029 A 
BRANCH   6  10
ATOM     10  N   LIG    1        3.649   2.168  -0.022  0.00  0.00    +0.006 N 
ATOM     11  O   LIG    1        3.633   3.377  -0.016  0.00  0.00    -0.130 OA
BRANCH  10  12
ATOM     12  O   LIG    1        4.704   1.578  -0.035  0.00  0.00    -0.396 OA
ATOM     13  H   LIG    1        4.717   0.641  -0.040  0.00  0.00    +0.329 HD
ENDBRANCH  10  12
ENDBRANCH   6  10
ENDBRANCH   1   8
BRANCH   1  14
ATOM     14  N   LIG    1        1.256  -2.939   1.557  0.00  0.00    -0.050 NA
ATOM     15  H   LIG    1        1.994  -3.476   1.885  0.00  0.00    +0.191 HD
BRANCH  14  16
ATOM     16  N   LIG    1        0.209  -2.586   2.419  0.00  0.00    -0.182 N 
ATOM     17  H   LIG    1       -0.031  -1.653   2.534  0.00  0.00    +0.285 HD
BRANCH  16  18
ATOM     18  C   LIG    1       -0.478  -3.562   3.102  0.00  0.00    +0.394 C 
ATOM     19  N   LIG    1       -0.156  -4.815   2.947  0.00  0.00    -0.128 NA
ATOM     20  H   LIG    1        0.569  -5.060   2.351  0.00  0.00    +0.306 HD
BRANCH  18  21
ATOM     21  N   LIG    1       -1.505  -3.215   3.947  0.00  0.00    -0.288 N 
ATOM     22  H   LIG    1       -1.990  -3.903   4.429  0.00  0.00    +0.255 HD
ATOM     23  H   LIG    1       -1.745  -2.282   4.062  0.00  0.00    +0.255 HD
ENDBRANCH  18  21
ENDBRANCH  16  18
ENDBRANCH  14  16
ENDBRANCH   1  14
TORSDOF 7
