REMARK  Name = ZINC27440858
REMARK                            x       y       z     vdW  Elec       q    Type
REMARK                         _______ _______ _______ _____ _____    ______ ____
ROOT
ATOM      1  C   LIG    1        1.311   0.489   1.048  0.00  0.00    +0.272 C 
ATOM      2  C   LIG    1        2.230  -0.538   1.713  0.00  0.00    +0.144 C 
ATOM      3  N   LIG    1        2.197  -0.347   3.170  0.00  0.00    -0.283 NA
ATOM      4  C   LIG    1        2.622   1.014   3.527  0.00  0.00    +0.113 C 
ATOM      5  C   LIG    1        1.699   2.026   2.844  0.00  0.00    +0.178 C 
ATOM      6  O   LIG    1        1.719   1.806   1.430  0.00  0.00    -0.348 OA
ENDROOT
BRANCH   2   7
ATOM      7  C   LIG    1        1.757  -1.929   1.376  0.00  0.00    -0.025 A 
ATOM      8  C   LIG    1        0.624  -2.439   1.983  0.00  0.00    +0.008 A 
ATOM      9  C   LIG    1        0.189  -3.714   1.674  0.00  0.00    +0.038 A 
ATOM     10  C   LIG    1        0.888  -4.481   0.757  0.00  0.00    +0.123 A 
ATOM     11  F   LIG    1        0.464  -5.727   0.455  0.00  0.00    -0.205 F 
ATOM     12  C   LIG    1        2.022  -3.969   0.150  0.00  0.00    +0.038 A 
ATOM     13  C   LIG    1        2.453  -2.692   0.456  0.00  0.00    +0.008 A 
ENDBRANCH   2   7
BRANCH   1  14
ATOM     14  O   LIG    1       -0.037   0.267   1.469  0.00  0.00    -0.342 OA
BRANCH  14  16
ATOM     15  C   LIG    1       -1.230   2.368   1.435  0.00  0.00    +0.043 C 
ATOM     16  C   LIG    1       -1.005   1.024   0.740  0.00  0.00    +0.148 C 
BRANCH  16  17
ATOM     17  C   LIG    1       -2.304   0.261   0.689  0.00  0.00    -0.018 A 
ATOM     18  C   LIG    1       -2.748  -0.423   1.806  0.00  0.00    +0.018 A 
ATOM     19  C   LIG    1       -3.939  -1.123   1.759  0.00  0.00    +0.056 A 
ATOM     20  C   LIG    1       -4.687  -1.138   0.597  0.00  0.00    +0.024 A 
ATOM     21  C   LIG    1       -4.244  -0.453  -0.519  0.00  0.00    +0.056 A 
ATOM     22  C   LIG    1       -3.055   0.250  -0.471  0.00  0.00    +0.018 A 
BRANCH  19  23
ATOM     23  C   LIG    1       -4.422  -1.869   2.976  0.00  0.00    +0.417 C 
ATOM     24  F   LIG    1       -3.323  -2.298   3.727  0.00  0.00    -0.166 F 
ATOM     25  F   LIG    1       -5.173  -2.979   2.574  0.00  0.00    -0.166 F 
ATOM     26  F   LIG    1       -5.219  -1.025   3.756  0.00  0.00    -0.166 F 
ENDBRANCH  19  23
BRANCH  21  27
ATOM     27  C   LIG    1       -5.059  -0.470  -1.786  0.00  0.00    +0.417 C 
ATOM     28  F   LIG    1       -4.300  -1.025  -2.822  0.00  0.00    -0.166 F 
ATOM     29  F   LIG    1       -5.423   0.838  -2.124  0.00  0.00    -0.166 F 
ATOM     30  F   LIG    1       -6.211  -1.238  -1.590  0.00  0.00    -0.166 F 
ENDBRANCH  21  27
ENDBRANCH  16  17
ENDBRANCH  14  16
ENDBRANCH   1  14
BRANCH   3  31
ATOM     31  C   LIG    1        3.024  -1.352   3.852  0.00  0.00    +0.142 C 
BRANCH  31  32
ATOM     32  C   LIG    1        2.854  -1.216   5.343  0.00  0.00    +0.071 A 
ATOM     33  N   LIG    1        3.700  -0.606   6.205  0.00  0.00    -0.260 N 
ATOM     34  H   LIG    1        4.535  -0.173   5.971  0.00  0.00    +0.190 HD
ATOM     35  N   LIG    1        3.204  -0.697   7.389  0.00  0.00    -0.068 NA
ATOM     36  N   LIG    1        2.088  -1.337   7.355  0.00  0.00    -0.136 NA
ATOM     37  C   LIG    1        1.826  -1.683   6.090  0.00  0.00    +0.071 A 
BRANCH  37  38
ATOM     38  C   LIG    1        0.624  -2.444   5.594  0.00  0.00    -0.019 C 
BRANCH  38  39
ATOM     39  N   LIG    1        0.853  -3.885   5.759  0.00  0.00    +0.380 N 
ATOM     40  H   LIG    1        1.084  -4.081   6.722  0.00  0.00    -0.082 HD
ATOM     41  C   LIG    1        1.963  -4.306   4.894  0.00  0.00    -0.096 C 
ATOM     42  C   LIG    1       -0.363  -4.621   5.388  0.00  0.00    -0.096 C 
ENDBRANCH  38  39
ENDBRANCH  37  38
ENDBRANCH  31  32
ENDBRANCH   3  31
TORSDOF 10
