REMARK  Name = ZINC49881746
REMARK                            x       y       z     vdW  Elec       q    Type
REMARK                         _______ _______ _______ _____ _____    ______ ____
ROOT
ATOM      1  C   LIG    1        4.458 -14.691  -7.615  0.00  0.00    +0.228 C 
ATOM      2  O   LIG    1        4.983 -15.286  -8.534  0.00  0.00    -0.281 OA
ENDROOT
BRANCH   1   3
ATOM      3  C   LIG    1        3.826 -15.460  -6.483  0.00  0.00    +0.187 C 
ATOM      4  C   LIG    1        4.763 -15.488  -5.249  0.00  0.00    +0.194 C 
ATOM      5  O   LIG    1        4.343 -16.693  -4.569  0.00  0.00    -0.354 OA
ATOM      6  C   LIG    1        4.048 -17.640  -5.609  0.00  0.00    +0.136 C 
ATOM      7  C   LIG    1        2.868 -18.519  -5.188  0.00  0.00    +0.063 C 
ATOM      8  C   LIG    1        5.274 -18.516  -5.873  0.00  0.00    +0.063 C 
ATOM      9  N   LIG    1        3.695 -16.892  -6.831  0.00  0.00    -0.226 N 
ATOM     10  C   LIG    1        3.329 -17.406  -8.021  0.00  0.00    +0.406 C 
ATOM     11  O   LIG    1        3.261 -18.610  -8.168  0.00  0.00    -0.226 OA
BRANCH  10  12
ATOM     12  O   LIG    1        3.038 -16.585  -9.048  0.00  0.00    -0.444 OA
BRANCH  12  13
ATOM     13  C   LIG    1        2.657 -17.199 -10.282  0.00  0.00    +0.107 C 
ATOM     14  C   LIG    1        3.795 -18.093 -10.779  0.00  0.00    +0.055 C 
ATOM     15  C   LIG    1        2.368 -16.115 -11.322  0.00  0.00    +0.055 C 
ATOM     16  C   LIG    1        1.401 -18.045 -10.064  0.00  0.00    +0.055 C 
ENDBRANCH  12  13
ENDBRANCH  10  12
ENDBRANCH   1   3
BRANCH   1  18
ATOM     17  C   LIG    1        4.423 -12.086  -7.601  0.00  0.00    -0.094 C 
ATOM     18  C   LIG    1        4.439 -13.259  -7.607  0.00  0.00    -0.027 C 
BRANCH  17  19
ATOM     19  C   LIG    1        4.403 -10.614  -7.593  0.00  0.00    +0.089 C 
BRANCH  19  20
ATOM     20  C   LIG    1        3.687 -10.120  -6.334  0.00  0.00    +0.013 C 
BRANCH  20  21
ATOM     21  C   LIG    1        3.666  -8.591  -6.326  0.00  0.00    +0.001 C 
BRANCH  21  22
ATOM     22  C   LIG    1        2.950  -8.097  -5.067  0.00  0.00    +0.000 C 
BRANCH  22  23
ATOM     23  C   LIG    1        2.929  -6.567  -5.058  0.00  0.00    +0.000 C 
BRANCH  23  24
ATOM     24  C   LIG    1        2.213  -6.074  -3.800  0.00  0.00    +0.000 C 
BRANCH  24  25
ATOM     25  C   LIG    1        2.192  -4.544  -3.791  0.00  0.00    -0.000 C 
BRANCH  25  26
ATOM     26  C   LIG    1        1.476  -4.051  -2.532  0.00  0.00    -0.000 C 
BRANCH  26  27
ATOM     27  C   LIG    1        1.455  -2.521  -2.524  0.00  0.00    -0.000 C 
BRANCH  27  28
ATOM     28  C   LIG    1        0.739  -2.027  -1.265  0.00  0.00    -0.000 C 
BRANCH  28  29
ATOM     29  C   LIG    1        0.718  -0.497  -1.257  0.00  0.00    -0.000 C 
BRANCH  29  31
ATOM     30  C   LIG    1       -0.019   1.526   0.010  0.00  0.00    +0.004 C 
ATOM     31  C   LIG    1        0.002  -0.004   0.002  0.00  0.00    -0.003 C 
ENDBRANCH  29  31
ENDBRANCH  28  29
ENDBRANCH  27  28
ENDBRANCH  26  27
ENDBRANCH  25  26
ENDBRANCH  24  25
ENDBRANCH  23  24
ENDBRANCH  22  23
ENDBRANCH  21  22
ENDBRANCH  20  21
ENDBRANCH  19  20
ENDBRANCH  17  19
ENDBRANCH   1  18
TORSDOF 16
