REMARK  Name = ZINC22937855
REMARK                            x       y       z     vdW  Elec       q    Type
REMARK                         _______ _______ _______ _____ _____    ______ ____
ROOT
ATOM      1  C   LIG    1        0.238   2.392   2.566  0.00  0.00    +0.051 C 
ATOM      2  C   LIG    1       -0.884   2.005   1.580  0.00  0.00    +0.036 C 
ATOM      3  C   LIG    1       -0.091   1.555   0.335  0.00  0.00    +0.088 C 
ATOM      4  C   LIG    1        1.225   2.299   0.413  0.00  0.00    -0.026 A 
ATOM      5  C   LIG    1        2.181   2.536  -0.560  0.00  0.00    +0.017 A 
ATOM      6  C   LIG    1        3.323   3.251  -0.253  0.00  0.00    +0.055 A 
ATOM      7  C   LIG    1        3.512   3.732   1.029  0.00  0.00    +0.012 A 
ATOM      8  C   LIG    1        2.559   3.497   2.001  0.00  0.00    +0.005 A 
ATOM      9  C   LIG    1        1.414   2.780   1.695  0.00  0.00    -0.035 A 
ENDROOT
BRANCH   1  16
ATOM     10  C   LIG    1       -0.575   4.746   2.816  0.00  0.00    +0.007 A 
ATOM     11  C   LIG    1       -0.975   5.816   3.593  0.00  0.00    +0.038 A 
ATOM     12  C   LIG    1       -0.981   5.705   4.973  0.00  0.00    +0.123 A 
ATOM     13  F   LIG    1       -1.366   6.752   5.735  0.00  0.00    -0.205 F 
ATOM     14  C   LIG    1       -0.592   4.519   5.573  0.00  0.00    +0.038 A 
ATOM     15  C   LIG    1       -0.198   3.448   4.793  0.00  0.00    +0.007 A 
ATOM     16  C   LIG    1       -0.192   3.560   3.415  0.00  0.00    -0.040 A 
ENDBRANCH   1  16
BRANCH   3  17
ATOM     17  N   LIG    1       -0.811   1.921  -0.892  0.00  0.00    -0.293 NA
ATOM     18  C   LIG    1       -1.042   3.371  -0.954  0.00  0.00    +0.100 C 
ATOM     19  C   LIG    1       -1.723   3.721  -2.279  0.00  0.00    +0.100 C 
ATOM     20  N   LIG    1       -2.990   2.983  -2.386  0.00  0.00    -0.298 NA
ATOM     21  C   LIG    1       -2.759   1.534  -2.324  0.00  0.00    +0.100 C 
ATOM     22  C   LIG    1       -2.078   1.184  -0.998  0.00  0.00    +0.100 C 
BRANCH  20  23
ATOM     23  C   LIG    1       -3.710   3.350  -3.612  0.00  0.00    +0.112 C 
BRANCH  23  24
ATOM     24  C   LIG    1       -5.186   2.971  -3.469  0.00  0.00    +0.171 C 
BRANCH  24  25
ATOM     25  O   LIG    1       -5.772   3.729  -2.409  0.00  0.00    -0.394 OA
ATOM     26  H   LIG    1       -6.833   3.592  -2.156  0.00  0.00    +0.209 HD
ENDBRANCH  24  25
ENDBRANCH  23  24
ENDBRANCH  20  23
ENDBRANCH   3  17
BRANCH   6  27
ATOM     27  C   LIG    1        4.361   3.506  -1.315  0.00  0.00    +0.417 C 
ATOM     28  F   LIG    1        4.354   2.454  -2.236  0.00  0.00    -0.166 F 
ATOM     29  F   LIG    1        5.624   3.596  -0.720  0.00  0.00    -0.166 F 
ATOM     30  F   LIG    1        4.069   4.705  -1.974  0.00  0.00    -0.166 F 
ENDBRANCH   6  27
TORSDOF 6
