REMARK  Name = ZINC13820638
REMARK                            x       y       z     vdW  Elec       q    Type
REMARK                         _______ _______ _______ _____ _____    ______ ____
ROOT
ATOM      1  C   LIG    1        3.652   2.177  -0.021  0.00  0.00    +0.248 C 
ATOM      2  N   LIG    1        3.629   3.525  -0.014  0.00  0.00    -0.309 N 
ATOM      3  H   LIG    1        2.781   3.995  -0.004  0.00  0.00    +0.149 HD
ATOM      4  O   LIG    1        4.715   1.587  -0.034  0.00  0.00    -0.270 OA
ENDROOT
BRANCH   2   5
ATOM      5  C   LIG    1        4.886   4.278  -0.022  0.00  0.00    +0.070 C 
ATOM      6  C   LIG    1        5.399   4.433   1.412  0.00  0.00    +0.004 C 
ATOM      7  C   LIG    1        6.678   5.273   1.403  0.00  0.00    -0.077 C 
ATOM      8  N   LIG    1        6.374   6.604   0.836  0.00  0.00    +0.382 N 
ATOM      9  H   LIG    1        5.612   7.030   1.376  0.00  0.00    -0.081 HD
ATOM     10  C   LIG    1        5.947   6.470  -0.573  0.00  0.00    -0.077 C 
ATOM     11  C   LIG    1        4.646   5.666  -0.623  0.00  0.00    +0.004 C 
BRANCH   8  12
ATOM     12  C   LIG    1        7.567   7.473   0.921  0.00  0.00    -0.043 C 
BRANCH  12  13
ATOM     13  C   LIG    1        7.848   7.769   2.372  0.00  0.00    -0.064 A 
ATOM     14  C   LIG    1        7.265   8.866   2.979  0.00  0.00    +0.002 A 
ATOM     15  C   LIG    1        7.519   9.135   4.311  0.00  0.00    +0.000 A 
ATOM     16  C   LIG    1        8.365   8.313   5.033  0.00  0.00    +0.000 A 
ATOM     17  C   LIG    1        8.952   7.220   4.424  0.00  0.00    +0.000 A 
ATOM     18  C   LIG    1        8.694   6.948   3.094  0.00  0.00    +0.002 A 
ENDBRANCH  12  13
ENDBRANCH   8  12
ENDBRANCH   2   5
BRANCH   1  23
ATOM     19  C   LIG    1        1.206  -0.687  -0.013  0.00  0.00    +0.162 A 
ATOM     20  C   LIG    1        0.002  -0.004   0.002  0.00  0.00    +0.049 A 
ATOM     21  C   LIG    1       -0.017   1.381   0.010  0.00  0.00    +0.005 A 
ATOM     22  C   LIG    1        1.163   2.093   0.002  0.00  0.00    +0.017 A 
ATOM     23  C   LIG    1        2.387   1.418  -0.013  0.00  0.00    +0.082 A 
ATOM     24  C   LIG    1        2.406   0.018  -0.020  0.00  0.00    +0.174 A 
BRANCH  19  26
ATOM     25  C   LIG    1       -0.051  -2.706  -0.010  0.00  0.00    +0.277 C 
ATOM     26  O   LIG    1        1.217  -2.047  -0.019  0.00  0.00    -0.491 OA
ENDBRANCH  19  26
BRANCH  24  27
ATOM     27  O   LIG    1        3.589  -0.648  -0.035  0.00  0.00    -0.491 OA
ATOM     28  C   LIG    1        4.142  -0.960  -1.314  0.00  0.00    +0.277 C 
ENDBRANCH  24  27
ENDBRANCH   1  23
TORSDOF 6
