REMARK  Name = ZINC26961992
REMARK                            x       y       z     vdW  Elec       q    Type
REMARK                         _______ _______ _______ _____ _____    ______ ____
ROOT
ATOM      1  C   LIG    1        0.337   3.758   1.782  0.00  0.00    +0.122 C 
ATOM      2  C   LIG    1        1.436   3.067   2.271  0.00  0.00    +0.044 C 
ATOM      3  C   LIG    1        2.522   3.792   2.774  0.00  0.00    +0.044 C 
ATOM      4  C   LIG    1        2.448   5.194   2.760  0.00  0.00    +0.025 C 
ATOM      5  C   LIG    1        1.319   5.800   2.257  0.00  0.00    +0.083 C 
ATOM      6  N   LIG    1        0.315   5.083   1.785  0.00  0.00    -0.301 NA
ATOM      7  H   LIG    1       -0.559   5.619   1.386  0.00  0.00    +0.123 HD
ENDROOT
BRANCH   3   8
ATOM      8  C   LIG    1        3.712   3.102   3.304  0.00  0.00    +0.071 A 
ATOM      9  C   LIG    1        5.034   3.409   3.041  0.00  0.00    +0.070 A 
ATOM     10  N   LIG    1        5.800   2.536   3.721  0.00  0.00    -0.333 N 
ATOM     11  C   LIG    1        5.035   1.701   4.385  0.00  0.00    +0.167 A 
ATOM     12  H   LIG    1        6.896   2.602   3.659  0.00  0.00    +0.168 HD
ATOM     13  N   LIG    1        3.729   2.017   4.163  0.00  0.00    -0.226 NA
BRANCH   9  14
ATOM     14  C   LIG    1        5.520   4.503   2.168  0.00  0.00    +0.000 A 
ATOM     15  C   LIG    1        4.814   4.843   1.014  0.00  0.00    +0.013 A 
ATOM     16  C   LIG    1        5.268   5.866   0.207  0.00  0.00    +0.039 A 
ATOM     17  C   LIG    1        6.428   6.548   0.536  0.00  0.00    +0.123 A 
ATOM     18  F   LIG    1        6.872   7.545  -0.261  0.00  0.00    -0.205 F 
ATOM     19  C   LIG    1        7.135   6.211   1.679  0.00  0.00    +0.039 A 
ATOM     20  C   LIG    1        6.687   5.193   2.495  0.00  0.00    +0.013 A 
ENDBRANCH   9  14
BRANCH  11  21
ATOM     21  S   LIG    1        5.607   0.385   5.407  0.00  0.00    -0.091 S 
ATOM     22  C   LIG    1        7.395   0.601   5.225  0.00  0.00    +0.093 C 
ENDBRANCH  11  21
ENDBRANCH   3   8
BRANCH   1  23
ATOM     23  N   LIG    1       -0.750   3.053   1.278  0.00  0.00    -0.295 NA
ATOM     24  H   LIG    1       -1.625   3.595   0.889  0.00  0.00    +0.124 HD
BRANCH  23  26
ATOM     25  C   LIG    1       -0.016   1.098   0.004  0.00  0.00    +0.029 C 
ATOM     26  C   LIG    1       -0.731   1.588   1.265  0.00  0.00    +0.082 C 
BRANCH  26  27
ATOM     27  C   LIG    1       -2.145   1.067   1.275  0.00  0.00    -0.031 A 
ATOM     28  C   LIG    1       -3.120   1.699   0.526  0.00  0.00    +0.005 A 
ATOM     29  C   LIG    1       -4.416   1.219   0.531  0.00  0.00    +0.000 A 
ATOM     30  C   LIG    1       -4.740   0.112   1.294  0.00  0.00    +0.000 A 
ATOM     31  C   LIG    1       -3.766  -0.516   2.048  0.00  0.00    +0.000 A 
ATOM     32  C   LIG    1       -2.469  -0.038   2.039  0.00  0.00    +0.005 A 
ENDBRANCH  26  27
ENDBRANCH  23  26
ENDBRANCH   1  23
TORSDOF 6
