REMARK  Name = ZINC00068846
REMARK                            x       y       z     vdW  Elec       q    Type
REMARK                         _______ _______ _______ _____ _____    ______ ____
ROOT
ATOM      1  C   LIG    1       -0.985  -2.644  -0.002  0.00  0.00    +0.146 C 
ATOM      2  C   LIG    1       -2.208  -3.581  -0.067  0.00  0.00    +0.120 C 
ATOM      3  C   LIG    1       -2.112  -4.379   1.214  0.00  0.00    +0.224 C 
ATOM      4  N   LIG    1       -1.032  -3.983   1.900  0.00  0.00    -0.237 N 
ATOM      5  O   LIG    1       -2.888  -5.242   1.565  0.00  0.00    -0.275 OA
ATOM      6  C   LIG    1       -0.322  -3.010   1.307  0.00  0.00    +0.236 C 
ATOM      7  O   LIG    1        0.688  -2.505   1.749  0.00  0.00    -0.274 OA
ENDROOT
BRANCH   1   8
ATOM      8  S   LIG    1       -1.511  -0.907   0.012  0.00  0.00    -0.112 S 
BRANCH   8  15
ATOM      9  C   LIG    1       -0.017   1.385   0.010  0.00  0.00    +0.016 A 
ATOM     10  C   LIG    1        1.170   2.091   0.002  0.00  0.00    +0.021 A 
ATOM     11  C   LIG    1        2.378   1.415  -0.013  0.00  0.00    +0.041 A 
ATOM     12 CL   LIG    1        3.869   2.305  -0.023  0.00  0.00    -0.084 Cl
ATOM     13  C   LIG    1        2.400   0.031  -0.021  0.00  0.00    +0.021 A 
ATOM     14  C   LIG    1        1.216  -0.680  -0.013  0.00  0.00    +0.016 A 
ATOM     15  C   LIG    1        0.002  -0.004   0.002  0.00  0.00    +0.009 A 
ENDBRANCH   8  15
ENDBRANCH   1   8
BRANCH   4  16
ATOM     16  C   LIG    1       -0.656  -4.564   3.191  0.00  0.00    +0.151 C 
BRANCH  16  17
ATOM     17  C   LIG    1        0.258  -5.740   2.965  0.00  0.00    -0.027 A 
ATOM     18  C   LIG    1       -0.256  -7.018   2.803  0.00  0.00    +0.025 A 
ATOM     19  C   LIG    1        0.613  -8.072   2.598  0.00  0.00    +0.111 A 
ATOM     20  N   LIG    1        1.916  -7.874   2.556  0.00  0.00    -0.263 NA
ATOM     21  C   LIG    1        2.440  -6.674   2.706  0.00  0.00    +0.111 A 
ATOM     22  C   LIG    1        1.633  -5.570   2.909  0.00  0.00    +0.025 A 
ENDBRANCH  16  17
ENDBRANCH   4  16
TORSDOF 4
