REMARK  Name = ZINC13781534
REMARK                            x       y       z     vdW  Elec       q    Type
REMARK                         _______ _______ _______ _____ _____    ______ ____
ROOT
ATOM      1  C   LIG    1        1.185   2.058   0.002  0.00  0.00    +0.124 A 
ATOM      2  C   LIG    1        2.354   1.315  -0.008  0.00  0.00    +0.046 A 
ATOM      3  C   LIG    1        3.575   1.961  -0.021  0.00  0.00    +0.004 A 
ATOM      4  C   LIG    1        3.623   3.340  -0.010  0.00  0.00    +0.004 A 
ATOM      5  C   LIG    1        2.453   4.089   0.010  0.00  0.00    -0.042 A 
ATOM      6  C   LIG    1        2.578   5.587   0.042  0.00  0.00    +0.020 C 
ATOM      7  C   LIG    1        1.269   6.260  -0.382  0.00  0.00    -0.064 C 
ATOM      8  N   LIG    1        1.401   7.705  -0.093  0.00  0.00    +0.381 N 
ATOM      9  H   LIG    1        2.176   8.089  -0.646  0.00  0.00    -0.086 HD
ATOM     10  H   LIG    1        1.599   7.832   0.906  0.00  0.00    -0.086 HD
ATOM     11  C   LIG    1        0.159   8.426  -0.436  0.00  0.00    -0.082 C 
ATOM     12  C   LIG    1       -0.983   7.903   0.440  0.00  0.00    -0.019 C 
ATOM     13  C   LIG    1       -1.176   6.413   0.157  0.00  0.00    +0.000 C 
ATOM     14  C   LIG    1        0.126   5.655   0.440  0.00  0.00    -0.020 C 
ATOM     15  C   LIG    1       -0.070   4.201   0.002  0.00  0.00    +0.041 C 
ATOM     16  C   LIG    1        1.234   3.451   0.009  0.00  0.00    -0.002 A 
ENDROOT
BRANCH   1  18
ATOM     17  C   LIG    1        0.002  -0.004   0.002  0.00  0.00    +0.277 C 
ATOM     18  O   LIG    1       -0.017   1.425   0.010  0.00  0.00    -0.495 OA
ENDBRANCH   1  18
TORSDOF 1
