REMARK  Name = ZINC19203912
REMARK                            x       y       z     vdW  Elec       q    Type
REMARK                         _______ _______ _______ _____ _____    ______ ____
ROOT
ATOM      1  C   LIG    1        3.444  -4.977   0.037  0.00  0.00    +0.002 A 
ATOM      2  C   LIG    1        4.386  -4.577   0.965  0.00  0.00    +0.001 A 
ATOM      3  C   LIG    1        4.279  -3.336   1.567  0.00  0.00    +0.017 A 
ATOM      4  C   LIG    1        3.227  -2.493   1.241  0.00  0.00    +0.034 A 
ATOM      5  C   LIG    1        2.273  -2.893   0.310  0.00  0.00    +0.048 A 
ATOM      6  N   LIG    1        1.194  -2.083  -0.035  0.00  0.00    -0.298 N 
ATOM      7  C   LIG    1        1.171  -0.696   0.085  0.00  0.00    +0.048 A 
ATOM      8  C   LIG    1        0.302   0.033  -0.721  0.00  0.00    +0.037 A 
ATOM      9  C   LIG    1        0.250   1.411  -0.624  0.00  0.00    +0.057 A 
ATOM     10  C   LIG    1        1.060   2.076   0.277  0.00  0.00    +0.013 A 
ATOM     11  C   LIG    1        1.929   1.362   1.081  0.00  0.00    +0.017 A 
ATOM     12  C   LIG    1        1.989  -0.021   0.988  0.00  0.00    +0.034 A 
ATOM     13  S   LIG    1        3.110  -0.914   2.013  0.00  0.00    -0.086 S 
ATOM     14  C   LIG    1        2.393  -4.142  -0.291  0.00  0.00    +0.024 A 
ENDROOT
BRANCH   9  15
ATOM     15  C   LIG    1       -0.695   2.190  -1.502  0.00  0.00    +0.417 C 
ATOM     16  F   LIG    1       -0.878   1.508  -2.710  0.00  0.00    -0.166 F 
ATOM     17  F   LIG    1       -0.156   3.455  -1.758  0.00  0.00    -0.166 F 
ATOM     18  F   LIG    1       -1.927   2.330  -0.854  0.00  0.00    -0.166 F 
ENDBRANCH   9  15
BRANCH   6  19
ATOM     19  C   LIG    1       -0.004  -2.738  -0.563  0.00  0.00    +0.112 C 
BRANCH  19  20
ATOM     20  C   LIG    1        0.100  -2.841  -2.086  0.00  0.00    +0.035 C 
BRANCH  20  21
ATOM     21  C   LIG    1       -1.152  -3.526  -2.638  0.00  0.00    +0.086 C 
BRANCH  21  22
ATOM     22  N   LIG    1       -1.051  -3.625  -4.100  0.00  0.00    -0.300 NA
ATOM     23  C   LIG    1       -1.081  -2.294  -4.722  0.00  0.00    +0.100 C 
ATOM     24  C   LIG    1       -0.894  -2.436  -6.234  0.00  0.00    +0.100 C 
ATOM     25  N   LIG    1       -1.958  -3.293  -6.779  0.00  0.00    -0.298 NA
ATOM     26  C   LIG    1       -1.928  -4.624  -6.157  0.00  0.00    +0.100 C 
ATOM     27  C   LIG    1       -2.114  -4.482  -4.644  0.00  0.00    +0.100 C 
BRANCH  25  28
ATOM     28  C   LIG    1       -1.857  -3.392  -8.241  0.00  0.00    +0.112 C 
BRANCH  28  29
ATOM     29  C   LIG    1       -3.109  -4.077  -8.793  0.00  0.00    +0.171 C 
BRANCH  29  30
ATOM     30  O   LIG    1       -4.250  -3.252  -8.548  0.00  0.00    -0.394 OA
ATOM     31  H   LIG    1       -5.082  -3.624  -8.872  0.00  0.00    +0.209 HD
ENDBRANCH  29  30
ENDBRANCH  28  29
ENDBRANCH  25  28
ENDBRANCH  21  22
ENDBRANCH  20  21
ENDBRANCH  19  20
ENDBRANCH   6  19
TORSDOF 8
