REMARK  Name = ZINC13808108
REMARK                            x       y       z     vdW  Elec       q    Type
REMARK                         _______ _______ _______ _____ _____    ______ ____
ROOT
ATOM      1  C   LIG    1        2.451   0.660  -4.347  0.00  0.00    +0.188 A 
ATOM      2  C   LIG    1        1.636   1.154  -5.350  0.00  0.00    +0.191 A 
ATOM      3  F   LIG    1        0.391   0.657  -5.514  0.00  0.00    -0.200 F 
ATOM      4  C   LIG    1        2.097   2.159  -6.186  0.00  0.00    +0.198 A 
ATOM      5  F   LIG    1        1.301   2.641  -7.166  0.00  0.00    -0.199 F 
ATOM      6  C   LIG    1        3.374   2.668  -6.018  0.00  0.00    +0.199 A 
ATOM      7  F   LIG    1        3.824   3.647  -6.833  0.00  0.00    -0.199 F 
ATOM      8  C   LIG    1        4.190   2.173  -5.013  0.00  0.00    +0.198 A 
ATOM      9  F   LIG    1        5.436   2.669  -4.848  0.00  0.00    -0.199 F 
ATOM     10  C   LIG    1        3.726   1.172  -4.175  0.00  0.00    +0.191 A 
ATOM     11  F   LIG    1        4.519   0.693  -3.191  0.00  0.00    -0.200 F 
ENDROOT
BRANCH   1  12
ATOM     12  S   LIG    1        1.865  -0.617  -3.284  0.00  0.00    +0.109 S 
ATOM     13  O   LIG    1        0.845  -1.302  -3.998  0.00  0.00    -0.146 OA
ATOM     14  O   LIG    1        3.013  -1.280  -2.773  0.00  0.00    -0.146 OA
BRANCH  12  16
ATOM     15  C   LIG    1        0.602  -0.604  -1.049  0.00  0.00    +0.298 C 
ATOM     16  N   LIG    1        1.129   0.117  -1.996  0.00  0.00    -0.076 NA
BRANCH  15  17
ATOM     17  N   LIG    1        0.656  -1.974  -1.120  0.00  0.00    -0.312 N 
ATOM     18  H   LIG    1        1.087  -2.405  -1.875  0.00  0.00    +0.147 HD
ATOM     19  H   LIG    1        0.263  -2.512  -0.414  0.00  0.00    +0.147 HD
ENDBRANCH  15  17
BRANCH  15  21
ATOM     20  C   LIG    1       -0.017   1.425   0.010  0.00  0.00    +0.280 C 
ATOM     21  O   LIG    1        0.002  -0.004   0.002  0.00  0.00    -0.468 OA
ENDBRANCH  15  21
ENDBRANCH  12  16
ENDBRANCH   1  12
TORSDOF 4
