REMARK  Name = ZINC19874821
REMARK                            x       y       z     vdW  Elec       q    Type
REMARK                         _______ _______ _______ _____ _____    ______ ____
ROOT
ATOM      1  C   LIG    1        0.312  -2.679   2.607  0.00  0.00    +0.350 C 
ATOM      2  N   LIG    1        0.514  -2.037   3.723  0.00  0.00    -0.291 N 
ATOM      3  H   LIG    1        0.601  -2.591   4.669  0.00  0.00    +0.255 HD
ATOM      4  H   LIG    1        0.598  -0.940   3.718  0.00  0.00    +0.255 HD
ENDROOT
BRANCH   1   5
ATOM      5  N   LIG    1        0.207  -4.053   2.613  0.00  0.00    -0.214 N 
ATOM      6  H   LIG    1        0.207  -4.601   3.567  0.00  0.00    +0.268 HD
BRANCH   5  13
ATOM      7  C   LIG    1       -0.256  -3.916  -2.157  0.00  0.00    +0.066 C 
ATOM      8  C   LIG    1       -0.121  -4.696  -0.875  0.00  0.00    +0.045 A 
ATOM      9  C   LIG    1       -0.104  -6.082  -0.895  0.00  0.00    +0.046 A 
ATOM     10  C   LIG    1        0.022  -6.761   0.307  0.00  0.00    +0.045 A 
ATOM     11  C   LIG    1        0.046  -8.267   0.333  0.00  0.00    +0.066 C 
ATOM     12  N   LIG    1        0.121  -6.070   1.430  0.00  0.00    -0.203 NA
ATOM     13  C   LIG    1        0.101  -4.746   1.415  0.00  0.00    +0.292 A 
ATOM     14  N   LIG    1       -0.024  -4.067   0.285  0.00  0.00    -0.203 NA
ENDBRANCH   5  13
ENDBRANCH   1   5
BRANCH   1  15
ATOM     15  N   LIG    1        0.202  -1.986   1.425  0.00  0.00    -0.278 N 
ATOM     16  H   LIG    1        0.124  -2.531   0.473  0.00  0.00    +0.258 HD
BRANCH  15  17
ATOM     17  C   LIG    1        0.190  -0.521   1.433  0.00  0.00    +0.202 C 
BRANCH  17  18
ATOM     18  C   LIG    1        0.060  -0.004  -0.001  0.00  0.00    +0.091 C 
BRANCH  18  19
ATOM     19  C   LIG    1        0.047   1.502   0.007  0.00  0.00    +0.038 A 
ATOM     20  C   LIG    1        1.122   2.315   0.011  0.00  0.00    +0.133 A 
ATOM     21  N   LIG    1        0.684   3.582   0.018  0.00  0.00    -0.244 NA
ATOM     22  C   LIG    1       -0.621   3.587   0.017  0.00  0.00    +0.196 A 
ATOM     23  N   LIG    1       -1.059   2.309   0.005  0.00  0.00    -0.348 N 
ATOM     24  H   LIG    1       -2.064   1.863  -0.004  0.00  0.00    +0.166 HD
ENDBRANCH  18  19
ENDBRANCH  17  18
ENDBRANCH  15  17
ENDBRANCH   1  15
TORSDOF 6
