REMARK  Name = ZINC16052628
REMARK                            x       y       z     vdW  Elec       q    Type
REMARK                         _______ _______ _______ _____ _____    ______ ____
ROOT
ATOM      1  C   LIG    1        0.597  -0.578  -1.391  0.00  0.00    -0.038 C 
ATOM      2  C   LIG    1       -0.213  -0.245  -0.135  0.00  0.00    +0.024 C 
ATOM      3  C   LIG    1       -0.458   1.264  -0.077  0.00  0.00    +0.107 C 
ATOM      4  N   LIG    1        0.830   1.970  -0.052  0.00  0.00    -0.315 N 
ATOM      5  C   LIG    1        1.605   1.703  -1.270  0.00  0.00    +0.107 C 
ATOM      6  C   LIG    1        1.911   0.207  -1.364  0.00  0.00    +0.024 C 
ENDROOT
BRANCH   4   7
ATOM      7  C   LIG    1        0.647   3.328   0.132  0.00  0.00    +0.134 A 
ATOM      8  C   LIG    1        1.745   4.200   0.195  0.00  0.00    +0.059 A 
ATOM      9  C   LIG    1        3.196   4.047   0.096  0.00  0.00    +0.032 A 
ATOM     10  C   LIG    1        3.725   5.274   0.227  0.00  0.00    +0.085 A 
ATOM     11  N   LIG    1        2.725   6.196   0.396  0.00  0.00    -0.346 N 
ATOM     12  H   LIG    1        2.861   7.150   0.512  0.00  0.00    +0.167 HD
ATOM     13  C   LIG    1        1.507   5.574   0.378  0.00  0.00    +0.143 A 
ATOM     14  N   LIG    1        0.247   5.992   0.496  0.00  0.00    -0.218 NA
ATOM     15  C   LIG    1       -0.752   5.138   0.436  0.00  0.00    +0.225 A 
ATOM     16  N   LIG    1       -0.573   3.841   0.260  0.00  0.00    -0.220 NA
ENDBRANCH   4   7
BRANCH   1  17
ATOM     17  C   LIG    1        0.895  -2.078  -1.425  0.00  0.00    +0.040 C 
BRANCH  17  24
ATOM     18  C   LIG    1        1.180  -2.695  -3.834  0.00  0.00    +0.005 A 
ATOM     19  C   LIG    1        1.975  -2.976  -4.929  0.00  0.00    +0.020 A 
ATOM     20  C   LIG    1        3.353  -2.966  -4.805  0.00  0.00    +0.041 A 
ATOM     21 CL   LIG    1        4.351  -3.326  -6.178  0.00  0.00    -0.084 Cl
ATOM     22  C   LIG    1        3.935  -2.668  -3.585  0.00  0.00    +0.020 A 
ATOM     23  C   LIG    1        3.139  -2.381  -2.492  0.00  0.00    +0.005 A 
ATOM     24  C   LIG    1        1.762  -2.391  -2.617  0.00  0.00    -0.047 A 
ENDBRANCH  17  24
ENDBRANCH   1  17
BRANCH   1  25
ATOM     25  C   LIG    1       -0.205  -0.188  -2.635  0.00  0.00    -0.079 C 
BRANCH  25  26
ATOM     26  N   LIG    1       -1.424  -1.014  -2.695  0.00  0.00    +0.378 N 
ATOM     27  H   LIG    1       -1.165  -2.005  -2.612  0.00  0.00    -0.090 HD
ATOM     28  H   LIG    1       -1.902  -0.868  -3.582  0.00  0.00    -0.090 HD
ATOM     29  H   LIG    1       -2.049  -0.770  -1.929  0.00  0.00    -0.090 HD
ENDBRANCH  25  26
ENDBRANCH   1  25
TORSDOF 5
