REMARK  Name = ZINC19708474
REMARK                            x       y       z     vdW  Elec       q    Type
REMARK                         _______ _______ _______ _____ _____    ______ ____
ROOT
ATOM      1  C   LIG    1        1.186   2.164   0.002  0.00  0.00    +0.005 A 
ATOM      2  C   LIG    1        1.104   3.558   0.011  0.00  0.00    +0.033 A 
ATOM      3  C   LIG    1       -0.136   4.163   0.026  0.00  0.00    +0.047 A 
ATOM      4  N   LIG    1       -1.248   3.452   0.033  0.00  0.00    -0.236 NA
ATOM      5  C   LIG    1       -1.235   2.128   0.019  0.00  0.00    +0.135 A 
ATOM      6  C   LIG    1       -0.017   1.428   0.010  0.00  0.00    +0.099 A 
ENDROOT
BRANCH   1  13
ATOM      7  C   LIG    1        3.466   1.843  -0.950  0.00  0.00    +0.011 A 
ATOM      8  C   LIG    1        4.689   1.205  -0.958  0.00  0.00    +0.039 A 
ATOM      9  C   LIG    1        4.953   0.195  -0.046  0.00  0.00    +0.123 A 
ATOM     10  F   LIG    1        6.150  -0.431  -0.061  0.00  0.00    -0.205 F 
ATOM     11  C   LIG    1        3.992  -0.174   0.882  0.00  0.00    +0.039 A 
ATOM     12  C   LIG    1        2.768   0.461   0.902  0.00  0.00    +0.011 A 
ATOM     13  C   LIG    1        2.498   1.478  -0.014  0.00  0.00    -0.016 A 
ENDBRANCH   1  13
BRANCH   3  14
ATOM     14  C   LIG    1       -0.223   5.668   0.035  0.00  0.00    +0.038 C 
ATOM     15  C   LIG    1        1.041   6.446   0.407  0.00  0.00    +0.010 C 
ATOM     16  C   LIG    1       -0.130   6.373   1.390  0.00  0.00    +0.010 C 
ENDBRANCH   3  14
BRANCH   5  17
ATOM     17  N   LIG    1       -2.430   1.430   0.021  0.00  0.00    -0.342 N 
ATOM     18  H   LIG    1       -3.386   1.974   0.033  0.00  0.00    +0.144 HD
ATOM     19  H   LIG    1       -2.424   0.330   0.009  0.00  0.00    +0.144 HD
ENDBRANCH   5  17
BRANCH   6  20
ATOM     20  C   LIG    1        0.002  -0.004   0.002  0.00  0.00    +0.103 C 
ATOM     21  N   LIG    1        0.018  -1.140  -0.004  0.00  0.00    -0.191 NA
ENDBRANCH   6  20
TORSDOF 4
