REMARK  Name = ZINC20315097
REMARK                            x       y       z     vdW  Elec       q    Type
REMARK                         _______ _______ _______ _____ _____    ______ ____
ROOT
ATOM      1  C   LIG    1        0.058  -4.245  -0.021  0.00  0.00    +0.171 C 
ATOM      2  O   LIG    1        0.060  -4.846  -1.075  0.00  0.00    -0.292 OA
ENDROOT
BRANCH   1   7
ATOM      3  C   LIG    1       -0.018   1.503   0.010  0.00  0.00    +0.044 C 
ATOM      4  C   LIG    1        0.002  -0.004   0.002  0.00  0.00    -0.050 A 
ATOM      5  C   LIG    1        0.006  -0.686  -1.202  0.00  0.00    +0.004 A 
ATOM      6  C   LIG    1        0.024  -2.064  -1.218  0.00  0.00    +0.011 A 
ATOM      7  C   LIG    1        0.039  -2.774  -0.013  0.00  0.00    +0.018 A 
ATOM      8  C   LIG    1        0.036  -2.078   1.200  0.00  0.00    +0.011 A 
ATOM      9  C   LIG    1        0.023  -0.699   1.199  0.00  0.00    +0.004 A 
ENDBRANCH   1   7
BRANCH   1  10
ATOM     10  C   LIG    1        0.075  -5.006   1.280  0.00  0.00    +0.166 C 
BRANCH  10  11
ATOM     11  C   LIG    1        0.092  -6.486   0.996  0.00  0.00    +0.246 C 
ATOM     12  O   LIG    1        0.092  -6.882  -0.145  0.00  0.00    -0.285 OA
BRANCH  11  13
ATOM     13  C   LIG    1        0.111  -7.463   2.126  0.00  0.00    +0.373 C 
ATOM     14  O   LIG    1        0.125  -8.661   1.896  0.00  0.00    -0.242 OA
BRANCH  13  15
ATOM     15  O   LIG    1        0.112  -7.062   3.279  0.00  0.00    -0.475 OA
ATOM     16  H   LIG    1        0.100  -6.142   3.455  0.00  0.00    +0.295 HD
ENDBRANCH  13  15
ENDBRANCH  11  13
ENDBRANCH  10  11
ENDBRANCH   1  10
TORSDOF 5
