REMARK  Name = ZINC14964411
REMARK                            x       y       z     vdW  Elec       q    Type
REMARK                         _______ _______ _______ _____ _____    ______ ____
ROOT
ATOM      1  C   LIG    1        0.669   1.449   0.440  0.00  0.00    +0.044 C 
ATOM      2  C   LIG    1        0.507  -0.045   0.317  0.00  0.00    -0.050 A 
ATOM      3  C   LIG    1        0.410  -0.627  -0.937  0.00  0.00    +0.005 A 
ATOM      4  C   LIG    1        0.261  -1.992  -1.065  0.00  0.00    +0.025 A 
ATOM      5  C   LIG    1        0.208  -2.796   0.067  0.00  0.00    +0.062 A 
ATOM      6  C   LIG    1        0.306  -2.209   1.341  0.00  0.00    +0.081 A 
ATOM      7  C   LIG    1        0.462  -0.823   1.452  0.00  0.00    +0.020 A 
ENDROOT
BRANCH   5   8
ATOM      8  N   LIG    1        0.058  -4.169  -0.058  0.00  0.00    -0.215 N 
ATOM      9  H   LIG    1       -0.469  -4.661   0.591  0.00  0.00    +0.174 HD
BRANCH   8  10
ATOM     10  S   LIG    1        0.779  -4.969  -1.316  0.00  0.00    +0.072 S 
ATOM     11  O   LIG    1        0.369  -4.309  -2.506  0.00  0.00    -0.150 OA
ATOM     12  O   LIG    1        0.556  -6.355  -1.098  0.00  0.00    -0.150 OA
BRANCH  10  13
ATOM     13  C   LIG    1        2.516  -4.710  -1.170  0.00  0.00    +0.108 A 
ATOM     14  C   LIG    1        3.107  -3.622  -1.785  0.00  0.00    +0.029 A 
ATOM     15  C   LIG    1        4.470  -3.419  -1.671  0.00  0.00    +0.002 A 
ATOM     16  C   LIG    1        5.241  -4.304  -0.941  0.00  0.00    +0.000 A 
ATOM     17  C   LIG    1        4.651  -5.391  -0.325  0.00  0.00    +0.002 A 
ATOM     18  C   LIG    1        3.287  -5.592  -0.436  0.00  0.00    +0.029 A 
ENDBRANCH  10  13
ENDBRANCH   8  10
ENDBRANCH   5   8
BRANCH   6  19
ATOM     19  C   LIG    1        0.251  -3.047   2.548  0.00  0.00    +0.339 C 
ATOM     20  O   LIG    1        0.336  -2.532   3.654  0.00  0.00    -0.245 OA
BRANCH  19  21
ATOM     21  O   LIG    1        0.119  -4.260   2.446  0.00  0.00    -0.477 OA
ATOM     22  H   LIG    1        0.054  -4.654   1.598  0.00  0.00    +0.295 HD
ENDBRANCH  19  21
ENDBRANCH   6  19
TORSDOF 5
