REMARK  Name = ZINC36487839
REMARK                            x       y       z     vdW  Elec       q    Type
REMARK                         _______ _______ _______ _____ _____    ______ ____
ROOT
ATOM      1  C   LIG    1        2.310  -8.358  -4.229  0.00  0.00    +0.219 C 
ATOM      2  N   LIG    1        1.901  -9.569  -4.657  0.00  0.00    -0.265 N 
ATOM      3  H   LIG    1        1.409 -10.154  -4.059  0.00  0.00    +0.157 HD
ATOM      4  O   LIG    1        2.924  -7.627  -4.976  0.00  0.00    -0.275 OA
ENDROOT
BRANCH   2   5
ATOM      5  C   LIG    1        2.183  -9.979  -5.954  0.00  0.00    +0.165 A 
ATOM      6  N   LIG    1        2.835  -9.341  -6.908  0.00  0.00    -0.224 NA
ATOM      7  C   LIG    1        3.015  -9.887  -8.101  0.00  0.00    +0.084 A 
ATOM      8  C   LIG    1        2.516 -11.135  -8.351  0.00  0.00    +0.023 A 
ATOM      9  S   LIG    1        1.765 -11.512  -6.772  0.00  0.00    -0.056 S 
BRANCH   7  10
ATOM     10  C   LIG    1        3.752  -9.151  -9.158  0.00  0.00    +0.001 A 
ATOM     11  C   LIG    1        4.711  -9.807  -9.928  0.00  0.00    +0.010 A 
ATOM     12  C   LIG    1        5.393  -9.117 -10.910  0.00  0.00    +0.001 A 
ATOM     13  C   LIG    1        5.127  -7.777 -11.129  0.00  0.00    +0.000 A 
ATOM     14  C   LIG    1        4.177  -7.122 -10.367  0.00  0.00    +0.001 A 
ATOM     15  C   LIG    1        3.484  -7.803  -9.387  0.00  0.00    +0.010 A 
ENDBRANCH   7  10
BRANCH   8  16
ATOM     16  C   LIG    1        2.584 -11.965  -9.606  0.00  0.00    +0.079 C 
BRANCH  16  17
ATOM     17  C   LIG    1        1.316 -11.780 -10.400  0.00  0.00    -0.042 A 
ATOM     18  C   LIG    1        0.202 -12.546 -10.111  0.00  0.00    +0.004 A 
ATOM     19  C   LIG    1       -0.961 -12.376 -10.839  0.00  0.00    +0.000 A 
ATOM     20  C   LIG    1       -1.010 -11.440 -11.856  0.00  0.00    +0.000 A 
ATOM     21  C   LIG    1        0.105 -10.674 -12.144  0.00  0.00    +0.000 A 
ATOM     22  C   LIG    1        1.266 -10.841 -11.413  0.00  0.00    +0.004 A 
ENDBRANCH  16  17
ENDBRANCH   8  16
ENDBRANCH   2   5
BRANCH   1  23
ATOM     23  C   LIG    1        2.004  -7.914  -2.821  0.00  0.00    +0.104 C 
BRANCH  23  24
ATOM     24  C   LIG    1        2.575  -6.513  -2.594  0.00  0.00    +0.089 C 
BRANCH  24  25
ATOM     25  C   LIG    1        2.269  -6.069  -1.186  0.00  0.00    +0.164 C 
ATOM     26  O   LIG    1        1.655  -6.800  -0.439  0.00  0.00    -0.292 OA
BRANCH  25  31
ATOM     27  C   LIG    1        3.557  -2.259   0.168  0.00  0.00    +0.162 A 
ATOM     28  C   LIG    1        2.974  -3.152   1.059  0.00  0.00    +0.053 A 
ATOM     29  C   LIG    1        2.555  -4.389   0.624  0.00  0.00    -0.036 A 
ATOM     30  C   LIG    1        1.925  -5.355   1.593  0.00  0.00    +0.044 C 
ATOM     31  C   LIG    1        2.715  -4.749  -0.720  0.00  0.00    +0.024 A 
ATOM     32  C   LIG    1        3.302  -3.848  -1.617  0.00  0.00    +0.061 A 
ATOM     33  C   LIG    1        3.714  -2.608  -1.173  0.00  0.00    +0.163 A 
BRANCH  27  34
ATOM     34  O   LIG    1        3.969  -1.041   0.603  0.00  0.00    -0.489 OA
BRANCH  34  36
ATOM     35  C   LIG    1        4.298   0.659   2.289  0.00  0.00    +0.048 C 
ATOM     36  C   LIG    1        3.777  -0.748   1.989  0.00  0.00    +0.226 C 
ENDBRANCH  34  36
ENDBRANCH  27  34
BRANCH  33  37
ATOM     37  O   LIG    1        4.280  -1.729  -2.043  0.00  0.00    -0.489 OA
BRANCH  37  38
ATOM     38  C   LIG    1        4.410  -2.152  -3.401  0.00  0.00    +0.226 C 
ATOM     39  C   LIG    1        5.063  -1.039  -4.222  0.00  0.00    +0.048 C 
ENDBRANCH  37  38
ENDBRANCH  33  37
ENDBRANCH  25  31
ENDBRANCH  24  25
ENDBRANCH  23  24
ENDBRANCH   1  23
TORSDOF 12
