REMARK  Name = ZINC22448983
REMARK                            x       y       z     vdW  Elec       q    Type
REMARK                         _______ _______ _______ _____ _____    ______ ____
ROOT
ATOM      1  C   LIG    1       -2.487   0.214  -0.913  0.00  0.00    +0.164 A 
ATOM      2  C   LIG    1       -1.335  -0.533  -0.825  0.00  0.00    +0.077 A 
ATOM      3  C   LIG    1       -0.110   0.104  -0.573  0.00  0.00    +0.077 A 
ATOM      4  C   LIG    1       -0.084   1.511  -0.412  0.00  0.00    +0.026 A 
ATOM      5  C   LIG    1        1.152   2.150  -0.158  0.00  0.00    +0.060 A 
ATOM      6  C   LIG    1        2.300   1.347  -0.077  0.00  0.00    +0.091 A 
ATOM      7  C   LIG    1        2.180  -0.042  -0.249  0.00  0.00    +0.132 A 
ATOM      8  C   LIG    1       -1.274   2.248  -0.501  0.00  0.00    +0.061 A 
ATOM      9  N   LIG    1        1.024  -0.607  -0.484  0.00  0.00    -0.253 NA
ATOM     10  C   LIG    1       -2.453   1.606  -0.752  0.00  0.00    +0.162 A 
ENDROOT
BRANCH   5  11
ATOM     11  N   LIG    1        1.226   3.519   0.005  0.00  0.00    -0.312 N 
ATOM     12  H   LIG    1        0.333   4.086   0.305  0.00  0.00    +0.152 HD
BRANCH  11  13
ATOM     13  C   LIG    1        2.437   4.184  -0.212  0.00  0.00    +0.053 A 
ATOM     14  C   LIG    1        3.104   4.777   0.851  0.00  0.00    +0.071 A 
ATOM     15  C   LIG    1        4.304   5.435   0.632  0.00  0.00    +0.140 A 
ATOM     16  C   LIG    1        4.837   5.499  -0.648  0.00  0.00    +0.084 A 
ATOM     17 CL   LIG    1        6.340   6.324  -0.921  0.00  0.00    -0.080 Cl
ATOM     18  C   LIG    1        4.172   4.907  -1.706  0.00  0.00    +0.045 A 
ATOM     19  C   LIG    1        2.977   4.246  -1.491  0.00  0.00    +0.064 A 
ATOM     20 CL   LIG    1        2.148   3.498  -2.821  0.00  0.00    -0.082 Cl
BRANCH  15  21
ATOM     21  O   LIG    1        4.959   6.018   1.672  0.00  0.00    -0.494 OA
ATOM     22  C   LIG    1        4.415   5.815   2.977  0.00  0.00    +0.277 C 
ENDBRANCH  15  21
ENDBRANCH  11  13
ENDBRANCH   5  11
BRANCH   6  23
ATOM     23  C   LIG    1        3.579   1.937   0.178  0.00  0.00    +0.103 C 
ATOM     24  N   LIG    1        4.594   2.405   0.381  0.00  0.00    -0.191 NA
ENDBRANCH   6  23
BRANCH  10  25
ATOM     25  O   LIG    1       -3.604   2.324  -0.843  0.00  0.00    -0.491 OA
ATOM     26  C   LIG    1       -3.502   3.739  -0.669  0.00  0.00    +0.277 C 
ENDBRANCH  10  25
BRANCH   1  27
ATOM     27  O   LIG    1       -3.672  -0.405  -1.157  0.00  0.00    -0.488 OA
BRANCH  27  28
ATOM     28  C   LIG    1       -3.642  -1.825  -1.311  0.00  0.00    +0.227 C 
BRANCH  28  29
ATOM     29  C   LIG    1       -5.058  -2.339  -1.578  0.00  0.00    +0.022 C 
BRANCH  29  30
ATOM     30  C   LIG    1       -5.027  -3.860  -1.743  0.00  0.00    -0.075 C 
BRANCH  30  35
ATOM     31  C   LIG    1      -10.014  -6.510  -1.816  0.00  0.00    +0.104 C 
ATOM     32  N   LIG    1       -8.654  -6.017  -1.559  0.00  0.00    -0.309 NA
ATOM     33  C   LIG    1       -7.790  -6.221  -2.731  0.00  0.00    +0.065 C 
ATOM     34  C   LIG    1       -6.367  -5.768  -2.397  0.00  0.00    -0.063 C 
ATOM     35  N   LIG    1       -6.386  -4.353  -1.999  0.00  0.00    +0.381 N 
ATOM     36  H   LIG    1       -6.804  -3.771  -2.834  0.00  0.00    -0.082 HD
ATOM     37  C   LIG    1       -7.250  -4.149  -0.828  0.00  0.00    -0.063 C 
ATOM     38  C   LIG    1       -8.673  -4.602  -1.162  0.00  0.00    +0.065 C 
ENDBRANCH  30  35
ENDBRANCH  29  30
ENDBRANCH  28  29
ENDBRANCH  27  28
ENDBRANCH   1  27
TORSDOF 10
