REMARK  Name = ZINC14984346
REMARK                            x       y       z     vdW  Elec       q    Type
REMARK                         _______ _______ _______ _____ _____    ______ ____
ROOT
ATOM      1  C   LIG    1        7.277   1.286   3.483  0.00  0.00    +0.185 C 
ATOM      2  C   LIG    1        6.513  -0.019   3.695  0.00  0.00    +0.052 C 
ATOM      3  C   LIG    1        6.466  -0.314   5.200  0.00  0.00    +0.012 C 
ATOM      4  C   LIG    1        7.889  -0.403   5.755  0.00  0.00    +0.012 C 
ATOM      5  C   LIG    1        5.729   0.818   5.867  0.00  0.00    -0.020 C 
ATOM      6  C   LIG    1        5.795   2.048   5.391  0.00  0.00    -0.044 C 
ATOM      7  C   LIG    1        4.965   3.107   6.010  0.00  0.00    -0.000 C 
ATOM      8  C   LIG    1        4.762   4.243   5.364  0.00  0.00    -0.023 C 
ATOM      9  C   LIG    1        5.339   4.559   4.018  0.00  0.00    +0.012 C 
ATOM     10  C   LIG    1        4.288   5.296   3.185  0.00  0.00    +0.012 C 
ATOM     11  C   LIG    1        5.765   3.291   3.275  0.00  0.00    +0.007 C 
ATOM     12  C   LIG    1        6.630   2.442   4.209  0.00  0.00    +0.063 C 
ENDROOT
BRANCH   1  13
ATOM     13  O   LIG    1        8.635   1.123   3.970  0.00  0.00    -0.461 OA
BRANCH  13  14
ATOM     14  C   LIG    1        9.537   0.631   3.106  0.00  0.00    +0.310 C 
ATOM     15  O   LIG    1        9.203   0.347   1.980  0.00  0.00    -0.251 OA
BRANCH  14  16
ATOM     16  C   LIG    1       10.967   0.434   3.540  0.00  0.00    +0.094 C 
ATOM     17  C   LIG    1       11.013  -0.542   4.717  0.00  0.00    +0.019 C 
BRANCH  16  19
ATOM     18  C   LIG    1       13.255  -0.217   2.775  0.00  0.00    +0.004 C 
ATOM     19  C   LIG    1       11.780  -0.134   2.375  0.00  0.00    +0.011 C 
ENDBRANCH  16  19
ENDBRANCH  14  16
ENDBRANCH  13  14
ENDBRANCH   1  13
BRANCH  11  20
ATOM     20  C   LIG    1        4.524   2.497   2.861  0.00  0.00    +0.008 C 
BRANCH  20  21
ATOM     21  C   LIG    1        3.605   2.321   4.071  0.00  0.00    +0.045 C 
BRANCH  21  22
ATOM     22  C   LIG    1        2.302   1.651   3.629  0.00  0.00    +0.179 C 
ATOM     23  C   LIG    1        1.430   1.368   4.855  0.00  0.00    +0.076 C 
ATOM     24  C   LIG    1        0.105   0.746   4.404  0.00  0.00    +0.129 C 
ATOM     25  C   LIG    1       -0.613   1.727   3.469  0.00  0.00    +0.152 C 
ATOM     26  C   LIG    1        0.346   2.129   2.371  0.00  0.00    +0.310 C 
ATOM     27  O   LIG    1        0.014   2.088   1.210  0.00  0.00    -0.251 OA
ATOM     28  O   LIG    1        1.583   2.536   2.725  0.00  0.00    -0.461 OA
BRANCH  24  29
ATOM     29  O   LIG    1       -0.714   0.485   5.545  0.00  0.00    -0.391 OA
ATOM     30  H   LIG    1       -1.574   0.097   5.332  0.00  0.00    +0.210 HD
ENDBRANCH  24  29
ENDBRANCH  21  22
ENDBRANCH  20  21
ENDBRANCH  11  20
TORSDOF 8
