REMARK  Name = ZINC20248660
REMARK                            x       y       z     vdW  Elec       q    Type
REMARK                         _______ _______ _______ _____ _____    ______ ____
ROOT
ATOM      1  N   LIG    1        0.963  -2.021  -3.584  0.00  0.00    +0.384 N 
ATOM      2  H   LIG    1       -0.010  -2.531  -3.528  0.00  0.00    -0.081 HD
ATOM      3  C   LIG    1        1.725  -2.363  -2.375  0.00  0.00    -0.063 C 
ATOM      4  C   LIG    1        0.939  -1.924  -1.138  0.00  0.00    +0.066 C 
ATOM      5  N   LIG    1        0.690  -0.478  -1.207  0.00  0.00    -0.306 NA
ATOM      6  C   LIG    1       -0.073  -0.135  -2.415  0.00  0.00    +0.066 C 
ATOM      7  C   LIG    1        0.713  -0.574  -3.653  0.00  0.00    -0.063 C 
ENDROOT
BRANCH   1   8
ATOM      8  C   LIG    1        1.650  -2.494  -4.792  0.00  0.00    -0.043 C 
BRANCH   8  12
ATOM      9  C   LIG    1       -0.945  -2.080  -8.162  0.00  0.00    +0.120 A 
ATOM     10  C   LIG    1       -0.097  -1.041  -7.806  0.00  0.00    +0.046 A 
ATOM     11  C   LIG    1        0.741  -1.177  -6.716  0.00  0.00    +0.005 A 
ATOM     12  C   LIG    1        0.735  -2.348  -5.981  0.00  0.00    -0.064 A 
ATOM     13  C   LIG    1       -0.104  -3.387  -6.337  0.00  0.00    +0.005 A 
ATOM     14  C   LIG    1       -0.948  -3.253  -7.423  0.00  0.00    +0.046 A 
BRANCH   9  16
ATOM     15  C   LIG    1       -2.615  -3.058  -9.542  0.00  0.00    +0.277 C 
ATOM     16  O   LIG    1       -1.770  -1.948  -9.234  0.00  0.00    -0.495 OA
ENDBRANCH   9  16
ENDBRANCH   8  12
ENDBRANCH   1   8
BRANCH   5  17
ATOM     17  C   LIG    1        0.002  -0.004   0.002  0.00  0.00    +0.084 C 
BRANCH  17  18
ATOM     18  C   LIG    1       -0.019   1.526   0.010  0.00  0.00    +0.020 C 
BRANCH  18  19
ATOM     19  C   LIG    1       -0.735   2.019   1.269  0.00  0.00    +0.036 C 
BRANCH  19  20
ATOM     20  C   LIG    1       -0.755   3.526   1.278  0.00  0.00    -0.047 A 
ATOM     21  C   LIG    1        0.275   4.228   1.875  0.00  0.00    +0.003 A 
ATOM     22  C   LIG    1        0.259   5.610   1.878  0.00  0.00    +0.000 A 
ATOM     23  C   LIG    1       -0.793   6.290   1.293  0.00  0.00    +0.000 A 
ATOM     24  C   LIG    1       -1.826   5.588   0.701  0.00  0.00    +0.000 A 
ATOM     25  C   LIG    1       -1.807   4.206   0.693  0.00  0.00    +0.003 A 
ENDBRANCH  19  20
ENDBRANCH  18  19
ENDBRANCH  17  18
ENDBRANCH   5  17
TORSDOF 7
