REMARK  Name = ZINC14960000
REMARK                            x       y       z     vdW  Elec       q    Type
REMARK                         _______ _______ _______ _____ _____    ______ ____
ROOT
ATOM      1  C   LIG    1       -0.237  -4.796  -0.561  0.00  0.00    +0.263 C 
ATOM      2  N   LIG    1       -0.861  -4.229  -1.612  0.00  0.00    -0.306 N 
ATOM      3  H   LIG    1       -0.917  -3.264  -1.680  0.00  0.00    +0.149 HD
ATOM      4  O   LIG    1       -0.167  -6.007  -0.476  0.00  0.00    -0.269 OA
ENDROOT
BRANCH   1  10
ATOM      5  C   LIG    1        0.802  -1.822   1.305  0.00  0.00    +0.236 A 
ATOM      6  C   LIG    1        1.459  -2.342   2.416  0.00  0.00    +0.123 A 
ATOM      7 CL   LIG    1        2.139  -1.281   3.610  0.00  0.00    -0.076 Cl
ATOM      8  C   LIG    1        1.565  -3.722   2.558  0.00  0.00    +0.051 A 
ATOM      9  C   LIG    1        1.004  -4.536   1.573  0.00  0.00    +0.057 A 
ATOM     10  C   LIG    1        0.363  -3.944   0.492  0.00  0.00    +0.131 A 
ATOM     11  N   LIG    1        0.278  -2.621   0.395  0.00  0.00    -0.207 NA
BRANCH   8  12
ATOM     12  N   LIG    1        2.217  -4.278   3.656  0.00  0.00    -0.357 N 
ATOM     13  H   LIG    1        2.284  -5.242   3.744  0.00  0.00    +0.142 HD
ATOM     14  H   LIG    1        2.603  -3.702   4.334  0.00  0.00    +0.142 HD
ENDBRANCH   8  12
BRANCH   5  15
ATOM     15  O   LIG    1        0.693  -0.477   1.160  0.00  0.00    -0.476 OA
BRANCH  15  17
ATOM     16  C   LIG    1       -0.019   1.526   0.010  0.00  0.00    +0.048 C 
ATOM     17  C   LIG    1        0.002  -0.004   0.002  0.00  0.00    +0.227 C 
ENDBRANCH  15  17
ENDBRANCH   5  15
ENDBRANCH   1  10
BRANCH   2  18
ATOM     18  C   LIG    1       -1.454  -5.072  -2.653  0.00  0.00    +0.140 C 
BRANCH  18  19
ATOM     19  C   LIG    1       -2.085  -4.199  -3.708  0.00  0.00    -0.030 A 
ATOM     20  C   LIG    1       -3.406  -3.812  -3.584  0.00  0.00    +0.007 A 
ATOM     21  C   LIG    1       -3.985  -3.011  -4.552  0.00  0.00    +0.027 A 
ATOM     22  C   LIG    1       -3.241  -2.598  -5.641  0.00  0.00    +0.088 A 
ATOM     23  C   LIG    1       -1.920  -2.984  -5.764  0.00  0.00    +0.027 A 
ATOM     24  C   LIG    1       -1.340  -3.781  -4.795  0.00  0.00    +0.007 A 
BRANCH  22  25
ATOM     25  S   LIG    1       -3.979  -1.578  -6.875  0.00  0.00    -0.006 S 
ATOM     26  C   LIG    1       -3.675   0.121  -6.318  0.00  0.00    +0.200 C 
ATOM     27  O   LIG    1       -5.367  -1.874  -6.807  0.00  0.00    -0.170 OA
ATOM     28  O   LIG    1       -3.238  -1.846  -8.057  0.00  0.00    -0.170 OA
ENDBRANCH  22  25
ENDBRANCH  18  19
ENDBRANCH   2  18
TORSDOF 7
