REMARK  Name = ZINC28571624
REMARK                            x       y       z     vdW  Elec       q    Type
REMARK                         _______ _______ _______ _____ _____    ______ ____
ROOT
ATOM      1  N   LIG    1        0.715  -3.772  -1.532  0.00  0.00    -0.281 N 
ATOM      2  H   LIG    1        0.845  -4.488  -0.891  0.00  0.00    +0.155 HD
ATOM      3  C   LIG    1        0.740  -4.036  -2.853  0.00  0.00    +0.248 C 
ATOM      4  O   LIG    1        0.491  -3.155  -3.654  0.00  0.00    -0.270 OA
ENDROOT
BRANCH   1   9
ATOM      5  C   LIG    1       -0.164   1.537   0.277  0.00  0.00    +0.045 C 
ATOM      6  C   LIG    1        0.071   0.128  -0.202  0.00  0.00    -0.029 A 
ATOM      7  C   LIG    1       -0.619  -0.352  -1.299  0.00  0.00    +0.007 A 
ATOM      8  C   LIG    1       -0.407  -1.643  -1.741  0.00  0.00    +0.024 A 
ATOM      9  C   LIG    1        0.502  -2.464  -1.084  0.00  0.00    +0.035 A 
ATOM     10  C   LIG    1        1.196  -1.985   0.018  0.00  0.00    +0.047 A 
ATOM     11  C   LIG    1        0.985  -0.685   0.456  0.00  0.00    +0.038 A 
BRANCH  11  12
ATOM     12  N   LIG    1        1.687  -0.197   1.562  0.00  0.00    -0.283 N 
ATOM     13  H   LIG    1        1.866   0.753   1.642  0.00  0.00    +0.155 HD
BRANCH  12  14
ATOM     14  C   LIG    1        2.128  -1.069   2.543  0.00  0.00    +0.220 A 
ATOM     15  N   LIG    1        1.776  -2.346   2.478  0.00  0.00    -0.223 NA
ATOM     16  C   LIG    1        2.178  -3.211   3.395  0.00  0.00    +0.116 A 
ATOM     17  C   LIG    1        2.976  -2.771   4.436  0.00  0.00    +0.048 A 
ATOM     18  C   LIG    1        3.331  -1.421   4.479  0.00  0.00    +0.079 A 
ATOM     19  N   LIG    1        2.895  -0.609   3.518  0.00  0.00    -0.214 NA
BRANCH  18  20
ATOM     20  C   LIG    1        4.186  -0.901   5.574  0.00  0.00    +0.037 A 
ATOM     21  C   LIG    1        4.657  -1.748   6.580  0.00  0.00    +0.124 A 
ATOM     22  N   LIG    1        5.417  -1.243   7.538  0.00  0.00    -0.243 NA
ATOM     23  C   LIG    1        5.729   0.038   7.551  0.00  0.00    +0.221 A 
ATOM     24  N   LIG    1        5.304   0.871   6.622  0.00  0.00    -0.243 NA
ATOM     25  C   LIG    1        4.546   0.449   5.625  0.00  0.00    +0.124 A 
ENDBRANCH  18  20
ENDBRANCH  12  14
ENDBRANCH  11  12
ENDBRANCH   1   9
BRANCH   3  26
ATOM     26  C   LIG    1        1.071  -5.396  -3.329  0.00  0.00    +0.038 A 
ATOM     27  C   LIG    1        1.352  -6.410  -2.412  0.00  0.00    +0.013 A 
ATOM     28  C   LIG    1        1.660  -7.677  -2.862  0.00  0.00    +0.006 A 
ATOM     29  C   LIG    1        1.690  -7.943  -4.220  0.00  0.00    -0.022 A 
ATOM     30  C   LIG    1        1.413  -6.942  -5.134  0.00  0.00    +0.060 A 
ATOM     31  C   LIG    1        1.098  -5.672  -4.696  0.00  0.00    +0.025 A 
BRANCH  30  32
ATOM     32  C   LIG    1        1.449  -7.242  -6.611  0.00  0.00    +0.418 C 
ATOM     33  F   LIG    1        0.515  -8.239  -6.907  0.00  0.00    -0.166 F 
ATOM     34  F   LIG    1        2.729  -7.681  -6.966  0.00  0.00    -0.166 F 
ATOM     35  F   LIG    1        1.137  -6.082  -7.329  0.00  0.00    -0.166 F 
ENDBRANCH  30  32
BRANCH  29  36
ATOM     36  C   LIG    1        2.027  -9.330  -4.705  0.00  0.00    +0.120 C 
BRANCH  36  37
ATOM     37  N   LIG    1        3.434  -9.373  -5.126  0.00  0.00    -0.300 NA
ATOM     38  C   LIG    1        4.339  -9.331  -3.957  0.00  0.00    +0.083 C 
ATOM     39  C   LIG    1        5.565 -10.195  -4.303  0.00  0.00    +0.001 C 
ATOM     40  C   LIG    1        5.282 -10.748  -5.719  0.00  0.00    -0.054 C 
ATOM     41  C   LIG    1        3.740 -10.644  -5.830  0.00  0.00    +0.069 C 
BRANCH  40  42
ATOM     42  N   LIG    1        5.722 -12.146  -5.829  0.00  0.00    +0.379 N 
ATOM     43  H   LIG    1        5.244 -12.704  -5.138  0.00  0.00    -0.082 HD
ATOM     44  C   LIG    1        7.171 -12.222  -5.602  0.00  0.00    -0.096 C 
ATOM     45  C   LIG    1        5.409 -12.654  -7.171  0.00  0.00    -0.096 C 
ENDBRANCH  40  42
ENDBRANCH  36  37
ENDBRANCH  29  36
ENDBRANCH   3  26
TORSDOF 9
