REMARK  Name = ZINC37858310
REMARK                            x       y       z     vdW  Elec       q    Type
REMARK                         _______ _______ _______ _____ _____    ______ ____
ROOT
ATOM      1  C   LIG    1        9.229  -2.844  -2.242  0.00  0.00    +0.240 A 
ATOM      2  N   LIG    1       10.262  -3.039  -3.041  0.00  0.00    -0.211 NA
ATOM      3  C   LIG    1       11.464  -2.578  -2.674  0.00  0.00    +0.097 A 
ATOM      4  C   LIG    1       12.599  -2.755  -3.482  0.00  0.00    -0.022 A 
ATOM      5  C   LIG    1       12.483  -3.481  -4.798  0.00  0.00    +0.046 C 
ATOM      6  C   LIG    1       13.802  -2.272  -3.075  0.00  0.00    +0.014 A 
ATOM      7  C   LIG    1       13.930  -1.593  -1.852  0.00  0.00    -0.015 A 
ATOM      8  C   LIG    1       12.832  -1.402  -1.034  0.00  0.00    +0.040 A 
ATOM      9  C   LIG    1       11.581  -1.893  -1.435  0.00  0.00    +0.112 A 
ATOM     10  N   LIG    1       10.489  -1.733  -0.679  0.00  0.00    -0.144 NA
ATOM     11  N   LIG    1        9.355  -2.194  -1.083  0.00  0.00    -0.112 NA
ENDROOT
BRANCH   7  12
ATOM     12  C   LIG    1       15.256  -1.077  -1.433  0.00  0.00    -0.012 A 
ATOM     13  C   LIG    1       16.299  -1.962  -1.167  0.00  0.00    -0.042 A 
ATOM     14  C   LIG    1       16.082  -3.447  -1.303  0.00  0.00    +0.044 C 
ATOM     15  C   LIG    1       17.531  -1.476  -0.778  0.00  0.00    +0.004 A 
ATOM     16  C   LIG    1       17.731  -0.113  -0.652  0.00  0.00    +0.001 A 
ATOM     17  C   LIG    1       16.700   0.770  -0.915  0.00  0.00    +0.004 A 
ATOM     18  C   LIG    1       15.465   0.296  -1.310  0.00  0.00    -0.042 A 
ATOM     19  C   LIG    1       14.345   1.260  -1.603  0.00  0.00    +0.044 C 
ENDBRANCH   7  12
BRANCH   1  20
ATOM     20  N   LIG    1        7.984  -3.319  -2.618  0.00  0.00    -0.282 N 
ATOM     21  H   LIG    1        7.893  -3.861  -3.418  0.00  0.00    +0.155 HD
BRANCH  20  25
ATOM     22  C   LIG    1        4.627  -2.422  -0.315  0.00  0.00    +0.121 A 
ATOM     23  C   LIG    1        5.662  -1.504  -0.418  0.00  0.00    +0.047 A 
ATOM     24  C   LIG    1        6.774  -1.801  -1.181  0.00  0.00    +0.027 A 
ATOM     25  C   LIG    1        6.857  -3.018  -1.844  0.00  0.00    +0.034 A 
ATOM     26  C   LIG    1        5.820  -3.936  -1.740  0.00  0.00    +0.027 A 
ATOM     27  C   LIG    1        4.711  -3.640  -0.973  0.00  0.00    +0.047 A 
BRANCH  22  28
ATOM     28  O   LIG    1        3.532  -2.129   0.436  0.00  0.00    -0.494 OA
BRANCH  28  29
ATOM     29  C   LIG    1        3.512  -0.857   1.086  0.00  0.00    +0.210 C 
BRANCH  29  30
ATOM     30  C   LIG    1        2.211  -0.709   1.878  0.00  0.00    -0.037 C 
BRANCH  30  31
ATOM     31  N   LIG    1        2.183  -1.700   2.962  0.00  0.00    +0.382 N 
ATOM     32  H   LIG    1        2.317  -2.623   2.578  0.00  0.00    -0.082 HD
BRANCH  31  34
ATOM     33  C   LIG    1        3.317  -2.516   4.974  0.00  0.00    -0.017 C 
ATOM     34  C   LIG    1        3.257  -1.407   3.921  0.00  0.00    -0.082 C 
ENDBRANCH  31  34
BRANCH  31  35
ATOM     35  C   LIG    1        0.885  -1.638   3.648  0.00  0.00    -0.082 C 
ATOM     36  C   LIG    1       -0.220  -2.083   2.688  0.00  0.00    -0.017 C 
ENDBRANCH  31  35
ENDBRANCH  30  31
ENDBRANCH  29  30
ENDBRANCH  28  29
ENDBRANCH  22  28
ENDBRANCH  20  25
ENDBRANCH   1  20
TORSDOF 9
