REMARK  Name = ZINC35923465
REMARK                            x       y       z     vdW  Elec       q    Type
REMARK                         _______ _______ _______ _____ _____    ______ ____
ROOT
ATOM      1  C   LIG    1        2.696  -1.861  -4.732  0.00  0.00    +0.139 A 
ATOM      2  N   LIG    1        3.998  -1.585  -5.058  0.00  0.00    -0.338 N 
ATOM      3  C   LIG    1        4.259  -2.212  -6.261  0.00  0.00    +0.068 A 
ATOM      4  C   LIG    1        5.380  -2.297  -7.078  0.00  0.00    +0.028 A 
ATOM      5  C   LIG    1        5.324  -3.020  -8.251  0.00  0.00    +0.004 A 
ATOM      6  C   LIG    1        4.156  -3.667  -8.626  0.00  0.00    +0.025 A 
ATOM      7  C   LIG    1        3.029  -3.596  -7.828  0.00  0.00    +0.058 A 
ATOM      8  C   LIG    1        3.071  -2.863  -6.630  0.00  0.00    +0.110 A 
ATOM      9  H   LIG    1        4.620  -1.050  -4.541  0.00  0.00    +0.167 HD
ATOM     10  N   LIG    1        2.159  -2.617  -5.658  0.00  0.00    -0.226 NA
ENDROOT
BRANCH   1  14
ATOM     11  C   LIG    1        0.707  -0.490  -1.238  0.00  0.00    -0.042 A 
ATOM     12  C   LIG    1        0.033  -1.285  -2.147  0.00  0.00    +0.005 A 
ATOM     13  C   LIG    1        0.673  -1.733  -3.284  0.00  0.00    +0.012 A 
ATOM     14  C   LIG    1        2.004  -1.383  -3.516  0.00  0.00    +0.017 A 
ATOM     15  C   LIG    1        2.678  -0.581  -2.595  0.00  0.00    +0.012 A 
ATOM     16  C   LIG    1        2.025  -0.135  -1.465  0.00  0.00    +0.005 A 
BRANCH  11  18
ATOM     17  C   LIG    1       -0.019   1.526   0.010  0.00  0.00    +0.015 C 
ATOM     18  C   LIG    1        0.002  -0.004   0.002  0.00  0.00    -0.013 C 
ATOM     19  C   LIG    1       -1.433  -0.534   0.013  0.00  0.00    +0.015 C 
ATOM     20  C   LIG    1        0.742  -0.511   1.242  0.00  0.00    +0.015 C 
ENDBRANCH  11  18
ENDBRANCH   1  14
BRANCH   7  21
ATOM     21  N   LIG    1        1.856  -4.249  -8.211  0.00  0.00    -0.326 N 
ATOM     22  C   LIG    1        0.851  -3.570  -9.043  0.00  0.00    +0.120 C 
ATOM     23  C   LIG    1       -0.517  -3.714  -8.367  0.00  0.00    +0.103 C 
ATOM     24  N   LIG    1       -0.784  -5.134  -8.106  0.00  0.00    -0.295 NA
ATOM     25  C   LIG    1        0.195  -5.696  -7.166  0.00  0.00    +0.103 C 
ATOM     26  C   LIG    1        1.595  -5.636  -7.797  0.00  0.00    +0.120 C 
BRANCH  24  27
ATOM     27  C   LIG    1       -2.156  -5.331  -7.617  0.00  0.00    +0.119 C 
BRANCH  27  28
ATOM     28  C   LIG    1       -2.474  -6.804  -7.594  0.00  0.00    -0.031 A 
ATOM     29  C   LIG    1       -3.030  -7.404  -8.723  0.00  0.00    +0.007 A 
ATOM     30  C   LIG    1       -3.329  -8.731  -8.735  0.00  0.00    +0.030 A 
ATOM     31  C   LIG    1       -3.075  -9.513  -7.594  0.00  0.00    +0.089 A 
ATOM     32  C   LIG    1       -2.510  -8.902  -6.446  0.00  0.00    +0.089 A 
ATOM     33  N   LIG    1       -2.267  -9.640  -5.357  0.00  0.00    -0.252 NA
ATOM     34  C   LIG    1       -2.553 -10.922  -5.363  0.00  0.00    +0.131 A 
ATOM     35  C   LIG    1       -3.109 -11.524  -6.494  0.00  0.00    +0.131 A 
ATOM     36  N   LIG    1       -3.358 -10.820  -7.575  0.00  0.00    -0.252 NA
ATOM     37  C   LIG    1       -2.210  -7.529  -6.473  0.00  0.00    +0.034 A 
ENDBRANCH  27  28
ENDBRANCH  24  27
ENDBRANCH   7  21
TORSDOF 5
