REMARK  Name = ZINC45357359
REMARK                            x       y       z     vdW  Elec       q    Type
REMARK                         _______ _______ _______ _____ _____    ______ ____
ROOT
ATOM      1  C   LIG    1        3.977  -0.748  -0.144  0.00  0.00    +0.221 C 
ENDROOT
BRANCH   1   5
ATOM      2  C   LIG    1        1.177   2.456   0.232  0.00  0.00    +0.000 A 
ATOM      3  C   LIG    1        2.513   2.729   0.005  0.00  0.00    +0.000 A 
ATOM      4  C   LIG    1        3.419   1.692  -0.117  0.00  0.00    +0.007 A 
ATOM      5  C   LIG    1        2.989   0.382  -0.010  0.00  0.00    -0.006 A 
ATOM      6  C   LIG    1        1.653   0.110   0.218  0.00  0.00    +0.007 A 
ATOM      7  C   LIG    1        0.747   1.147   0.338  0.00  0.00    +0.000 A 
ENDBRANCH   1   5
BRANCH   1   8
ATOM      8  O   LIG    1        3.601  -1.814   0.731  0.00  0.00    -0.482 OA
BRANCH   8   9
ATOM      9  C   LIG    1        4.015  -1.728   2.021  0.00  0.00    +0.130 A 
ATOM     10  C   LIG    1        4.660  -0.595   2.456  0.00  0.00    +0.046 A 
ATOM     11  C   LIG    1        5.098  -0.470   3.767  0.00  0.00    +0.005 A 
ATOM     12  C   LIG    1        4.883  -1.502   4.659  0.00  0.00    +0.016 A 
ATOM     13  C   LIG    1        4.237  -2.646   4.240  0.00  0.00    +0.024 A 
ATOM     14  S   LIG    1        3.769  -4.165   5.031  0.00  0.00    -0.081 S 
ATOM     15  C   LIG    1        2.986  -4.952   3.634  0.00  0.00    +0.099 A 
ATOM     16  C   LIG    1        3.128  -4.030   2.647  0.00  0.00    +0.035 A 
ATOM     17  C   LIG    1        3.772  -2.809   2.914  0.00  0.00    +0.032 A 
BRANCH  15  18
ATOM     18  C   LIG    1        2.351  -6.277   3.566  0.00  0.00    +0.273 C 
ATOM     19  N   LIG    1        2.306  -7.052   4.652  0.00  0.00    -0.288 N 
ATOM     20  H   LIG    1        1.887  -7.926   4.608  0.00  0.00    +0.301 HD
ATOM     21  H   LIG    1        2.692  -6.742   5.486  0.00  0.00    +0.301 HD
BRANCH  18  22
ATOM     22  N   LIG    1        1.820  -6.705   2.419  0.00  0.00    -0.249 N 
ATOM     23  H   LIG    1        1.401  -7.579   2.374  0.00  0.00    +0.288 HD
ATOM     24  H   LIG    1        1.853  -6.142   1.629  0.00  0.00    +0.288 HD
ENDBRANCH  18  22
ENDBRANCH  15  18
ENDBRANCH   8   9
ENDBRANCH   1   8
BRANCH   1  25
ATOM     25  C   LIG    1        3.983  -1.252  -1.588  0.00  0.00    +0.155 C 
BRANCH  25  26
ATOM     26  N   LIG    1        4.944  -2.351  -1.718  0.00  0.00    -0.295 N 
ATOM     27  H   LIG    1        5.452  -2.644  -0.946  0.00  0.00    +0.150 HD
ATOM     28  C   LIG    1        5.120  -2.954  -2.910  0.00  0.00    +0.304 C 
ATOM     29  N   LIG    1        6.003  -3.966  -3.029  0.00  0.00    -0.269 N 
ATOM     30  H   LIG    1        6.450  -4.314  -2.242  0.00  0.00    +0.156 HD
ATOM     31  O   LIG    1        4.483  -2.587  -3.878  0.00  0.00    -0.253 OA
BRANCH  29  32
ATOM     32  C   LIG    1        6.276  -4.512  -4.288  0.00  0.00    +0.035 A 
ATOM     33  C   LIG    1        6.566  -5.864  -4.412  0.00  0.00    +0.023 A 
ATOM     34  C   LIG    1        6.834  -6.401  -5.656  0.00  0.00    +0.002 A 
ATOM     35  C   LIG    1        6.813  -5.593  -6.778  0.00  0.00    +0.000 A 
ATOM     36  C   LIG    1        6.524  -4.246  -6.658  0.00  0.00    +0.002 A 
ATOM     37  C   LIG    1        6.250  -3.704  -5.418  0.00  0.00    +0.023 A 
ENDBRANCH  29  32
ENDBRANCH  25  26
ENDBRANCH   1  25
TORSDOF 8
