REMARK  Name = ZINC29055291
REMARK                            x       y       z     vdW  Elec       q    Type
REMARK                         _______ _______ _______ _____ _____    ______ ____
ROOT
ATOM      1  C   LIG    1       -1.798   6.664   0.053  0.00  0.00    +0.041 A 
ATOM      2  C   LIG    1       -2.636   6.857   1.241  0.00  0.00    +0.014 A 
ATOM      3  C   LIG    1       -2.397   6.796   2.616  0.00  0.00    +0.014 A 
ATOM      4  C   LIG    1       -3.417   7.034   3.493  0.00  0.00    +0.039 A 
ATOM      5  C   LIG    1       -4.692   7.336   3.028  0.00  0.00    +0.125 A 
ATOM      6  F   LIG    1       -5.689   7.568   3.911  0.00  0.00    -0.205 F 
ATOM      7  C   LIG    1       -4.949   7.402   1.674  0.00  0.00    +0.064 A 
ATOM      8  C   LIG    1       -3.922   7.163   0.766  0.00  0.00    +0.053 A 
ATOM      9  N   LIG    1       -3.869   7.155  -0.616  0.00  0.00    -0.342 N 
ATOM     10  C   LIG    1       -4.745   7.370  -1.782  0.00  0.00    +0.123 C 
ATOM     11  C   LIG    1       -4.005   6.742  -2.982  0.00  0.00    +0.032 C 
ATOM     12  C   LIG    1       -2.528   6.840  -2.540  0.00  0.00    +0.049 C 
ATOM     13  C   LIG    1       -2.589   6.859  -1.024  0.00  0.00    +0.037 A 
ENDROOT
BRANCH   1  14
ATOM     14  S   LIG    1       -0.083   6.261   0.036  0.00  0.00    -0.087 S 
BRANCH  14  21
ATOM     15  C   LIG    1        1.153   3.819   0.011  0.00  0.00    +0.016 A 
ATOM     16  C   LIG    1        1.169   2.439   0.004  0.00  0.00    +0.021 A 
ATOM     17  C   LIG    1       -0.021   1.732   0.012  0.00  0.00    +0.041 A 
ATOM     18 CL   LIG    1        0.002  -0.004   0.002  0.00  0.00    -0.084 Cl
ATOM     19  C   LIG    1       -1.230   2.406   0.021  0.00  0.00    +0.021 A 
ATOM     20  C   LIG    1       -1.252   3.787   0.033  0.00  0.00    +0.016 A 
ATOM     21  C   LIG    1       -0.059   4.499   0.026  0.00  0.00    +0.013 A 
ENDBRANCH  14  21
ENDBRANCH   1  14
BRANCH  12  22
ATOM     22  C   LIG    1       -1.740   5.626  -3.035  0.00  0.00    +0.130 C 
BRANCH  22  23
ATOM     23  C   LIG    1       -1.665   5.656  -4.540  0.00  0.00    +0.305 C 
ATOM     24  O   LIG    1       -2.188   6.556  -5.153  0.00  0.00    -0.251 OA
BRANCH  23  25
ATOM     25  O   LIG    1       -1.017   4.682  -5.199  0.00  0.00    -0.481 OA
ATOM     26  H   LIG    1       -0.611   3.984  -4.723  0.00  0.00    +0.295 HD
ENDBRANCH  23  25
ENDBRANCH  22  23
ENDBRANCH  12  22
TORSDOF 5
