REMARK  Name = ZINC14975990
REMARK                            x       y       z     vdW  Elec       q    Type
REMARK                         _______ _______ _______ _____ _____    ______ ____
ROOT
ATOM      1  C   LIG    1       -1.053  -2.139   3.088  0.00  0.00    +0.084 C 
ENDROOT
BRANCH   1   5
ATOM      2  N   LIG    1        2.899  -2.207   1.678  0.00  0.00    -0.327 N 
ATOM      3  C   LIG    1        2.051  -3.361   1.345  0.00  0.00    +0.120 C 
ATOM      4  C   LIG    1        0.584  -2.947   1.497  0.00  0.00    +0.103 C 
ATOM      5  N   LIG    1        0.373  -2.389   2.840  0.00  0.00    -0.299 NA
ATOM      6  C   LIG    1        1.164  -1.167   3.039  0.00  0.00    +0.103 C 
ATOM      7  C   LIG    1        2.659  -1.512   2.952  0.00  0.00    +0.120 C 
BRANCH   2  13
ATOM      8  C   LIG    1        5.162  -2.408   0.839  0.00  0.00    +0.003 A 
ATOM      9  C   LIG    1        6.161  -1.983  -0.034  0.00  0.00    +0.010 A 
ATOM     10  C   LIG    1        5.913  -0.950  -0.915  0.00  0.00    +0.001 A 
ATOM     11  C   LIG    1        4.674  -0.333  -0.936  0.00  0.00    +0.002 A 
ATOM     12  C   LIG    1        3.675  -0.745  -0.076  0.00  0.00    +0.024 A 
ATOM     13  C   LIG    1        3.908  -1.786   0.812  0.00  0.00    +0.038 A 
BRANCH   8  17
ATOM     14  C   LIG    1        5.913  -5.588   3.558  0.00  0.00    +0.000 A 
ATOM     15  C   LIG    1        6.096  -5.785   2.201  0.00  0.00    +0.001 A 
ATOM     16  C   LIG    1        5.853  -4.756   1.314  0.00  0.00    +0.008 A 
ATOM     17  C   LIG    1        5.423  -3.517   1.788  0.00  0.00    -0.016 A 
ATOM     18  C   LIG    1        5.241  -3.325   3.156  0.00  0.00    +0.008 A 
ATOM     19  C   LIG    1        5.486  -4.361   4.034  0.00  0.00    +0.001 A 
ENDBRANCH   8  17
ENDBRANCH   2  13
ENDBRANCH   1   5
BRANCH   1  20
ATOM     20  C   LIG    1       -1.262  -1.798   4.565  0.00  0.00    +0.015 C 
BRANCH  20  21
ATOM     21  C   LIG    1       -2.747  -1.538   4.823  0.00  0.00    +0.002 C 
BRANCH  21  22
ATOM     22  C   LIG    1       -2.956  -1.197   6.300  0.00  0.00    +0.009 C 
BRANCH  22  23
ATOM     23  C   LIG    1       -4.441  -0.936   6.559  0.00  0.00    +0.096 C 
BRANCH  23  24
ATOM     24  C   LIG    1       -4.646  -0.601   8.013  0.00  0.00    +0.213 C 
ATOM     25  N   LIG    1       -5.884  -0.332   8.475  0.00  0.00    -0.308 N 
ATOM     26  H   LIG    1       -6.642  -0.354   7.870  0.00  0.00    +0.149 HD
ATOM     27  O   LIG    1       -3.698  -0.573   8.769  0.00  0.00    -0.276 OA
BRANCH  25  28
ATOM     28  C   LIG    1       -6.083  -0.005   9.889  0.00  0.00    +0.103 C 
ATOM     29  C   LIG    1       -7.346   0.842  10.037  0.00  0.00    +0.027 C 
ATOM     30  C   LIG    1       -7.657   0.989  11.531  0.00  0.00    +0.007 C 
ATOM     31  C   LIG    1       -8.118  -0.367  12.062  0.00  0.00    +0.035 C 
ATOM     32  C   LIG    1       -7.138  -1.446  11.681  0.00  0.00    -0.042 A 
ATOM     33  C   LIG    1       -7.194  -2.646  12.378  0.00  0.00    +0.004 A 
ATOM     34  C   LIG    1       -6.329  -3.675  12.073  0.00  0.00    +0.000 A 
ATOM     35  C   LIG    1       -5.396  -3.511  11.066  0.00  0.00    +0.000 A 
ATOM     36  C   LIG    1       -5.337  -2.319  10.374  0.00  0.00    +0.006 A 
ATOM     37  C   LIG    1       -6.207  -1.281  10.680  0.00  0.00    -0.024 A 
ENDBRANCH  25  28
ENDBRANCH  23  24
ENDBRANCH  22  23
ENDBRANCH  21  22
ENDBRANCH  20  21
ENDBRANCH   1  20
TORSDOF 9
