REMARK  Name = ZINC36322898
REMARK                            x       y       z     vdW  Elec       q    Type
REMARK                         _______ _______ _______ _____ _____    ______ ____
ROOT
ATOM      1  C   LIG    1       -0.017   1.378   0.010  0.00  0.00    +0.008 A 
ATOM      2  C   LIG    1        1.170   2.087   0.002  0.00  0.00    +0.041 A 
ATOM      3  C   LIG    1        2.379   1.413  -0.013  0.00  0.00    +0.158 A 
ATOM      4  F   LIG    1        3.539   2.105  -0.021  0.00  0.00    -0.202 F 
ATOM      5  C   LIG    1        2.397   0.026  -0.021  0.00  0.00    +0.159 A 
ATOM      6  F   LIG    1        3.576  -0.634  -0.036  0.00  0.00    -0.202 F 
ATOM      7  C   LIG    1        1.208  -0.680  -0.013  0.00  0.00    +0.046 A 
ATOM      8  C   LIG    1        0.002  -0.004   0.002  0.00  0.00    -0.025 A 
ENDROOT
BRANCH   8   9
ATOM      9  C   LIG    1       -1.293  -0.774   0.010  0.00  0.00    +0.158 C 
BRANCH   9  10
ATOM     10  N   LIG    1       -1.726  -1.017  -1.368  0.00  0.00    -0.332 N 
ATOM     11  C   LIG    1       -2.525  -0.201  -2.124  0.00  0.00    +0.107 A 
ATOM     12  C   LIG    1       -2.670  -0.800  -3.321  0.00  0.00    +0.130 A 
ATOM     13  N   LIG    1       -1.979  -1.949  -3.298  0.00  0.00    -0.244 NA
ATOM     14  C   LIG    1       -1.407  -2.083  -2.133  0.00  0.00    +0.199 A 
ENDBRANCH   9  10
ENDBRANCH   8   9
TORSDOF 2
