REMARK  Name = ZINC40423296
REMARK                            x       y       z     vdW  Elec       q    Type
REMARK                         _______ _______ _______ _____ _____    ______ ____
ROOT
ATOM      1  N   LIG    1        4.152  -0.952   1.338  0.00  0.00    -0.262 N 
ATOM      2  C   LIG    1        4.944  -0.079   2.075  0.00  0.00    +0.045 A 
ATOM      3  C   LIG    1        5.495   1.157   1.759  0.00  0.00    +0.026 A 
ATOM      4  C   LIG    1        6.260   1.834   2.689  0.00  0.00    +0.030 A 
ATOM      5  C   LIG    1        6.488   1.294   3.944  0.00  0.00    +0.106 A 
ATOM      6  C   LIG    1        5.950   0.069   4.279  0.00  0.00    +0.039 A 
ATOM      7  C   LIG    1        5.176  -0.623   3.348  0.00  0.00    +0.012 A 
ATOM      8  C   LIG    1        4.474  -1.920   3.384  0.00  0.00    +0.074 C 
ATOM      9  C   LIG    1        4.417  -2.819   4.435  0.00  0.00    +0.141 C 
ATOM     10  C   LIG    1        3.837  -2.048   2.050  0.00  0.00    +0.254 C 
ATOM     11  O   LIG    1        3.155  -2.979   1.669  0.00  0.00    -0.270 OA
ENDROOT
BRANCH   5  12
ATOM     12  S   LIG    1        7.468   2.174   5.115  0.00  0.00    +0.061 S 
ATOM     13  O   LIG    1        8.308   3.044   4.370  0.00  0.00    -0.153 OA
ATOM     14  O   LIG    1        7.984   1.208   6.021  0.00  0.00    -0.153 OA
BRANCH  12  15
ATOM     15  N   LIG    1        6.441   3.138   5.986  0.00  0.00    -0.175 NA
ATOM     16  C   LIG    1        6.154   4.495   5.519  0.00  0.00    +0.120 C 
ATOM     17  C   LIG    1        4.676   4.597   5.123  0.00  0.00    +0.086 C 
ATOM     18  S   LIG    1        3.657   4.131   6.554  0.00  0.00    -0.158 S 
ATOM     19  C   LIG    1        4.316   2.502   7.018  0.00  0.00    +0.086 C 
ATOM     20  C   LIG    1        5.827   2.621   7.210  0.00  0.00    +0.120 C 
ENDBRANCH  12  15
ENDBRANCH   5  12
BRANCH   9  21
ATOM     21  C   LIG    1        5.093  -2.528   5.664  0.00  0.00    +0.111 C 
ATOM     22  N   LIG    1        5.629  -2.297   6.638  0.00  0.00    -0.190 NA
ENDBRANCH   9  21
BRANCH   9  23
ATOM     23  C   LIG    1        3.683  -4.040   4.294  0.00  0.00    +0.111 C 
ATOM     24  N   LIG    1        3.100  -5.009   4.182  0.00  0.00    -0.190 NA
ENDBRANCH   9  23
BRANCH   1  25
ATOM     25  C   LIG    1        3.711  -0.707  -0.038  0.00  0.00    +0.149 C 
BRANCH  25  29
ATOM     26  C   LIG    1       -0.017   1.378   0.010  0.00  0.00    +0.000 A 
ATOM     27  C   LIG    1        1.171   2.086   0.002  0.00  0.00    +0.000 A 
ATOM     28  C   LIG    1        2.377   1.411  -0.013  0.00  0.00    +0.005 A 
ATOM     29  C   LIG    1        2.396   0.029  -0.020  0.00  0.00    -0.030 A 
ATOM     30  C   LIG    1        1.208  -0.679  -0.012  0.00  0.00    +0.005 A 
ATOM     31  C   LIG    1        0.002  -0.004   0.002  0.00  0.00    +0.000 A 
ENDBRANCH  25  29
ENDBRANCH   1  25
TORSDOF 6
