REMARK  Name = ZINC16052718
REMARK                            x       y       z     vdW  Elec       q    Type
REMARK                         _______ _______ _______ _____ _____    ______ ____
ROOT
ATOM      1  C   LIG    1       -2.497   3.894   0.045  0.00  0.00    +0.047 A 
ATOM      2  C   LIG    1       -2.617   5.253   0.052  0.00  0.00    +0.041 A 
ATOM      3  C   LIG    1       -3.988   5.537   0.066  0.00  0.00    +0.058 A 
ATOM      4  C   LIG    1       -4.666   4.322   0.068  0.00  0.00    +0.030 A 
ATOM      5  C   LIG    1       -6.173   4.274   0.086  0.00  0.00    +0.072 C 
ATOM      6  C   LIG    1       -6.698   5.519   0.800  0.00  0.00    +0.110 C 
ATOM      7  N   LIG    1       -6.050   6.745   0.353  0.00  0.00    -0.311 N 
ATOM      8  H   LIG    1       -6.588   7.545   0.251  0.00  0.00    +0.149 HD
ATOM      9  C   LIG    1       -4.727   6.812   0.074  0.00  0.00    +0.246 C 
ATOM     10  O   LIG    1       -4.176   7.871  -0.157  0.00  0.00    -0.270 OA
ATOM     11  N   LIG    1       -3.761   3.343   0.048  0.00  0.00    -0.357 N 
ATOM     12  H   LIG    1       -3.960   2.393   0.041  0.00  0.00    +0.166 HD
ENDROOT
BRANCH   1  18
ATOM     13  C   LIG    1       -1.221   1.739   0.017  0.00  0.00    +0.029 A 
ATOM     14  C   LIG    1       -0.013   1.076   0.008  0.00  0.00    +0.111 A 
ATOM     15  N   LIG    1        1.127   1.742   0.001  0.00  0.00    -0.263 NA
ATOM     16  C   LIG    1        1.167   3.061   0.007  0.00  0.00    +0.111 A 
ATOM     17  C   LIG    1        0.005   3.805   0.021  0.00  0.00    +0.029 A 
ATOM     18  C   LIG    1       -1.226   3.139   0.030  0.00  0.00    +0.001 A 
ENDBRANCH   1  18
TORSDOF 1
