REMARK  Name = ZINC13795217
REMARK                            x       y       z     vdW  Elec       q    Type
REMARK                         _______ _______ _______ _____ _____    ______ ____
ROOT
ATOM      1  C   LIG    1        1.397   3.504   0.007  0.00  0.00    +0.036 A 
ATOM      2  C   LIG    1        1.276   4.311  -1.064  0.00  0.00    +0.133 A 
ATOM      3  N   LIG    1        1.302   5.581  -0.632  0.00  0.00    -0.244 NA
ATOM      4  C   LIG    1        1.435   5.591   0.666  0.00  0.00    +0.196 A 
ATOM      5  N   LIG    1        1.492   4.316   1.106  0.00  0.00    -0.348 N 
ATOM      6  H   LIG    1        1.585   4.028   2.028  0.00  0.00    +0.166 HD
ENDROOT
BRANCH   1   7
ATOM      7  C   LIG    1        1.417   1.997  -0.001  0.00  0.00    +0.067 C 
BRANCH   7   8
ATOM      8  C   LIG    1       -0.018   1.468   0.010  0.00  0.00    +0.094 C 
BRANCH   8  10
ATOM      9  C   LIG    1        0.018  -1.178  -0.004  0.00  0.00    +0.004 C 
ATOM     10  C   LIG    1        0.002  -0.004   0.002  0.00  0.00    -0.105 C 
ENDBRANCH   8  10
ENDBRANCH   7   8
ENDBRANCH   1   7
TORSDOF 3
