REMARK  Name = ZINC28710850
REMARK                            x       y       z     vdW  Elec       q    Type
REMARK                         _______ _______ _______ _____ _____    ______ ____
ROOT
ATOM      1  C   LIG    1       -5.645  -5.209   3.298  0.00  0.00    +0.004 C 
ENDROOT
BRANCH   1   2
ATOM      2  C   LIG    1       -4.481  -4.491   3.982  0.00  0.00    +0.027 C 
BRANCH   2   4
ATOM      3  C   LIG    1       -2.211  -4.417   3.087  0.00  0.00    -0.027 C 
ATOM      4  C   LIG    1       -3.183  -5.143   3.581  0.00  0.00    -0.031 C 
BRANCH   3   5
ATOM      5  C   LIG    1       -2.320  -2.914   3.082  0.00  0.00    +0.053 C 
BRANCH   5   7
ATOM      6  C   LIG    1       -0.393  -1.415   3.104  0.00  0.00    -0.027 C 
ATOM      7  C   LIG    1       -1.099  -2.320   3.736  0.00  0.00    -0.027 C 
BRANCH   6   8
ATOM      8  C   LIG    1       -0.887  -0.850   1.797  0.00  0.00    +0.053 C 
BRANCH   8  10
ATOM      9  C   LIG    1       -0.270   1.357   0.954  0.00  0.00    -0.031 C 
ATOM     10  C   LIG    1       -0.891   0.655   1.870  0.00  0.00    -0.027 C 
BRANCH   9  12
ATOM     11  C   LIG    1       -0.198   1.364  -1.524  0.00  0.00    +0.008 C 
ATOM     12  C   LIG    1        0.307   0.671  -0.257  0.00  0.00    +0.023 C 
ENDBRANCH   9  12
ENDBRANCH   8  10
ENDBRANCH   6   8
ENDBRANCH   5   7
ENDBRANCH   3   5
ENDBRANCH   2   4
ENDBRANCH   1   2
BRANCH   1  13
ATOM     13  C   LIG    1       -6.963  -4.547   3.705  0.00  0.00    +0.000 C 
BRANCH  13  14
ATOM     14  C   LIG    1       -8.128  -5.266   3.020  0.00  0.00    +0.000 C 
BRANCH  14  15
ATOM     15  C   LIG    1       -9.446  -4.604   3.428  0.00  0.00    +0.001 C 
BRANCH  15  16
ATOM     16  C   LIG    1      -10.610  -5.322   2.743  0.00  0.00    +0.011 C 
BRANCH  16  17
ATOM     17  C   LIG    1      -11.928  -4.660   3.150  0.00  0.00    +0.120 C 
BRANCH  17  18
ATOM     18  C   LIG    1      -13.075  -5.367   2.476  0.00  0.00    +0.307 C 
ATOM     19  O   LIG    1      -12.861  -6.305   1.745  0.00  0.00    -0.251 OA
BRANCH  18  20
ATOM     20  O   LIG    1      -14.335  -4.956   2.688  0.00  0.00    -0.462 OA
BRANCH  20  21
ATOM     21  C   LIG    1      -15.390  -5.684   2.005  0.00  0.00    +0.266 C 
BRANCH  21  22
ATOM     22  C   LIG    1      -16.746  -5.075   2.366  0.00  0.00    +0.181 C 
ATOM     23  C   LIG    1      -18.003  -5.772   1.842  0.00  0.00    +0.195 C 
ATOM     24  O   LIG    1      -17.536  -4.533   1.306  0.00  0.00    -0.368 OA
ENDBRANCH  21  22
ENDBRANCH  20  21
ENDBRANCH  18  20
ENDBRANCH  17  18
ENDBRANCH  16  17
ENDBRANCH  15  16
ENDBRANCH  14  15
ENDBRANCH  13  14
ENDBRANCH   1  13
TORSDOF 16
