REMARK  Name = ZINC19633439
REMARK                            x       y       z     vdW  Elec       q    Type
REMARK                         _______ _______ _______ _____ _____    ______ ____
ROOT
ATOM      1  N   LIG    1       -0.783   3.048   1.252  0.00  0.00    -0.306 NA
ATOM      2  C   LIG    1       -0.730   1.580   1.267  0.00  0.00    +0.066 C 
ATOM      3  C   LIG    1       -0.013   1.086   0.008  0.00  0.00    -0.063 C 
ATOM      4  N   LIG    1       -0.724   1.573  -1.182  0.00  0.00    +0.384 N 
ATOM      5  H   LIG    1       -1.757   1.196  -1.138  0.00  0.00    -0.081 HD
ATOM      6  C   LIG    1       -0.777   3.042  -1.196  0.00  0.00    -0.063 C 
ATOM      7  C   LIG    1       -1.495   3.536   0.062  0.00  0.00    +0.066 C 
ENDROOT
BRANCH   1   8
ATOM      8  C   LIG    1       -1.399   3.565   2.482  0.00  0.00    +0.084 C 
BRANCH   8   9
ATOM      9  C   LIG    1       -0.798   2.848   3.693  0.00  0.00    +0.020 C 
BRANCH   9  10
ATOM     10  C   LIG    1       -1.439   3.386   4.974  0.00  0.00    +0.036 C 
BRANCH  10  14
ATOM     11  C   LIG    1        0.238   1.385   8.355  0.00  0.00    +0.000 A 
ATOM     12  C   LIG    1        0.818   2.547   7.882  0.00  0.00    +0.000 A 
ATOM     13  C   LIG    1        0.275   3.195   6.787  0.00  0.00    +0.003 A 
ATOM     14  C   LIG    1       -0.848   2.680   6.167  0.00  0.00    -0.047 A 
ATOM     15  C   LIG    1       -1.431   1.521   6.643  0.00  0.00    +0.003 A 
ATOM     16  C   LIG    1       -0.885   0.871   7.734  0.00  0.00    +0.000 A 
ENDBRANCH  10  14
ENDBRANCH   9  10
ENDBRANCH   8   9
ENDBRANCH   1   8
BRANCH   4  17
ATOM     17  C   LIG    1       -0.109   1.057  -2.412  0.00  0.00    -0.043 C 
BRANCH  17  18
ATOM     18  C   LIG    1       -0.701   1.763  -3.604  0.00  0.00    -0.064 A 
ATOM     19  C   LIG    1       -1.820   1.245  -4.229  0.00  0.00    +0.002 A 
ATOM     20  C   LIG    1       -2.365   1.895  -5.320  0.00  0.00    +0.000 A 
ATOM     21  C   LIG    1       -1.786   3.058  -5.793  0.00  0.00    +0.000 A 
ATOM     22  C   LIG    1       -0.663   3.572  -5.172  0.00  0.00    +0.000 A 
ATOM     23  C   LIG    1       -0.121   2.925  -4.077  0.00  0.00    +0.002 A 
ENDBRANCH  17  18
ENDBRANCH   4  17
TORSDOF 6
