REMARK  Name = ZINC15449300
REMARK                            x       y       z     vdW  Elec       q    Type
REMARK                         _______ _______ _______ _____ _____    ______ ____
ROOT
ATOM      1  C   LIG    1       -0.672  -0.229   0.033  0.00  0.00    +0.158 C 
ATOM      2  C   LIG    1       -0.299   1.233   0.269  0.00  0.00    +0.079 C 
ATOM      3  C   LIG    1        1.175   1.292   0.688  0.00  0.00    +0.133 C 
ATOM      4  C   LIG    1        1.300   0.696   2.088  0.00  0.00    +0.082 C 
ATOM      5  C   LIG    1        0.637  -0.656   2.151  0.00  0.00    +0.007 A 
ATOM      6  C   LIG    1        0.976  -1.491   3.223  0.00  0.00    +0.132 A 
ATOM      7  C   LIG    1        0.394  -2.751   3.353  0.00  0.00    +0.078 A 
ATOM      8  C   LIG    1        0.749  -3.628   4.481  0.00  0.00    +0.198 C 
ATOM      9  C   LIG    1        0.122  -4.961   4.602  0.00  0.00    +0.037 A 
ATOM     10  C   LIG    1        0.453  -5.798   5.663  0.00  0.00    +0.012 A 
ATOM     11  C   LIG    1       -0.137  -7.047   5.772  0.00  0.00    +0.004 A 
ATOM     12  C   LIG    1       -1.054  -7.473   4.833  0.00  0.00    +0.046 A 
ATOM     13  C   LIG    1       -1.399  -6.653   3.763  0.00  0.00    +0.132 A 
ATOM     14  C   LIG    1       -0.812  -5.389   3.641  0.00  0.00    +0.075 A 
ATOM     15  C   LIG    1       -1.169  -4.510   2.513  0.00  0.00    +0.202 C 
ATOM     16  O   LIG    1       -1.978  -4.880   1.685  0.00  0.00    -0.286 OA
ATOM     17  O   LIG    1        1.557  -3.257   5.311  0.00  0.00    -0.286 OA
ATOM     18  C   LIG    1       -0.543  -3.181   2.391  0.00  0.00    +0.078 A 
ATOM     19  C   LIG    1       -0.868  -2.340   1.329  0.00  0.00    +0.134 A 
ATOM     20  C   LIG    1       -0.272  -1.077   1.213  0.00  0.00    +0.030 A 
ENDROOT
BRANCH   3  21
ATOM     21  O   LIG    1        1.617   2.651   0.702  0.00  0.00    -0.381 OA
ATOM     22  H   LIG    1        2.542   2.761   0.960  0.00  0.00    +0.211 HD
ENDBRANCH   3  21
BRANCH   3  23
ATOM     23  C   LIG    1        2.011   0.496  -0.281  0.00  0.00    +0.190 C 
ATOM     24  O   LIG    1        2.302  -0.648  -0.028  0.00  0.00    -0.292 OA
BRANCH  23  25
ATOM     25  C   LIG    1        2.484   1.128  -1.564  0.00  0.00    +0.233 C 
BRANCH  25  26
ATOM     26  O   LIG    1        3.253   0.180  -2.307  0.00  0.00    -0.387 OA
ATOM     27  H   LIG    1        3.590   0.519  -3.147  0.00  0.00    +0.210 HD
ENDBRANCH  25  26
ENDBRANCH  23  25
ENDBRANCH   3  23
BRANCH   6  28
ATOM     28  O   LIG    1        1.879  -1.070   4.144  0.00  0.00    -0.506 OA
ATOM     29  H   LIG    1        2.794  -1.299   3.930  0.00  0.00    +0.292 HD
ENDBRANCH   6  28
BRANCH  13  30
ATOM     30  O   LIG    1       -2.301  -7.076   2.844  0.00  0.00    -0.494 OA
ATOM     31  C   LIG    1       -2.859  -8.378   3.034  0.00  0.00    +0.277 C 
ENDBRANCH  13  30
BRANCH  19  32
ATOM     32  O   LIG    1       -1.768  -2.747   0.400  0.00  0.00    -0.506 OA
ATOM     33  H   LIG    1       -1.371  -3.160  -0.379  0.00  0.00    +0.292 HD
ENDBRANCH  19  32
BRANCH   1  34
ATOM     34  O   LIG    1       -2.084  -0.329  -0.162  0.00  0.00    -0.343 OA
BRANCH  34  40
ATOM     35  C   LIG    1       -1.929  -2.258  -4.493  0.00  0.00    +0.040 C 
ATOM     36  C   LIG    1       -2.441  -1.048  -3.709  0.00  0.00    +0.145 C 
ATOM     37  C   LIG    1       -3.963  -0.959  -3.844  0.00  0.00    +0.129 C 
ATOM     38  C   LIG    1       -4.473   0.219  -3.008  0.00  0.00    -0.039 C 
ATOM     39  C   LIG    1       -4.028   0.030  -1.554  0.00  0.00    +0.048 C 
ATOM     40  C   LIG    1       -2.503  -0.097  -1.509  0.00  0.00    +0.250 C 
ATOM     41  O   LIG    1       -2.093  -1.191  -2.331  0.00  0.00    -0.346 OA
BRANCH  38  42
ATOM     42  N   LIG    1       -5.946   0.246  -3.061  0.00  0.00    +0.382 N 
ATOM     43  H   LIG    1       -6.314  -0.623  -2.656  0.00  0.00    -0.090 HD
ATOM     44  H   LIG    1       -6.259   0.321  -4.027  0.00  0.00    -0.090 HD
ATOM     45  H   LIG    1       -6.300   1.038  -2.527  0.00  0.00    -0.090 HD
ENDBRANCH  38  42
BRANCH  37  46
ATOM     46  O   LIG    1       -4.556  -2.171  -3.374  0.00  0.00    -0.391 OA
ATOM     47  H   LIG    1       -4.273  -2.960  -3.857  0.00  0.00    +0.210 HD
ENDBRANCH  37  46
ENDBRANCH  34  40
ENDBRANCH   1  34
TORSDOF 11
