REMARK  Name = ZINC26172891
REMARK                            x       y       z     vdW  Elec       q    Type
REMARK                         _______ _______ _______ _____ _____    ______ ____
ROOT
ATOM      1  C   LIG    1        5.440   4.957   3.197  0.00  0.00    -0.096 C 
ATOM      2  N   LIG    1        5.777   3.998   2.136  0.00  0.00    +0.379 N 
ATOM      3  H   LIG    1        6.873   3.961   2.043  0.00  0.00    -0.082 HD
ATOM      4  C   LIG    1        5.243   4.435   0.845  0.00  0.00    -0.074 C 
ATOM      5  C   LIG    1        5.116   3.201  -0.053  0.00  0.00    +0.017 C 
ATOM      6  C   LIG    1        3.736   2.608   0.049  0.00  0.00    -0.044 A 
ATOM      7  C   LIG    1        3.069   2.309  -1.132  0.00  0.00    +0.021 A 
ATOM      8  C   LIG    1        1.826   1.711  -1.103  0.00  0.00    +0.055 A 
ATOM      9  I   LIG    1        0.831   1.265  -2.892  0.00  0.00    -0.040 I 
ATOM     10  C   LIG    1        1.238   1.407   0.117  0.00  0.00    +0.130 A 
ATOM     11  C   LIG    1        1.897   1.722   1.293  0.00  0.00    +0.051 A 
ATOM     12  C   LIG    1        3.147   2.328   1.260  0.00  0.00    -0.035 A 
ATOM     13  C   LIG    1        3.788   2.668   2.582  0.00  0.00    +0.033 C 
ATOM     14  C   LIG    1        5.313   2.648   2.480  0.00  0.00    -0.066 C 
ENDROOT
BRANCH  13  15
ATOM     15  C   LIG    1        3.351   1.663   3.617  0.00  0.00    -0.042 A 
ATOM     16  C   LIG    1        3.632   0.316   3.428  0.00  0.00    +0.006 A 
ATOM     17  C   LIG    1        3.248  -0.605   4.356  0.00  0.00    +0.031 A 
ATOM     18  C   LIG    1        2.547  -0.182   5.515  0.00  0.00    +0.100 A 
ATOM     19  C   LIG    1        2.263   1.196   5.691  0.00  0.00    +0.031 A 
ATOM     20  C   LIG    1        2.666   2.093   4.746  0.00  0.00    +0.006 A 
BRANCH  18  21
ATOM     21  N   LIG    1        2.163  -1.066   6.424  0.00  0.00    -0.074 NA
ATOM     22  N   LIG    1        2.391  -2.157   6.279  0.00  0.00    -0.192 NA
ATOM     23  N   LIG    1        2.619  -3.248   6.135  0.00  0.00    -0.127 NA
ATOM     24  H   LIG    1        3.502  -3.526   5.800  0.00  0.00    +0.228 HD
ENDBRANCH  18  21
ENDBRANCH  13  15
BRANCH  10  25
ATOM     25  O   LIG    1        0.019   0.808   0.157  0.00  0.00    -0.506 OA
ATOM     26  H   LIG    1       -0.444   0.569   1.125  0.00  0.00    +0.292 HD
ENDBRANCH  10  25
TORSDOF 3
