REMARK  Name = ZINC00001233
REMARK                            x       y       z     vdW  Elec       q    Type
REMARK                         _______ _______ _______ _____ _____    ______ ____
ROOT
ATOM      1  C   LIG    1       -0.669   1.467   1.065  0.00  0.00    +0.093 C 
ATOM      2  C   LIG    1       -0.385   0.075   0.497  0.00  0.00    +0.199 C 
ATOM      3  C   LIG    1       -0.157   0.171  -1.013  0.00  0.00    +0.093 C 
ATOM      4  N   LIG    1       -1.522  -0.812   0.771  0.00  0.00    -0.243 N 
ATOM      5  H   LIG    1       -2.422  -0.452   0.786  0.00  0.00    +0.261 HD
ATOM      6  C   LIG    1       -1.327  -2.084   0.996  0.00  0.00    +0.384 C 
ATOM      7  N   LIG    1       -0.096  -2.621   1.030  0.00  0.00    -0.012 NA
ATOM      8  C   LIG    1        0.977  -1.855   1.090  0.00  0.00    +0.383 C 
ATOM      9  N   LIG    1        0.809  -0.490   1.144  0.00  0.00    -0.157 N 
ENDROOT
BRANCH   9  10
ATOM     10  C   LIG    1        1.740   0.330   1.791  0.00  0.00    +0.098 A 
ATOM     11  C   LIG    1        1.672   0.509   3.166  0.00  0.00    +0.042 A 
ATOM     12  C   LIG    1        2.593   1.319   3.802  0.00  0.00    +0.023 A 
ATOM     13  C   LIG    1        3.581   1.952   3.070  0.00  0.00    +0.041 A 
ATOM     14 CL   LIG    1        4.736   2.971   3.872  0.00  0.00    -0.084 Cl
ATOM     15  C   LIG    1        3.651   1.776   1.699  0.00  0.00    +0.023 A 
ATOM     16  C   LIG    1        2.737   0.962   1.059  0.00  0.00    +0.042 A 
ENDBRANCH   9  10
BRANCH   6  17
ATOM     17  N   LIG    1       -2.420  -2.901   1.205  0.00  0.00    -0.249 N 
ATOM     18  H   LIG    1       -2.292  -3.848   1.373  0.00  0.00    +0.241 HD
ATOM     19  H   LIG    1       -3.315  -2.529   1.184  0.00  0.00    +0.241 HD
ENDBRANCH   6  17
BRANCH   8  20
ATOM     20  N   LIG    1        2.229  -2.405   1.099  0.00  0.00    -0.251 N 
ATOM     21  H   LIG    1        3.008  -1.837   1.204  0.00  0.00    +0.241 HD
ATOM     22  H   LIG    1        2.338  -3.364   1.000  0.00  0.00    +0.241 HD
ENDBRANCH   8  20
TORSDOF 3
