REMARK  Name = ZINC36159681
REMARK                            x       y       z     vdW  Elec       q    Type
REMARK                         _______ _______ _______ _____ _____    ______ ____
ROOT
ATOM      1  N   LIG    1        0.886  -3.189  -5.954  0.00  0.00    -0.293 N 
ATOM      2  H   LIG    1       -0.067  -3.095  -6.111  0.00  0.00    +0.154 HD
ENDROOT
BRANCH   1   3
ATOM      3  C   LIG    1        1.733  -3.550  -7.000  0.00  0.00    +0.041 A 
ATOM      4  C   LIG    1        2.813  -4.376  -6.768  0.00  0.00    +0.024 A 
ATOM      5  C   LIG    1        3.664  -4.742  -7.806  0.00  0.00    +0.002 A 
ATOM      6  C   LIG    1        3.456  -4.297  -9.076  0.00  0.00    +0.008 A 
ATOM      7  C   LIG    1        2.367  -3.454  -9.355  0.00  0.00    -0.016 A 
ATOM      8  C   LIG    1        2.128  -2.979 -10.657  0.00  0.00    +0.008 A 
ATOM      9  C   LIG    1        1.055  -2.176 -10.895  0.00  0.00    +0.001 A 
ATOM     10  C   LIG    1        0.196  -1.803  -9.863  0.00  0.00    +0.001 A 
ATOM     11  C   LIG    1        0.400  -2.240  -8.589  0.00  0.00    +0.010 A 
ATOM     12  C   LIG    1        1.490  -3.078  -8.308  0.00  0.00    +0.003 A 
ENDBRANCH   1   3
BRANCH   1  16
ATOM     13  C   LIG    1        1.402  -2.538  -2.432  0.00  0.00    +0.034 A 
ATOM     14  C   LIG    1        2.755  -2.584  -2.478  0.00  0.00    +0.069 A 
ATOM     15  S   LIG    1        3.018  -2.920  -4.212  0.00  0.00    -0.060 S 
ATOM     16  C   LIG    1        1.405  -2.964  -4.688  0.00  0.00    +0.162 A 
ATOM     17  N   LIG    1        0.755  -2.739  -3.565  0.00  0.00    -0.232 NA
BRANCH  13  18
ATOM     18  C   LIG    1        0.667  -2.273  -1.143  0.00  0.00    -0.026 C 
BRANCH  18  19
ATOM     19  N   LIG    1        0.356  -0.841  -1.042  0.00  0.00    +0.383 N 
ATOM     20  H   LIG    1        1.213  -0.309  -1.055  0.00  0.00    -0.085 HD
ATOM     21  H   LIG    1       -0.223  -0.567  -1.821  0.00  0.00    -0.085 HD
BRANCH  19  23
ATOM     22  C   LIG    1       -0.684   0.908   0.320  0.00  0.00    -0.017 C 
ATOM     23  C   LIG    1       -0.360  -0.583   0.215  0.00  0.00    -0.086 C 
ENDBRANCH  19  23
ENDBRANCH  18  19
ENDBRANCH  13  18
ENDBRANCH   1  16
TORSDOF 5
