REMARK  Name = ZINC19364229
REMARK                            x       y       z     vdW  Elec       q    Type
REMARK                         _______ _______ _______ _____ _____    ______ ____
ROOT
ATOM      1  N   LIG    1        3.538  -1.965  -0.776  0.00  0.00    -0.295 NA
ATOM      2  C   LIG    1        2.517  -2.812  -0.142  0.00  0.00    +0.067 C 
ATOM      3  C   LIG    1        2.324  -4.082  -0.972  0.00  0.00    -0.063 C 
ATOM      4  N   LIG    1        3.599  -4.807  -1.062  0.00  0.00    +0.383 N 
ATOM      5  H   LIG    1        3.916  -5.045  -0.134  0.00  0.00    -0.082 HD
ATOM      6  C   LIG    1        4.602  -3.958  -1.719  0.00  0.00    -0.063 C 
ATOM      7  C   LIG    1        4.813  -2.686  -0.895  0.00  0.00    +0.067 C 
ENDROOT
BRANCH   1   8
ATOM      8  C   LIG    1        3.711  -0.707  -0.038  0.00  0.00    +0.117 C 
BRANCH   8   9
ATOM      9  C   LIG    1        2.393   0.020   0.032  0.00  0.00    -0.026 A 
ATOM     10  C   LIG    1        1.600   0.121  -1.095  0.00  0.00    +0.007 A 
ATOM     11  C   LIG    1        0.391   0.788  -1.032  0.00  0.00    +0.020 A 
ATOM     12  C   LIG    1       -0.025   1.355   0.160  0.00  0.00    +0.041 A 
ATOM     13 CL   LIG    1       -1.543   2.193   0.239  0.00  0.00    -0.084 Cl
ATOM     14  C   LIG    1        0.769   1.253   1.287  0.00  0.00    +0.020 A 
ATOM     15  C   LIG    1        1.976   0.581   1.224  0.00  0.00    +0.007 A 
ENDBRANCH   8   9
BRANCH   8  19
ATOM     16  C   LIG    1        6.584   1.735  -2.045  0.00  0.00    +0.000 A 
ATOM     17  C   LIG    1        6.640   1.589  -0.671  0.00  0.00    +0.000 A 
ATOM     18  C   LIG    1        5.710   0.799  -0.022  0.00  0.00    +0.005 A 
ATOM     19  C   LIG    1        4.724   0.155  -0.746  0.00  0.00    -0.026 A 
ATOM     20  C   LIG    1        4.667   0.302  -2.119  0.00  0.00    +0.005 A 
ATOM     21  C   LIG    1        5.598   1.091  -2.769  0.00  0.00    +0.000 A 
ENDBRANCH   8  19
ENDBRANCH   1   8
BRANCH   4  22
ATOM     22  C   LIG    1        3.410  -6.036  -1.844  0.00  0.00    -0.050 C 
BRANCH  22  23
ATOM     23  C   LIG    1        4.704  -6.852  -1.833  0.00  0.00    +0.142 C 
BRANCH  23  24
ATOM     24  O   LIG    1        4.979  -7.290  -0.501  0.00  0.00    -0.370 OA
BRANCH  24  25
ATOM     25  C   LIG    1        6.173  -8.066  -0.379  0.00  0.00    +0.279 C 
BRANCH  25  26
ATOM     26  C   LIG    1        6.363  -8.472   1.060  0.00  0.00    +0.331 C 
ATOM     27  O   LIG    1        5.552  -8.129   1.903  0.00  0.00    -0.248 OA
BRANCH  26  28
ATOM     28  O   LIG    1        7.329  -9.143   1.381  0.00  0.00    -0.479 OA
ATOM     29  H   LIG    1        7.953  -9.407   0.733  0.00  0.00    +0.295 HD
ENDBRANCH  26  28
ENDBRANCH  25  26
ENDBRANCH  24  25
ENDBRANCH  23  24
ENDBRANCH  22  23
ENDBRANCH   4  22
TORSDOF 9
