REMARK  Name = ZINC19074909
REMARK                            x       y       z     vdW  Elec       q    Type
REMARK                         _______ _______ _______ _____ _____    ______ ____
ROOT
ATOM      1  N   LIG    1       -0.118   0.554  -4.701  0.00  0.00    -0.267 N 
ATOM      2  H   LIG    1        0.841   0.408  -4.688  0.00  0.00    +0.156 HD
ATOM      3  C   LIG    1       -0.749   0.984  -3.591  0.00  0.00    +0.304 C 
ATOM      4  N   LIG    1       -0.070   1.104  -2.433  0.00  0.00    -0.296 N 
ATOM      5  H   LIG    1        0.873   0.880  -2.398  0.00  0.00    +0.151 HD
ATOM      6  O   LIG    1       -1.931   1.265  -3.634  0.00  0.00    -0.252 OA
ENDROOT
BRANCH   1  15
ATOM      7  C   LIG    1       -2.200   0.018  -5.804  0.00  0.00    +0.029 A 
ATOM      8  C   LIG    1       -2.918  -0.215  -6.961  0.00  0.00    +0.043 A 
ATOM      9  C   LIG    1       -2.290  -0.151  -8.193  0.00  0.00    +0.161 A 
ATOM     10  F   LIG    1       -2.995  -0.379  -9.322  0.00  0.00    -0.202 F 
ATOM     11  C   LIG    1       -0.938   0.148  -8.269  0.00  0.00    +0.195 A 
ATOM     12  F   LIG    1       -0.326   0.210  -9.472  0.00  0.00    -0.199 F 
ATOM     13  C   LIG    1       -0.216   0.387  -7.112  0.00  0.00    +0.182 A 
ATOM     14  F   LIG    1        1.100   0.682  -7.184  0.00  0.00    -0.200 F 
ATOM     15  C   LIG    1       -0.847   0.317  -5.875  0.00  0.00    +0.073 A 
ENDBRANCH   1  15
BRANCH   4  16
ATOM     16  C   LIG    1       -0.757   1.571  -1.226  0.00  0.00    +0.074 C 
ATOM     17  C   LIG    1       -0.023   1.051   0.012  0.00  0.00    +0.022 C 
ATOM     18  C   LIG    1       -0.740   1.540   1.272  0.00  0.00    +0.002 C 
ATOM     19  C   LIG    1       -0.752   3.070   1.292  0.00  0.00    +0.000 C 
ATOM     20  C   LIG    1       -1.485   3.590   0.054  0.00  0.00    +0.002 C 
ATOM     21  C   LIG    1       -0.768   3.101  -1.207  0.00  0.00    +0.022 C 
ENDBRANCH   4  16
TORSDOF 2
