REMARK  Name = ZINC14952340
REMARK                            x       y       z     vdW  Elec       q    Type
REMARK                         _______ _______ _______ _____ _____    ______ ____
ROOT
ATOM      1  C   LIG    1        2.823   8.147   1.934  0.00  0.00    +0.133 C 
ENDROOT
BRANCH   1   2
ATOM      2  C   LIG    1        2.058   9.067   1.018  0.00  0.00    -0.006 A 
ATOM      3  C   LIG    1        2.049  10.484   1.073  0.00  0.00    +0.005 A 
ATOM      4  C   LIG    1        2.689  11.416   1.916  0.00  0.00    +0.011 A 
ATOM      5  C   LIG    1        2.505  12.746   1.747  0.00  0.00    +0.009 A 
ATOM      6  C   LIG    1        1.666  13.225   0.718  0.00  0.00    -0.016 A 
ATOM      7  C   LIG    1        1.468  14.603   0.533  0.00  0.00    +0.008 A 
ATOM      8  C   LIG    1        0.651  15.040  -0.466  0.00  0.00    +0.001 A 
ATOM      9  C   LIG    1        0.009  14.140  -1.311  0.00  0.00    +0.001 A 
ATOM     10  C   LIG    1        0.180  12.796  -1.160  0.00  0.00    +0.010 A 
ATOM     11  C   LIG    1        1.012  12.311  -0.142  0.00  0.00    +0.006 A 
ATOM     12  C   LIG    1        1.210  10.924   0.043  0.00  0.00    +0.055 A 
ATOM     13  N   LIG    1        0.737   9.813  -0.610  0.00  0.00    -0.353 N 
ATOM     14  H   LIG    1        0.135   9.819  -1.371  0.00  0.00    +0.166 HD
ATOM     15  C   LIG    1        1.253   8.690  -0.007  0.00  0.00    +0.051 A 
BRANCH  15  16
ATOM     16  C   LIG    1        0.980   7.295  -0.414  0.00  0.00    -0.001 A 
ATOM     17  C   LIG    1        2.042   6.381  -0.530  0.00  0.00    +0.010 A 
ATOM     18  C   LIG    1        1.817   5.095  -0.901  0.00  0.00    +0.009 A 
ATOM     19  C   LIG    1        0.507   4.661  -1.176  0.00  0.00    -0.018 A 
ATOM     20  C   LIG    1        0.249   3.335  -1.562  0.00  0.00    +0.008 A 
ATOM     21  C   LIG    1       -1.029   2.944  -1.821  0.00  0.00    +0.001 A 
ATOM     22  C   LIG    1       -2.090   3.842  -1.715  0.00  0.00    +0.001 A 
ATOM     23  C   LIG    1       -1.880   5.133  -1.338  0.00  0.00    +0.008 A 
ATOM     24  C   LIG    1       -0.573   5.573  -1.063  0.00  0.00    -0.017 A 
ATOM     25  C   LIG    1       -0.320   6.899  -0.677  0.00  0.00    +0.018 A 
ENDBRANCH  15  16
ENDBRANCH   1   2
BRANCH   1  28
ATOM     26  N   LIG    1        5.133   7.288   2.145  0.00  0.00    -0.302 N 
ATOM     27  H   LIG    1        4.872   6.879   2.985  0.00  0.00    +0.150 HD
ATOM     28  C   LIG    1        4.244   8.021   1.446  0.00  0.00    +0.218 C 
ATOM     29  O   LIG    1        4.587   8.579   0.426  0.00  0.00    -0.275 OA
BRANCH  26  30
ATOM     30  C   LIG    1        6.495   7.108   1.636  0.00  0.00    +0.182 C 
BRANCH  30  31
ATOM     31  C   LIG    1        7.453   6.996   2.794  0.00  0.00    +0.328 C 
ATOM     32  O   LIG    1        7.041   7.059   3.928  0.00  0.00    -0.249 OA
BRANCH  31  33
ATOM     33  O   LIG    1        8.765   6.826   2.565  0.00  0.00    -0.465 OA
BRANCH  33  34
ATOM     34  C   LIG    1        9.629   6.725   3.728  0.00  0.00    +0.216 C 
BRANCH  34  36
ATOM     35  C   LIG    1       11.970   6.305   4.493  0.00  0.00    -0.011 C 
ATOM     36  C   LIG    1       11.077   6.535   3.272  0.00  0.00    -0.040 C 
BRANCH  36  37
ATOM     37  N   LIG    1       11.510   7.737   2.537  0.00  0.00    +0.382 N 
ATOM     38  H   LIG    1       10.878   7.892   1.742  0.00  0.00    -0.090 HD
ATOM     39  H   LIG    1       12.458   7.611   2.189  0.00  0.00    -0.090 HD
ATOM     40  H   LIG    1       11.479   8.551   3.150  0.00  0.00    -0.090 HD
ENDBRANCH  36  37
ENDBRANCH  34  36
ENDBRANCH  33  34
ENDBRANCH  31  33
ENDBRANCH  30  31
BRANCH  30  41
ATOM     41  C   LIG    1        6.561   5.832   0.794  0.00  0.00    +0.034 C 
BRANCH  41  42
ATOM     42  C   LIG    1        5.738   6.021  -0.482  0.00  0.00    +0.000 C 
BRANCH  42  43
ATOM     43  C   LIG    1        5.721   4.712  -1.275  0.00  0.00    -0.019 C 
BRANCH  43  44
ATOM     44  C   LIG    1        4.897   4.900  -2.551  0.00  0.00    -0.086 C 
BRANCH  44  45
ATOM     45  N   LIG    1        4.906   3.642  -3.317  0.00  0.00    +0.378 N 
ATOM     46  H   LIG    1        5.871   3.415  -3.584  0.00  0.00    -0.090 HD
ATOM     47  H   LIG    1        4.343   3.743  -4.161  0.00  0.00    -0.090 HD
ATOM     48  H   LIG    1        4.531   2.884  -2.749  0.00  0.00    -0.090 HD
ENDBRANCH  44  45
ENDBRANCH  43  44
ENDBRANCH  42  43
ENDBRANCH  41  42
ENDBRANCH  30  41
ENDBRANCH  26  30
ENDBRANCH   1  28
TORSDOF 14
