REMARK  Name = ZINC15834212
REMARK                            x       y       z     vdW  Elec       q    Type
REMARK                         _______ _______ _______ _____ _____    ______ ____
ROOT
ATOM      1  C   LIG    1        0.916  -2.212   0.251  0.00  0.00    +0.069 A 
ATOM      2  C   LIG    1        1.177  -0.898   0.551  0.00  0.00    +0.089 A 
ATOM      3  C   LIG    1       -0.080  -0.148   0.297  0.00  0.00    +0.082 A 
ATOM      4  N   LIG    1       -0.099   1.235   0.526  0.00  0.00    -0.294 N 
ATOM      5  C   LIG    1       -1.307   2.030   0.289  0.00  0.00    +0.154 C 
ATOM      6  C   LIG    1        1.043   1.806   0.969  0.00  0.00    +0.332 A 
ATOM      7  N   LIG    1        2.190   1.163   1.207  0.00  0.00    -0.263 N 
ATOM      8  C   LIG    1        3.334   1.945   1.684  0.00  0.00    +0.157 C 
ATOM      9  O   LIG    1        1.025   3.005   1.168  0.00  0.00    -0.246 OA
ATOM     10  C   LIG    1       -0.968  -1.033  -0.133  0.00  0.00    +0.073 A 
ATOM     11  C   LIG    1       -2.400  -0.819  -0.571  0.00  0.00    +0.150 C 
ATOM     12  N   LIG    1       -3.123  -2.087  -0.392  0.00  0.00    -0.330 N 
ATOM     13  H   LIG    1       -4.038  -2.081  -0.070  0.00  0.00    +0.147 HD
ATOM     14  C   LIG    1       -2.494  -3.302  -0.684  0.00  0.00    +0.052 A 
ATOM     15  C   LIG    1       -3.233  -4.391  -1.121  0.00  0.00    +0.025 A 
ATOM     16  C   LIG    1       -2.602  -5.592  -1.385  0.00  0.00    +0.002 A 
ATOM     17  C   LIG    1       -1.235  -5.717  -1.214  0.00  0.00    +0.002 A 
ATOM     18  C   LIG    1       -0.487  -4.634  -0.786  0.00  0.00    +0.028 A 
ATOM     19  C   LIG    1       -1.110  -3.428  -0.532  0.00  0.00    +0.068 A 
ATOM     20  C   LIG    1        2.358  -0.173   1.032  0.00  0.00    +0.266 A 
ATOM     21  O   LIG    1        3.415  -0.731   1.257  0.00  0.00    -0.267 OA
ATOM     22  N   LIG    1       -0.382  -2.291  -0.150  0.00  0.00    -0.306 N 
ENDROOT
BRANCH   1  28
ATOM     23  C   LIG    1        5.247  -4.316  -1.051  0.00  0.00    +0.044 C 
ATOM     24  C   LIG    1        3.954  -4.351  -0.278  0.00  0.00    -0.050 A 
ATOM     25  C   LIG    1        3.658  -5.441   0.523  0.00  0.00    +0.003 A 
ATOM     26  C   LIG    1        2.474  -5.482   1.236  0.00  0.00    +0.001 A 
ATOM     27  C   LIG    1        1.580  -4.434   1.157  0.00  0.00    +0.010 A 
ATOM     28  C   LIG    1        1.869  -3.334   0.346  0.00  0.00    -0.000 A 
ATOM     29  C   LIG    1        3.068  -3.299  -0.371  0.00  0.00    +0.013 A 
ENDBRANCH   1  28
BRANCH  11  30
ATOM     30  C   LIG    1       -2.434  -0.412  -2.022  0.00  0.00    -0.018 A 
ATOM     31  C   LIG    1       -2.900   0.840  -2.378  0.00  0.00    +0.006 A 
ATOM     32  C   LIG    1       -2.932   1.216  -3.708  0.00  0.00    +0.004 A 
ATOM     33  C   LIG    1       -2.499   0.340  -4.685  0.00  0.00    +0.045 A 
ATOM     34  C   LIG    1       -2.031  -0.917  -4.331  0.00  0.00    +0.120 A 
ATOM     35  C   LIG    1       -1.995  -1.289  -2.995  0.00  0.00    +0.051 A 
BRANCH  34  36
ATOM     36  O   LIG    1       -1.605  -1.780  -5.290  0.00  0.00    -0.495 OA
ATOM     37  C   LIG    1       -1.667  -1.327  -6.644  0.00  0.00    +0.277 C 
ENDBRANCH  34  36
ENDBRANCH  11  30
TORSDOF 3
