REMARK  Name = ZINC22792413
REMARK                            x       y       z     vdW  Elec       q    Type
REMARK                         _______ _______ _______ _____ _____    ______ ____
ROOT
ATOM      1  O   LIG    1        0.137  -6.489   4.121  0.00  0.00    -0.366 OA
ENDROOT
BRANCH   1   2
ATOM      2  C   LIG    1        1.035  -6.718   3.034  0.00  0.00    +0.176 C 
BRANCH   2   3
ATOM      3  C   LIG    1        0.452  -6.114   1.754  0.00  0.00    +0.112 C 
BRANCH   3   8
ATOM      4  N   LIG    1        0.846  -1.964   1.055  0.00  0.00    +0.383 N 
ATOM      5  H   LIG    1        1.330  -2.159   0.191  0.00  0.00    -0.082 HD
ATOM      6  C   LIG    1       -0.501  -2.548   1.003  0.00  0.00    -0.063 C 
ATOM      7  C   LIG    1       -0.394  -4.060   0.790  0.00  0.00    +0.066 C 
ATOM      8  N   LIG    1        0.374  -4.654   1.893  0.00  0.00    -0.304 NA
ATOM      9  C   LIG    1        1.717  -4.061   1.973  0.00  0.00    +0.066 C 
ATOM     10  C   LIG    1        1.592  -2.550   2.176  0.00  0.00    -0.063 C 
BRANCH   4  11
ATOM     11  C   LIG    1        0.742  -0.511   1.242  0.00  0.00    -0.047 C 
BRANCH  11  13
ATOM     12  C   LIG    1        2.029   1.627   1.360  0.00  0.00    +0.035 C 
ATOM     13  C   LIG    1        2.134   0.116   1.144  0.00  0.00    +0.095 C 
BRANCH  13  14
ATOM     14  O   LIG    1        2.684  -0.143  -0.149  0.00  0.00    -0.394 OA
ATOM     15  H   LIG    1        3.567   0.227  -0.282  0.00  0.00    +0.210 HD
ENDBRANCH  13  14
ENDBRANCH  11  13
ENDBRANCH   4  11
ENDBRANCH   3   8
ENDBRANCH   2   3
ENDBRANCH   1   2
BRANCH   1  16
ATOM     16  C   LIG    1        0.589  -7.016   5.370  0.00  0.00    +0.178 C 
BRANCH  16  17
ATOM     17  C   LIG    1       -0.599  -7.397   6.214  0.00  0.00    -0.014 A 
ATOM     18  C   LIG    1       -1.760  -6.648   6.153  0.00  0.00    +0.009 A 
ATOM     19  C   LIG    1       -2.850  -6.997   6.926  0.00  0.00    +0.039 A 
ATOM     20  C   LIG    1       -2.781  -8.098   7.763  0.00  0.00    +0.123 A 
ATOM     21  F   LIG    1       -3.846  -8.439   8.521  0.00  0.00    -0.205 F 
ATOM     22  C   LIG    1       -1.618  -8.847   7.824  0.00  0.00    +0.039 A 
ATOM     23  C   LIG    1       -0.531  -8.500   7.046  0.00  0.00    +0.009 A 
ENDBRANCH  16  17
BRANCH  16  24
ATOM     24  C   LIG    1        1.403  -5.972   6.090  0.00  0.00    -0.014 A 
ATOM     25  C   LIG    1        1.002  -4.649   6.072  0.00  0.00    +0.009 A 
ATOM     26  C   LIG    1        1.748  -3.692   6.732  0.00  0.00    +0.039 A 
ATOM     27  C   LIG    1        2.897  -4.057   7.413  0.00  0.00    +0.123 A 
ATOM     28  F   LIG    1        3.627  -3.122   8.059  0.00  0.00    -0.205 F 
ATOM     29  C   LIG    1        3.297  -5.383   7.431  0.00  0.00    +0.039 A 
ATOM     30  C   LIG    1        2.547  -6.340   6.774  0.00  0.00    +0.009 A 
ENDBRANCH  16  24
ENDBRANCH   1  16
TORSDOF 9
