REMARK  Name = ZINC17747698
REMARK                            x       y       z     vdW  Elec       q    Type
REMARK                         _______ _______ _______ _____ _____    ______ ____
ROOT
ATOM      1  C   LIG    1        1.102   1.972   0.002  0.00  0.00    +0.188 A 
ATOM      2  N   LIG    1       -0.015   1.257   0.009  0.00  0.00    -0.126 NA
ATOM      3  N   LIG    1        0.002  -0.004   0.002  0.00  0.00    -0.144 NA
ATOM      4  C   LIG    1        1.127  -0.691  -0.012  0.00  0.00    +0.108 A 
ATOM      5  S   LIG    1        2.312   0.652  -0.017  0.00  0.00    -0.035 S 
ENDROOT
BRANCH   1   7
ATOM      6  C   LIG    1        0.212   4.169   0.023  0.00  0.00    +0.250 C 
ATOM      7  N   LIG    1        1.282   3.350   0.008  0.00  0.00    -0.259 N 
ATOM      8  H   LIG    1        2.298   3.772   0.000  0.00  0.00    +0.157 HD
ATOM      9  O   LIG    1       -0.911   3.702   0.032  0.00  0.00    -0.270 OA
BRANCH   6  13
ATOM     10  C   LIG    1        0.761   8.380   0.041  0.00  0.00    +0.120 A 
ATOM     11  C   LIG    1       -0.523   7.848   0.050  0.00  0.00    +0.046 A 
ATOM     12  C   LIG    1       -0.706   6.483   0.045  0.00  0.00    +0.016 A 
ATOM     13  C   LIG    1        0.403   5.632   0.029  0.00  0.00    +0.037 A 
ATOM     14  C   LIG    1        1.692   6.170   0.025  0.00  0.00    +0.016 A 
ATOM     15  C   LIG    1        1.866   7.536   0.025  0.00  0.00    +0.046 A 
BRANCH  10  17
ATOM     16  C   LIG    1        2.284  10.204   0.036  0.00  0.00    +0.277 C 
ATOM     17  O   LIG    1        0.937   9.725   0.046  0.00  0.00    -0.495 OA
ENDBRANCH  10  17
ENDBRANCH   6  13
ENDBRANCH   1   7
BRANCH   4  18
ATOM     18  C   LIG    1        1.352  -2.181  -0.023  0.00  0.00    +0.102 C 
BRANCH  18  19
ATOM     19  C   LIG    1        1.413  -2.669  -1.448  0.00  0.00    -0.016 A 
ATOM     20  C   LIG    1        0.397  -3.176  -2.162  0.00  0.00    +0.087 A 
ATOM     21  N   LIG    1        0.829  -3.511  -3.417  0.00  0.00    -0.360 N 
ATOM     22  C   LIG    1        2.169  -3.221  -3.543  0.00  0.00    +0.047 A 
ATOM     23  C   LIG    1        3.085  -3.358  -4.580  0.00  0.00    +0.026 A 
ATOM     24  C   LIG    1        4.390  -2.952  -4.399  0.00  0.00    +0.002 A 
ATOM     25  C   LIG    1        4.803  -2.418  -3.187  0.00  0.00    +0.001 A 
ATOM     26  C   LIG    1        3.921  -2.278  -2.153  0.00  0.00    +0.010 A 
ATOM     27  H   LIG    1        0.126  -3.943  -4.144  0.00  0.00    +0.165 HD
ATOM     28  C   LIG    1        2.593  -2.675  -2.317  0.00  0.00    +0.003 A 
ENDBRANCH  18  19
ENDBRANCH   4  18
TORSDOF 5
