REMARK  Name = ZINC26569563
REMARK                            x       y       z     vdW  Elec       q    Type
REMARK                         _______ _______ _______ _____ _____    ______ ____
ROOT
ATOM      1  C   LIG    1        0.208   1.497   0.119  0.00  0.00    +0.061 C 
ATOM      2  C   LIG    1        0.112  -0.006   0.057  0.00  0.00    +0.016 C 
ATOM      3  C   LIG    1       -1.091  -0.599   0.143  0.00  0.00    +0.065 C 
ATOM      4  C   LIG    1       -1.233  -2.094   0.096  0.00  0.00    +0.096 C 
ATOM      5  C   LIG    1        0.019  -2.730  -0.438  0.00  0.00    +0.065 C 
ATOM      6  C   LIG    1        1.178  -2.052  -0.501  0.00  0.00    +0.016 C 
ATOM      7  C   LIG    1        2.411  -2.734  -1.036  0.00  0.00    +0.061 C 
ATOM      8  N   LIG    1        1.251  -0.750  -0.092  0.00  0.00    -0.321 N 
ATOM      9  H   LIG    1        2.115  -0.352   0.097  0.00  0.00    +0.152 HD
ENDROOT
BRANCH   4  10
ATOM     10  C   LIG    1       -1.498  -2.612   1.486  0.00  0.00    -0.033 A 
ATOM     11  C   LIG    1       -0.579  -2.387   2.494  0.00  0.00    +0.005 A 
ATOM     12  C   LIG    1       -0.822  -2.862   3.769  0.00  0.00    +0.003 A 
ATOM     13  C   LIG    1       -1.984  -3.562   4.036  0.00  0.00    +0.032 A 
ATOM     14  C   LIG    1       -2.903  -3.785   3.028  0.00  0.00    +0.122 A 
ATOM     15  C   LIG    1       -2.662  -3.307   1.754  0.00  0.00    +0.037 A 
BRANCH  14  16
ATOM     16  N   LIG    1       -4.147  -4.535   3.314  0.00  0.00    +0.006 N 
ATOM     17  O   LIG    1       -4.360  -4.951   4.429  0.00  0.00    -0.130 OA
BRANCH  16  18
ATOM     18  O   LIG    1       -4.951  -4.730   2.433  0.00  0.00    -0.396 OA
ATOM     19  H   LIG    1       -4.787  -4.408   1.568  0.00  0.00    +0.329 HD
ENDBRANCH  16  18
ENDBRANCH  14  16
ENDBRANCH   4  10
BRANCH   3  20
ATOM     20  C   LIG    1       -2.248   0.202   0.283  0.00  0.00    +0.337 C 
ATOM     21  O   LIG    1       -2.148   1.414   0.323  0.00  0.00    -0.245 OA
BRANCH  20  22
ATOM     22  O   LIG    1       -3.463  -0.379   0.371  0.00  0.00    -0.465 OA
ATOM     23  C   LIG    1       -4.589   0.491   0.510  0.00  0.00    +0.280 C 
ENDBRANCH  20  22
ENDBRANCH   3  20
BRANCH   5  24
ATOM     24  C   LIG    1       -0.022  -4.072  -0.883  0.00  0.00    +0.338 C 
ATOM     25  O   LIG    1       -0.451  -4.332  -1.992  0.00  0.00    -0.245 OA
BRANCH  24  26
ATOM     26  O   LIG    1        0.413  -5.063  -0.078  0.00  0.00    -0.460 OA
BRANCH  26  27
ATOM     27  C   LIG    1        0.342  -6.395  -0.592  0.00  0.00    +0.159 C 
ATOM     28  C   LIG    1       -0.990  -7.060  -0.177  0.00  0.00    +0.024 C 
ATOM     29  C   LIG    1       -0.566  -8.515   0.144  0.00  0.00    -0.075 C 
ATOM     30  N   LIG    1        0.762  -8.347   0.789  0.00  0.00    +0.385 N 
ATOM     31  H   LIG    1        0.648  -8.079   1.755  0.00  0.00    -0.081 HD
ATOM     32  C   LIG    1        1.443  -7.269   0.035  0.00  0.00    -0.033 C 
BRANCH  30  33
ATOM     33  C   LIG    1        1.532  -9.595   0.695  0.00  0.00    -0.043 C 
BRANCH  33  34
ATOM     34  C   LIG    1        0.862 -10.662   1.522  0.00  0.00    -0.064 A 
ATOM     35  C   LIG    1        1.200 -10.819   2.853  0.00  0.00    +0.002 A 
ATOM     36  C   LIG    1        0.586 -11.798   3.611  0.00  0.00    +0.000 A 
ATOM     37  C   LIG    1       -0.367 -12.620   3.039  0.00  0.00    +0.000 A 
ATOM     38  C   LIG    1       -0.705 -12.462   1.708  0.00  0.00    +0.000 A 
ATOM     39  C   LIG    1       -0.094 -11.480   0.950  0.00  0.00    +0.002 A 
ENDBRANCH  33  34
ENDBRANCH  30  33
ENDBRANCH  26  27
ENDBRANCH  24  26
ENDBRANCH   5  24
TORSDOF 10
