REMARK  Name = ZINC29038909
REMARK                            x       y       z     vdW  Elec       q    Type
REMARK                         _______ _______ _______ _____ _____    ______ ____
ROOT
ATOM      1  N   LIG    1        1.241  -2.067  -0.182  0.00  0.00    -0.269 N 
ATOM      2  H   LIG    1        0.314  -2.613   0.046  0.00  0.00    +0.156 HD
ATOM      3  C   LIG    1        2.405  -2.736  -0.302  0.00  0.00    +0.308 C 
ATOM      4  N   LIG    1        2.416  -4.083  -0.247  0.00  0.00    -0.269 N 
ATOM      5  H   LIG    1        1.469  -4.639  -0.190  0.00  0.00    +0.156 HD
ATOM      6  O   LIG    1        3.444  -2.125  -0.461  0.00  0.00    -0.252 OA
ENDROOT
BRANCH   1  10
ATOM      7  C   LIG    1        1.158   2.074  -0.672  0.00  0.00    +0.120 A 
ATOM      8  C   LIG    1        2.052   1.307  -1.404  0.00  0.00    +0.047 A 
ATOM      9  C   LIG    1        2.080  -0.065  -1.242  0.00  0.00    +0.027 A 
ATOM     10  C   LIG    1        1.213  -0.675  -0.346  0.00  0.00    +0.035 A 
ATOM     11  C   LIG    1        0.318   0.093   0.386  0.00  0.00    +0.027 A 
ATOM     12  C   LIG    1        0.291   1.464   0.224  0.00  0.00    +0.047 A 
BRANCH   7  14
ATOM     13  C   LIG    1        0.185   4.151  -0.045  0.00  0.00    +0.277 C 
ATOM     14  O   LIG    1        1.131   3.424  -0.831  0.00  0.00    -0.495 OA
ENDBRANCH   7  14
ENDBRANCH   1  10
BRANCH   4  15
ATOM     15  C   LIG    1        3.633  -4.773  -0.263  0.00  0.00    +0.035 A 
ATOM     16  C   LIG    1        3.717  -6.021  -0.866  0.00  0.00    +0.025 A 
ATOM     17  C   LIG    1        4.921  -6.698  -0.884  0.00  0.00    +0.029 A 
ATOM     18  C   LIG    1        6.039  -6.139  -0.292  0.00  0.00    +0.088 A 
ATOM     19  C   LIG    1        5.957  -4.899   0.314  0.00  0.00    +0.029 A 
ATOM     20  C   LIG    1        4.758  -4.215   0.331  0.00  0.00    +0.025 A 
BRANCH  18  21
ATOM     21  S   LIG    1        7.571  -7.009  -0.311  0.00  0.00    -0.006 S 
ATOM     22  C   LIG    1        7.558  -8.009   1.202  0.00  0.00    +0.200 C 
ATOM     23  O   LIG    1        8.564  -5.996  -0.220  0.00  0.00    -0.170 OA
ATOM     24  O   LIG    1        7.497  -7.849  -1.455  0.00  0.00    -0.170 OA
ENDBRANCH  18  21
ENDBRANCH   4  15
TORSDOF 4
