REMARK  Name = ZINC20581813
REMARK                            x       y       z     vdW  Elec       q    Type
REMARK                         _______ _______ _______ _____ _____    ______ ____
ROOT
ATOM      1  C   LIG    1       -1.413  -2.063   0.004  0.00  0.00    +0.267 C 
ENDROOT
BRANCH   1   2
ATOM      2  P   LIG    1       -3.123  -2.695   0.017  0.00  0.00    +0.371 P 
ATOM      3  O   LIG    1       -3.846  -2.196   1.289  0.00  0.00    -0.255 OA
BRANCH   2   4
ATOM      4  O   LIG    1       -3.101  -4.304   0.009  0.00  0.00    -0.322 OA
ATOM      5  H   LIG    1       -3.979  -4.710   0.015  0.00  0.00    +0.220 HD
ENDBRANCH   2   4
BRANCH   2   6
ATOM      6  O   LIG    1       -3.870  -2.183  -1.234  0.00  0.00    -0.322 OA
ATOM      7  H   LIG    1       -3.883  -1.213  -1.229  0.00  0.00    +0.220 HD
ENDBRANCH   2   6
ENDBRANCH   1   2
BRANCH   1   8
ATOM      8  P   LIG    1       -0.531  -2.667   1.481  0.00  0.00    +0.371 P 
ATOM      9  O   LIG    1        0.972  -2.232   1.407  0.00  0.00    -0.255 OA
BRANCH   8  10
ATOM     10  O   LIG    1       -0.620  -4.230   1.540  0.00  0.00    -0.322 OA
ATOM     11  H   LIG    1       -0.213  -4.607   0.744  0.00  0.00    +0.220 HD
ENDBRANCH   8  10
BRANCH   8  12
ATOM     12  O   LIG    1       -1.188  -2.059   2.767  0.00  0.00    -0.322 OA
ATOM     13  H   LIG    1       -1.133  -1.091   2.731  0.00  0.00    +0.220 HD
ENDBRANCH   8  12
ENDBRANCH   1   8
BRANCH   1  14
ATOM     14  O   LIG    1       -0.744  -2.524  -1.171  0.00  0.00    -0.367 OA
ATOM     15  H   LIG    1       -1.159  -2.240  -1.997  0.00  0.00    +0.212 HD
ENDBRANCH   1  14
BRANCH   1  16
ATOM     16  C   LIG    1       -1.433  -0.534   0.013  0.00  0.00    +0.060 C 
BRANCH  16  18
ATOM     17  C   LIG    1       -0.019   1.526   0.010  0.00  0.00    +0.004 C 
ATOM     18  C   LIG    1        0.002  -0.004   0.002  0.00  0.00    +0.001 C 
ENDBRANCH  16  18
ENDBRANCH   1  16
TORSDOF 9
