REMARK  Name = ZINC00021169
REMARK                            x       y       z     vdW  Elec       q    Type
REMARK                         _______ _______ _______ _____ _____    ______ ____
ROOT
ATOM      1  C   LIG    1       -2.630  -4.204  -0.169  0.00  0.00    +0.021 C 
ATOM      2  C   LIG    1       -4.149  -4.166   0.100  0.00  0.00    +0.013 C 
ATOM      3  C   LIG    1       -4.562  -2.816  -0.524  0.00  0.00    +0.036 C 
ATOM      4  C   LIG    1       -3.318  -1.956  -0.467  0.00  0.00    -0.044 A 
ATOM      5  C   LIG    1       -3.172  -0.583  -0.584  0.00  0.00    +0.007 A 
ATOM      6  C   LIG    1       -1.920  -0.007  -0.499  0.00  0.00    +0.046 A 
ATOM      7  C   LIG    1       -0.804  -0.805  -0.295  0.00  0.00    +0.120 A 
ATOM      8  C   LIG    1       -0.951  -2.179  -0.182  0.00  0.00    +0.049 A 
ATOM      9  C   LIG    1       -2.207  -2.753  -0.263  0.00  0.00    -0.038 A 
ENDROOT
BRANCH   7  10
ATOM     10  O   LIG    1        0.430  -0.243  -0.211  0.00  0.00    -0.495 OA
ATOM     11  C   LIG    1        0.505   1.178  -0.342  0.00  0.00    +0.277 C 
ENDBRANCH   7  10
BRANCH   1  12
ATOM     12  C   LIG    1       -1.903  -4.895   0.986  0.00  0.00    +0.027 C 
BRANCH  12  13
ATOM     13  C   LIG    1       -2.319  -6.367   1.043  0.00  0.00    +0.105 C 
BRANCH  13  15
ATOM     14  C   LIG    1       -1.731  -8.370   2.299  0.00  0.00    +0.213 C 
ATOM     15  N   LIG    1       -1.534  -7.057   2.069  0.00  0.00    -0.315 N 
ATOM     16  H   LIG    1       -0.872  -6.569   2.584  0.00  0.00    +0.149 HD
ATOM     17  O   LIG    1       -2.558  -8.981   1.656  0.00  0.00    -0.276 OA
BRANCH  14  19
ATOM     18  C   LIG    1       -1.339 -10.551   3.412  0.00  0.00    +0.013 C 
ATOM     19  C   LIG    1       -0.923  -9.080   3.354  0.00  0.00    +0.092 C 
ENDBRANCH  14  19
ENDBRANCH  13  15
ENDBRANCH  12  13
ENDBRANCH   1  12
TORSDOF 5
