REMARK  Name = ZINC28230897
REMARK                            x       y       z     vdW  Elec       q    Type
REMARK                         _______ _______ _______ _____ _____    ______ ____
ROOT
ATOM      1  C   LIG    1        3.116   5.640   6.026  0.00  0.00    +0.223 C 
ATOM      2  N   LIG    1        2.081   5.714   5.167  0.00  0.00    -0.312 N 
ATOM      3  H   LIG    1        1.106   6.090   5.511  0.00  0.00    +0.149 HD
ATOM      4  O   LIG    1        4.191   5.225   5.646  0.00  0.00    -0.275 OA
ENDROOT
BRANCH   2   5
ATOM      5  C   LIG    1        2.253   5.294   3.774  0.00  0.00    +0.069 C 
ATOM      6  C   LIG    1        1.230   6.014   2.892  0.00  0.00    +0.003 C 
ATOM      7  C   LIG    1        1.374   5.526   1.449  0.00  0.00    -0.077 C 
ATOM      8  N   LIG    1        1.156   4.075   1.397  0.00  0.00    +0.382 N 
ATOM      9  H   LIG    1        0.167   3.869   1.833  0.00  0.00    -0.081 HD
ATOM     10  C   LIG    1        2.156   3.359   2.199  0.00  0.00    -0.077 C 
ATOM     11  C   LIG    1        2.035   3.783   3.665  0.00  0.00    +0.003 C 
BRANCH   8  12
ATOM     12  C   LIG    1        1.150   3.592   0.010  0.00  0.00    -0.043 C 
BRANCH  12  13
ATOM     13  C   LIG    1        1.171   2.086   0.002  0.00  0.00    -0.064 A 
ATOM     14  C   LIG    1       -0.017   1.378   0.010  0.00  0.00    +0.003 A 
ATOM     15  C   LIG    1        0.002  -0.004   0.002  0.00  0.00    +0.020 A 
ATOM     16  C   LIG    1        1.210  -0.679  -0.013  0.00  0.00    +0.041 A 
ATOM     17 CL   LIG    1        1.234  -2.415  -0.022  0.00  0.00    -0.084 Cl
ATOM     18  C   LIG    1        2.398   0.030  -0.021  0.00  0.00    +0.020 A 
ATOM     19  C   LIG    1        2.378   1.412  -0.013  0.00  0.00    +0.003 A 
ENDBRANCH  12  13
ENDBRANCH   8  12
ENDBRANCH   2   5
BRANCH   1  20
ATOM     20  C   LIG    1        2.939   6.072   7.459  0.00  0.00    +0.172 C 
BRANCH  20  21
ATOM     21  S   LIG    1        4.498   5.854   8.352  0.00  0.00    -0.089 S 
BRANCH  21  28
ATOM     22  C   LIG    1        4.227   7.583  14.552  0.00  0.00    +0.002 A 
ATOM     23  C   LIG    1        2.892   7.955  14.484  0.00  0.00    +0.001 A 
ATOM     24  C   LIG    1        2.215   7.833  13.284  0.00  0.00    +0.017 A 
ATOM     25  C   LIG    1        2.873   7.347  12.182  0.00  0.00    +0.040 A 
ATOM     26  C   LIG    1        4.231   6.958  12.213  0.00  0.00    +0.079 A 
ATOM     27  N   LIG    1        4.736   6.500  11.047  0.00  0.00    -0.233 NA
ATOM     28  C   LIG    1        4.017   6.419   9.950  0.00  0.00    +0.136 A 
ATOM     29  S   LIG    1        2.428   7.035  10.490  0.00  0.00    -0.061 S 
ATOM     30  C   LIG    1        4.891   7.096  13.456  0.00  0.00    +0.029 A 
ENDBRANCH  21  28
ENDBRANCH  20  21
ENDBRANCH   1  20
TORSDOF 6
