REMARK  Name = ZINC14852066
REMARK                            x       y       z     vdW  Elec       q    Type
REMARK                         _______ _______ _______ _____ _____    ______ ____
ROOT
ATOM      1  C   LIG    1       -0.019   1.526   0.010  0.00  0.00    +0.052 C 
ATOM      2  C   LIG    1        0.002  -0.004   0.002  0.00  0.00    +0.177 C 
ATOM      3  C   LIG    1        0.712  -0.494  -1.260  0.00  0.00    +0.071 C 
ATOM      4  C   LIG    1        1.380   0.657  -1.958  0.00  0.00    -0.020 C 
ATOM      5  C   LIG    1        2.702   0.818  -1.849  0.00  0.00    +0.045 C 
ATOM      6  C   LIG    1        3.368   1.925  -2.543  0.00  0.00    +0.187 C 
ATOM      7  C   LIG    1        4.856   2.100  -2.447  0.00  0.00    +0.213 C 
ATOM      8  C   LIG    1        5.189   3.018  -1.268  0.00  0.00    +0.154 C 
ATOM      9  C   LIG    1        6.036   2.251  -0.248  0.00  0.00    +0.061 C 
ATOM     10  C   LIG    1        5.282   2.151   1.054  0.00  0.00    -0.024 C 
ATOM     11  C   LIG    1        4.604   1.053   1.336  0.00  0.00    +0.005 C 
ATOM     12  C   LIG    1        3.839   0.890   2.580  0.00  0.00    -0.004 A 
ATOM     13  C   LIG    1        4.386   1.316   3.790  0.00  0.00    +0.054 A 
ATOM     14  C   LIG    1        3.682   1.145   4.974  0.00  0.00    +0.124 A 
ATOM     15  C   LIG    1        2.425   0.553   4.968  0.00  0.00    +0.091 A 
ATOM     16  C   LIG    1        1.863   0.132   3.776  0.00  0.00    +0.135 A 
ATOM     17  C   LIG    1        2.561   0.295   2.569  0.00  0.00    +0.108 A 
ATOM     18  C   LIG    1        1.978  -0.142   1.296  0.00  0.00    +0.344 C 
ATOM     19  O   LIG    1        2.697  -0.204   0.317  0.00  0.00    -0.245 OA
ATOM     20  O   LIG    1        2.712   2.706  -3.200  0.00  0.00    -0.290 OA
ATOM     21  O   LIG    1        0.688  -0.475   1.164  0.00  0.00    -0.458 OA
ENDROOT
BRANCH   7  22
ATOM     22  O   LIG    1        5.346   2.682  -3.656  0.00  0.00    -0.381 OA
ATOM     23  H   LIG    1        5.171   2.153  -4.447  0.00  0.00    +0.210 HD
ENDBRANCH   7  22
BRANCH   8  24
ATOM     24  O   LIG    1        3.979   3.457  -0.649  0.00  0.00    -0.388 OA
ATOM     25  H   LIG    1        4.114   4.043   0.108  0.00  0.00    +0.210 HD
ENDBRANCH   8  24
BRANCH  14  26
ATOM     26  O   LIG    1        4.225   1.560   6.146  0.00  0.00    -0.495 OA
ATOM     27  C   LIG    1        3.450   1.356   7.329  0.00  0.00    +0.277 C 
ENDBRANCH  14  26
BRANCH  16  28
ATOM     28  O   LIG    1        0.633  -0.439   3.774  0.00  0.00    -0.506 OA
ATOM     29  H   LIG    1       -0.093   0.190   3.667  0.00  0.00    +0.292 HD
ENDBRANCH  16  28
TORSDOF 4
