REMARK  Name = ZINC27730947
REMARK                            x       y       z     vdW  Elec       q    Type
REMARK                         _______ _______ _______ _____ _____    ______ ____
ROOT
ATOM      1  C   LIG    1       -2.149  -4.380   0.213  0.00  0.00    +0.035 C 
ENDROOT
BRANCH   1   6
ATOM      2  C   LIG    1       -1.137  -0.743   0.043  0.00  0.00    +0.129 A 
ATOM      3  C   LIG    1       -2.375  -0.115   0.021  0.00  0.00    +0.046 A 
ATOM      4  C   LIG    1       -3.531  -0.869   0.062  0.00  0.00    +0.004 A 
ATOM      5  C   LIG    1       -3.457  -2.248   0.124  0.00  0.00    +0.004 A 
ATOM      6  C   LIG    1       -2.226  -2.877   0.146  0.00  0.00    -0.044 A 
ATOM      7  C   LIG    1       -1.066  -2.128   0.101  0.00  0.00    +0.050 A 
BRANCH   2   8
ATOM      8  O   LIG    1        0.002  -0.004   0.002  0.00  0.00    -0.456 OA
BRANCH   8  12
ATOM      9  C   LIG    1        1.650   1.213   3.583  0.00  0.00    +0.000 A 
ATOM     10  C   LIG    1        2.252   1.567   2.390  0.00  0.00    +0.004 A 
ATOM     11  C   LIG    1        1.703   1.161   1.190  0.00  0.00    +0.046 A 
ATOM     12  C   LIG    1        0.545   0.397   1.181  0.00  0.00    +0.128 A 
ATOM     13  C   LIG    1       -0.061   0.047   2.380  0.00  0.00    +0.046 A 
ATOM     14  C   LIG    1        0.496   0.452   3.578  0.00  0.00    +0.004 A 
ENDBRANCH   8  12
ENDBRANCH   2   8
ENDBRANCH   1   6
BRANCH   1  15
ATOM     15  C   LIG    1       -2.131  -4.954  -1.206  0.00  0.00    +0.007 C 
BRANCH  15  16
ATOM     16  C   LIG    1       -2.053  -6.480  -1.138  0.00  0.00    +0.041 C 
BRANCH  16  17
ATOM     17  C   LIG    1       -2.035  -7.054  -2.556  0.00  0.00    +0.272 C 
BRANCH  17  18
ATOM     18  S   LIG    1       -3.611  -6.690  -3.376  0.00  0.00    +0.094 S 
ATOM     19  O   LIG    1       -3.682  -7.366  -4.624  0.00  0.00    -0.147 OA
ATOM     20  O   LIG    1       -3.901  -5.301  -3.286  0.00  0.00    -0.147 OA
BRANCH  18  21
ATOM     21  O   LIG    1       -4.667  -7.363  -2.510  0.00  0.00    -0.253 OA
ATOM     22  H   LIG    1       -4.677  -6.949  -1.632  0.00  0.00    +0.244 HD
ENDBRANCH  18  21
ENDBRANCH  17  18
BRANCH  17  23
ATOM     23  P   LIG    1       -1.792  -8.859  -2.478  0.00  0.00    +0.354 P 
ATOM     24  O   LIG    1       -2.900  -9.473  -1.712  0.00  0.00    -0.257 OA
BRANCH  23  25
ATOM     25  O   LIG    1       -0.393  -9.182  -1.751  0.00  0.00    -0.323 OA
ATOM     26  H   LIG    1       -0.073 -10.225  -1.611  0.00  0.00    +0.220 HD
ENDBRANCH  23  25
BRANCH  23  27
ATOM     27  O   LIG    1       -1.773  -9.462  -3.971  0.00  0.00    -0.323 OA
ATOM     28  H   LIG    1       -2.616  -9.268  -4.409  0.00  0.00    +0.220 HD
ENDBRANCH  23  27
ENDBRANCH  17  23
ENDBRANCH  16  17
ENDBRANCH  15  16
ENDBRANCH   1  15
TORSDOF 11
