REMARK  Name = ZINC53190616
REMARK                            x       y       z     vdW  Elec       q    Type
REMARK                         _______ _______ _______ _____ _____    ______ ____
ROOT
ATOM      1  N   LIG    1        1.151  -2.826   1.401  0.00  0.00    +0.391 N 
ATOM      2  H   LIG    1        0.300  -2.677   1.923  0.00  0.00    -0.080 HD
ATOM      3  C   LIG    1        2.252  -2.121   2.060  0.00  0.00    -0.075 C 
ATOM      4  C   LIG    1        2.416  -2.587   3.502  0.00  0.00    +0.003 C 
ATOM      5  C   LIG    1        1.047  -2.935   4.092  0.00  0.00    +0.119 C 
ATOM      6  N   LIG    1        0.745  -4.341   3.800  0.00  0.00    -0.352 N 
ATOM      7  C   LIG    1        0.262  -5.264   4.677  0.00  0.00    +0.086 A 
ATOM      8  C   LIG    1        0.103  -6.429   4.017  0.00  0.00    +0.019 A 
ATOM      9  C   LIG    1        0.508  -6.219   2.684  0.00  0.00    +0.021 A 
ATOM     10  C   LIG    1        0.903  -4.935   2.580  0.00  0.00    +0.010 A 
ATOM     11  C   LIG    1        1.439  -4.265   1.338  0.00  0.00    +0.012 C 
ENDROOT
BRANCH  11  12
ATOM     12  C   LIG    1        0.778  -4.859   0.121  0.00  0.00    -0.037 A 
ATOM     13  C   LIG    1       -0.584  -4.717  -0.064  0.00  0.00    +0.004 A 
ATOM     14  C   LIG    1       -1.191  -5.261  -1.181  0.00  0.00    +0.000 A 
ATOM     15  C   LIG    1       -0.435  -5.947  -2.113  0.00  0.00    +0.001 A 
ATOM     16  C   LIG    1        0.927  -6.090  -1.929  0.00  0.00    +0.020 A 
ATOM     17  C   LIG    1        1.536  -5.540  -0.815  0.00  0.00    +0.043 A 
ATOM     18 CL   LIG    1        3.248  -5.713  -0.586  0.00  0.00    -0.083 Cl
ENDBRANCH  11  12
BRANCH   1  19
ATOM     19  C   LIG    1        0.983  -2.303   0.038  0.00  0.00    -0.038 C 
BRANCH  19  24
ATOM     20  C   LIG    1       -1.169   0.798   0.125  0.00  0.00    +0.000 A 
ATOM     21  C   LIG    1       -0.217   1.796   0.222  0.00  0.00    +0.004 A 
ATOM     22  C   LIG    1        1.125   1.471   0.259  0.00  0.00    +0.045 A 
ATOM     23  C   LIG    1        1.517   0.142   0.200  0.00  0.00    +0.118 A 
ATOM     24  C   LIG    1        0.560  -0.858   0.103  0.00  0.00    -0.022 A 
ATOM     25  C   LIG    1       -0.781  -0.527   0.066  0.00  0.00    +0.005 A 
BRANCH  23  26
ATOM     26  O   LIG    1        2.837  -0.180   0.236  0.00  0.00    -0.507 OA
ATOM     27  H   LIG    1        3.206  -0.226   1.129  0.00  0.00    +0.292 HD
ENDBRANCH  23  26
ENDBRANCH  19  24
ENDBRANCH   1  19
TORSDOF 4
