REMARK  Name = ZINC16974640
REMARK                            x       y       z     vdW  Elec       q    Type
REMARK                         _______ _______ _______ _____ _____    ______ ____
ROOT
ATOM      1  C   LIG    1        4.779   1.456   0.068  0.00  0.00    +0.156 C 
ATOM      2  N   LIG    1        4.994   0.151   0.070  0.00  0.00    -0.154 NA
ATOM      3  C   LIG    1        6.201  -0.365   0.161  0.00  0.00    +0.276 C 
ATOM      4  C   LIG    1        7.319   0.593   0.261  0.00  0.00    +0.079 C 
ATOM      5  C   LIG    1        8.674   0.360   0.365  0.00  0.00    +0.020 C 
ATOM      6  O   LIG    1        6.386  -1.573   0.162  0.00  0.00    -0.267 OA
ATOM      7  S   LIG    1        6.424   2.140   0.199  0.00  0.00    -0.051 S 
ENDROOT
BRANCH   1   8
ATOM      8  N   LIG    1        3.583   2.124  -0.021  0.00  0.00    -0.296 N 
ATOM      9  H   LIG    1        3.572   3.099  -0.159  0.00  0.00    +0.154 HD
BRANCH   8  12
ATOM     10  C   LIG    1        1.155  -0.498   0.844  0.00  0.00    +0.003 A 
ATOM     11  C   LIG    1        2.346   0.196   0.740  0.00  0.00    +0.023 A 
ATOM     12  C   LIG    1        2.380   1.420   0.085  0.00  0.00    +0.034 A 
ATOM     13  C   LIG    1        1.216   1.943  -0.465  0.00  0.00    +0.038 A 
ATOM     14  C   LIG    1        0.029   1.245  -0.358  0.00  0.00    +0.020 A 
ATOM     15 BR   LIG    1       -1.556   1.956  -1.105  0.00  0.00    -0.050 Br
ATOM     16  C   LIG    1       -0.001   0.025   0.296  0.00  0.00    +0.015 A 
ENDBRANCH   8  12
ENDBRANCH   1   8
BRANCH   5  17
ATOM     17  C   LIG    1        9.566   1.439   0.449  0.00  0.00    +0.005 C 
ATOM     18  C   LIG    1       10.904   1.210   0.552  0.00  0.00    +0.046 C 
BRANCH  18  19
ATOM     19  C   LIG    1       11.804   2.297   0.636  0.00  0.00    +0.128 A 
ATOM     20  C   LIG    1       13.179   2.210   0.739  0.00  0.00    +0.049 A 
ATOM     21  C   LIG    1       13.658   3.528   0.793  0.00  0.00    +0.042 A 
ATOM     22  C   LIG    1       12.586   4.347   0.724  0.00  0.00    +0.195 A 
ATOM     23  O   LIG    1       11.473   3.605   0.625  0.00  0.00    -0.464 OA
ENDBRANCH  18  19
ENDBRANCH   5  17
TORSDOF 4
