REMARK  Name = ZINC14980238
REMARK                            x       y       z     vdW  Elec       q    Type
REMARK                         _______ _______ _______ _____ _____    ______ ____
ROOT
ATOM      1  C   LIG    1       -0.018   1.503   0.010  0.00  0.00    +0.044 C 
ATOM      2  C   LIG    1        0.002  -0.004   0.002  0.00  0.00    -0.047 A 
ATOM      3  C   LIG    1        0.006  -0.685  -1.207  0.00  0.00    +0.004 A 
ATOM      4  C   LIG    1        0.024  -2.051  -1.233  0.00  0.00    +0.017 A 
ATOM      5  C   LIG    1        0.039  -2.768  -0.035  0.00  0.00    +0.084 A 
ATOM      6  C   LIG    1        0.036  -2.083   1.190  0.00  0.00    +0.171 A 
ATOM      7  O   LIG    1        0.053  -3.013   2.167  0.00  0.00    -0.351 OA
ATOM      8  N   LIG    1        0.067  -4.303   1.588  0.00  0.00    -0.039 NA
ATOM      9  C   LIG    1        0.060  -4.201   0.290  0.00  0.00    +0.260 A 
ATOM     10  C   LIG    1        0.023  -0.694   1.195  0.00  0.00    +0.053 A 
ENDROOT
BRANCH   9  11
ATOM     11  O   LIG    1        0.068  -5.227  -0.597  0.00  0.00    -0.490 OA
ATOM     12  H   LIG    1        0.062  -5.051  -1.517  0.00  0.00    +0.294 HD
ENDBRANCH   9  11
TORSDOF 1
