REMARK  Name = ZINC13831245
REMARK                            x       y       z     vdW  Elec       q    Type
REMARK                         _______ _______ _______ _____ _____    ______ ____
ROOT
ATOM      1  C   LIG    1       -0.017   1.384   0.027  0.00  0.00    +0.021 A 
ATOM      2  C   LIG    1        1.153   2.092   0.023  0.00  0.00    +0.015 A 
ATOM      3  C   LIG    1        2.372   1.415  -0.004  0.00  0.00    +0.046 A 
ATOM      4  C   LIG    1        2.400   0.009  -0.027  0.00  0.00    +0.054 A 
ATOM      5  N   LIG    1        3.603  -0.661  -0.055  0.00  0.00    -0.344 N 
ATOM      6  C   LIG    1        4.785  -0.031  -0.061  0.00  0.00    +0.103 A 
ATOM      7  C   LIG    1        4.885   1.345  -0.041  0.00  0.00    +0.100 A 
ATOM      8  C   LIG    1        1.198  -0.692  -0.021  0.00  0.00    +0.046 A 
ATOM      9  C   LIG    1        3.652   2.147  -0.010  0.00  0.00    +0.201 A 
ATOM     10  O   LIG    1        3.687   3.365   0.008  0.00  0.00    -0.286 OA
ATOM     11  C   LIG    1        0.002  -0.005   0.005  0.00  0.00    +0.043 A 
ATOM     12 CL   LIG    1       -1.494  -0.884   0.011  0.00  0.00    -0.083 Cl
ENDROOT
BRANCH   7  13
ATOM     13  C   LIG    1        6.203   1.999  -0.048  0.00  0.00    +0.249 C 
ATOM     14  N   LIG    1        6.288   3.341  -0.144  0.00  0.00    -0.308 N 
ATOM     15  H   LIG    1        5.482   3.880  -0.133  0.00  0.00    +0.149 HD
ATOM     16  O   LIG    1        7.215   1.329   0.031  0.00  0.00    -0.270 OA
BRANCH  14  17
ATOM     17  C   LIG    1        7.598   3.985  -0.264  0.00  0.00    +0.073 C 
ATOM     18  C   LIG    1        8.194   4.192   1.130  0.00  0.00    +0.022 C 
ATOM     19  C   LIG    1        9.563   4.865   1.005  0.00  0.00    +0.002 C 
ATOM     20  C   LIG    1        9.404   6.219   0.311  0.00  0.00    +0.000 C 
ATOM     21  C   LIG    1        8.808   6.011  -1.083  0.00  0.00    +0.002 C 
ATOM     22  C   LIG    1        7.440   5.339  -0.958  0.00  0.00    +0.022 C 
ENDBRANCH  14  17
ENDBRANCH   7  13
BRANCH   5  23
ATOM     23  C   LIG    1        3.589  -2.126  -0.078  0.00  0.00    +0.137 C 
BRANCH  23  24
ATOM     24  C   LIG    1        3.564  -2.613  -1.528  0.00  0.00    +0.106 C 
BRANCH  24  25
ATOM     25  N   LIG    1        3.550  -4.082  -1.551  0.00  0.00    -0.296 NA
ATOM     26  C   LIG    1        4.810  -4.629  -1.027  0.00  0.00    +0.112 C 
ATOM     27  C   LIG    1        4.730  -6.158  -1.013  0.00  0.00    +0.175 C 
ATOM     28  O   LIG    1        4.443  -6.627  -2.334  0.00  0.00    -0.377 OA
ATOM     29  C   LIG    1        3.222  -6.114  -2.874  0.00  0.00    +0.175 C 
ATOM     30  C   LIG    1        3.288  -4.585  -2.907  0.00  0.00    +0.112 C 
ENDBRANCH  24  25
ENDBRANCH  23  24
ENDBRANCH   5  23
TORSDOF 5
