REMARK  Name = ZINC18177805
REMARK                            x       y       z     vdW  Elec       q    Type
REMARK                         _______ _______ _______ _____ _____    ______ ____
ROOT
ATOM      1  C   LIG    1        1.072  -0.453  -0.767  0.00  0.00    +0.025 A 
ATOM      2  C   LIG    1        2.256   0.259  -0.780  0.00  0.00    +0.030 A 
ATOM      3  C   LIG    1        2.376   1.417  -0.034  0.00  0.00    +0.105 A 
ATOM      4  C   LIG    1        1.312   1.867   0.727  0.00  0.00    +0.030 A 
ATOM      5  C   LIG    1        0.126   1.160   0.744  0.00  0.00    +0.025 A 
ATOM      6  C   LIG    1        0.002  -0.004  -0.005  0.00  0.00    +0.035 A 
ENDROOT
BRANCH   6   7
ATOM      7  N   LIG    1       -1.199  -0.722   0.010  0.00  0.00    -0.269 N 
ATOM      8  H   LIG    1       -2.044  -0.253   0.099  0.00  0.00    +0.156 HD
ATOM      9  C   LIG    1       -1.183  -2.065  -0.099  0.00  0.00    +0.304 C 
ATOM     10  N   LIG    1       -2.341  -2.748  -0.193  0.00  0.00    -0.296 N 
ATOM     11  H   LIG    1       -3.186  -2.272  -0.182  0.00  0.00    +0.151 HD
ATOM     12  O   LIG    1       -0.123  -2.661  -0.113  0.00  0.00    -0.253 OA
BRANCH  10  13
ATOM     13  C   LIG    1       -2.323  -4.208  -0.311  0.00  0.00    +0.074 C 
ATOM     14  C   LIG    1       -2.214  -4.616  -1.795  0.00  0.00    +0.022 C 
ATOM     15  C   LIG    1       -3.106  -5.878  -1.908  0.00  0.00    +0.002 C 
ATOM     16  C   LIG    1       -4.295  -5.540  -0.974  0.00  0.00    +0.002 C 
ATOM     17  C   LIG    1       -3.646  -4.795   0.211  0.00  0.00    +0.022 C 
ENDBRANCH  10  13
ENDBRANCH   6   7
BRANCH   3  18
ATOM     18  S   LIG    1        3.888   2.321  -0.053  0.00  0.00    +0.056 S 
ATOM     19  O   LIG    1        4.908   1.399  -0.412  0.00  0.00    -0.153 OA
ATOM     20  O   LIG    1        3.928   3.071   1.153  0.00  0.00    -0.153 OA
BRANCH  18  21
ATOM     21  N   LIG    1        3.786   3.419  -1.289  0.00  0.00    -0.204 NA
ATOM     22  H   LIG    1        4.527   4.020  -1.466  0.00  0.00    +0.144 HD
ATOM     23  H   LIG    1        2.986   3.461  -1.836  0.00  0.00    +0.144 HD
ENDBRANCH  18  21
ENDBRANCH   3  18
TORSDOF 4
