REMARK  Name = ZINC13949037
REMARK                            x       y       z     vdW  Elec       q    Type
REMARK                         _______ _______ _______ _____ _____    ______ ____
ROOT
ATOM      1  N   LIG    1        0.235  -0.006   2.398  0.00  0.00    -0.391 NA
ATOM      2  H   LIG    1        0.118   0.982   2.229  0.00  0.00    +0.127 HD
ATOM      3  C   LIG    1        1.561  -0.246   2.982  0.00  0.00    +0.102 C 
ATOM      4  C   LIG    1        1.722   0.603   4.247  0.00  0.00    +0.127 C 
ATOM      5  N   LIG    1        0.599   0.312   5.151  0.00  0.00    -0.174 NA
ATOM      6  C   LIG    1       -0.765   0.369   4.603  0.00  0.00    +0.127 C 
ATOM      7  C   LIG    1       -0.809  -0.469   3.321  0.00  0.00    +0.102 C 
ENDROOT
BRANCH   1  14
ATOM      8  C   LIG    1       -0.046   1.502   0.013  0.00  0.00    +0.045 C 
ATOM      9  C   LIG    1       -0.011  -0.004   0.003  0.00  0.00    -0.031 A 
ATOM     10  C   LIG    1       -0.112  -0.690  -1.193  0.00  0.00    +0.005 A 
ATOM     11  C   LIG    1       -0.080  -2.072  -1.202  0.00  0.00    +0.000 A 
ATOM     12  C   LIG    1        0.053  -2.768  -0.015  0.00  0.00    +0.002 A 
ATOM     13  C   LIG    1        0.155  -2.082   1.181  0.00  0.00    +0.022 A 
ATOM     14  C   LIG    1        0.127  -0.700   1.190  0.00  0.00    +0.016 A 
ENDBRANCH   1  14
BRANCH   5  15
ATOM     15  S   LIG    1        0.863  -0.071   6.741  0.00  0.00    +0.061 S 
ATOM     16  O   LIG    1        2.186  -0.583   6.821  0.00  0.00    -0.153 OA
ATOM     17  O   LIG    1       -0.269  -0.814   7.173  0.00  0.00    -0.153 OA
BRANCH  15  18
ATOM     18  C   LIG    1        0.851   1.439   7.649  0.00  0.00    +0.105 A 
ATOM     19  C   LIG    1        2.025   2.145   7.831  0.00  0.00    +0.029 A 
ATOM     20  C   LIG    1        2.015   3.330   8.544  0.00  0.00    +0.006 A 
ATOM     21  C   LIG    1        0.832   3.808   9.073  0.00  0.00    -0.042 A 
ATOM     22  C   LIG    1       -0.343   3.103   8.890  0.00  0.00    +0.006 A 
ATOM     23  C   LIG    1       -0.334   1.920   8.174  0.00  0.00    +0.029 A 
BRANCH  21  24
ATOM     24  C   LIG    1        0.821   5.099   9.851  0.00  0.00    -0.013 C 
ATOM     25  C   LIG    1        1.744   4.971  11.065  0.00  0.00    +0.015 C 
ATOM     26  C   LIG    1       -0.603   5.399  10.323  0.00  0.00    +0.015 C 
ATOM     27  C   LIG    1        1.313   6.238   8.955  0.00  0.00    +0.015 C 
ENDBRANCH  21  24
ENDBRANCH  15  18
ENDBRANCH   5  15
TORSDOF 4
