REMARK  Name = ZINC28091703
REMARK                            x       y       z     vdW  Elec       q    Type
REMARK                         _______ _______ _______ _____ _____    ______ ____
ROOT
ATOM      1  C   LIG    1        1.577   3.345  -0.362  0.00  0.00    -0.013 A 
ATOM      2  C   LIG    1        2.841   3.918  -0.255  0.00  0.00    +0.009 A 
ATOM      3  C   LIG    1        3.922   3.130   0.084  0.00  0.00    +0.001 A 
ATOM      4  C   LIG    1        3.746   1.779   0.315  0.00  0.00    +0.004 A 
ATOM      5  C   LIG    1        2.489   1.202   0.210  0.00  0.00    -0.041 A 
ATOM      6  C   LIG    1        2.354  -0.277   0.468  0.00  0.00    +0.050 C 
ATOM      7  C   LIG    1        0.887  -0.633   0.712  0.00  0.00    +0.086 C 
ATOM      8  N   LIG    1        0.081  -0.059  -0.378  0.00  0.00    -0.312 NA
ATOM      9  H   LIG    1       -0.936  -0.476  -0.331  0.00  0.00    +0.122 HD
ATOM     10  C   LIG    1        0.018   1.400  -0.249  0.00  0.00    +0.117 C 
ATOM     11  C   LIG    1        1.403   1.978  -0.126  0.00  0.00    -0.023 A 
ENDROOT
BRANCH   1  16
ATOM     12  C   LIG    1       -1.790   5.023  -0.239  0.00  0.00    +0.121 A 
ATOM     13  C   LIG    1       -1.764   5.764  -1.413  0.00  0.00    +0.045 A 
ATOM     14  C   LIG    1       -0.657   5.718  -2.240  0.00  0.00    +0.004 A 
ATOM     15  C   LIG    1        0.431   4.938  -1.900  0.00  0.00    +0.009 A 
ATOM     16  C   LIG    1        0.410   4.188  -0.726  0.00  0.00    -0.014 A 
ATOM     17  C   LIG    1       -0.705   4.235   0.107  0.00  0.00    +0.054 A 
BRANCH  12  19
ATOM     18  C   LIG    1       -3.963   5.905   0.153  0.00  0.00    +0.277 C 
ATOM     19  O   LIG    1       -2.880   5.072   0.571  0.00  0.00    -0.495 OA
ENDBRANCH  12  19
ENDBRANCH   1  16
TORSDOF 2
