REMARK  Name = ZINC58512951
REMARK                            x       y       z     vdW  Elec       q    Type
REMARK                         _______ _______ _______ _____ _____    ______ ____
ROOT
ATOM      1  C   UNK A  5        0.716   1.856  -0.503  0.00  0.00    +0.025 C 
ATOM      2  C   UNK A  5        0.659   0.330  -0.590  0.00  0.00    +0.048 C 
ATOM      3  C   UNK A  5       -0.794  -0.116  -0.765  0.00  0.00    +0.025 C 
ATOM      4  C   UNK A  2        1.485  -0.144  -1.788  0.00  0.00    +0.175 C 
ATOM      5  C   UNK A  2        2.716   0.714  -1.920  0.00  0.00    +0.235 C 
ATOM      6  N   GLY A  3        3.519   0.552  -3.012  0.00  0.00    -0.305 N 
ATOM      7  H   GLY A  3        3.320  -0.096  -3.705  0.00  0.00    +0.149 HD
ATOM      8  CA  GLY A  3        4.710   1.427  -3.070  0.00  0.00    +0.200 C 
ATOM      9  C   GLY A  3        5.581   1.135  -1.874  0.00  0.00    +0.231 C 
ATOM     10  N   UNK A  4        5.985   2.186  -1.090  0.00  0.00    -0.302 N 
ATOM     11  H   UNK A  4        5.740   3.107  -1.272  0.00  0.00    +0.150 HD
ATOM     12  C   UNK A  4        6.832   1.786   0.064  0.00  0.00    +0.163 C 
ATOM     13  C   UNK A  4        6.067   2.063   1.333  0.00  0.00    +0.234 C 
ATOM     14  N   UNK A  5        5.148   1.149   1.761  0.00  0.00    -0.300 N 
ATOM     15  H   UNK A  5        4.972   0.328   1.275  0.00  0.00    +0.150 HD
ATOM     16  C   UNK A  5        4.439   1.490   3.013  0.00  0.00    +0.198 C 
ATOM     17  C   UNK A  5        3.198   0.602   3.131  0.00  0.00    +0.050 C 
ATOM     18  C   UNK A  5        3.552  -0.828   2.718  0.00  0.00    +0.025 C 
ATOM     19  C   UNK A  5        2.703   0.607   4.579  0.00  0.00    +0.025 C 
ATOM     20  S   UNK A  5        1.893   1.240   2.044  0.00  0.00    -0.084 S 
ATOM     21  O   UNK A  4        6.263   3.081   1.962  0.00  0.00    -0.274 OA
ATOM     22  O   GLY A  3        5.916  -0.001  -1.612  0.00  0.00    -0.274 OA
ATOM     23  O   UNK A  2        2.990   1.536  -1.070  0.00  0.00    -0.274 OA
ATOM     24  S   UNK A  5        1.333  -0.389   0.932  0.00  0.00    -0.084 S 
ENDROOT
BRANCH   4  25
ATOM     25  N   UNK A  2        0.682  -0.036  -3.008  0.00  0.00    -0.301 N 
ATOM     26  H   UNK A  2       -0.049   0.600  -3.054  0.00  0.00    +0.150 HD
ATOM     27  C   TYR A  1        0.958  -0.821  -4.068  0.00  0.00    +0.231 C 
ATOM     28  O   TYR A  1        1.872  -1.617  -4.012  0.00  0.00    -0.274 OA
BRANCH  27  29
ATOM     29  CA  TYR A  1        0.132  -0.711  -5.324  0.00  0.00    +0.142 C 
BRANCH  29  30
ATOM     30  N   TYR A  1        0.881  -1.276  -6.454  0.00  0.00    -0.320 NA
ATOM     31  H1  TYR A  1        0.376  -1.156  -7.319  0.00  0.00    +0.119 HD
ATOM     32  H2  TYR A  1        1.098  -2.249  -6.294  0.00  0.00    +0.119 HD
ENDBRANCH  29  30
BRANCH  29  33
ATOM     33  CB  TYR A  1       -1.177  -1.482  -5.143  0.00  0.00    +0.063 C 
BRANCH  33  34
ATOM     34  CG  TYR A  1       -2.055  -1.270  -6.349  0.00  0.00    -0.045 A 
ATOM     35  CD2 TYR A  1       -2.945  -0.212  -6.378  0.00  0.00    +0.007 A 
ATOM     36  CE2 TYR A  1       -3.752  -0.016  -7.482  0.00  0.00    +0.045 A 
ATOM     37  CZ  TYR A  1       -3.668  -0.882  -8.562  0.00  0.00    +0.117 A 
ATOM     38  CE1 TYR A  1       -2.775  -1.943  -8.531  0.00  0.00    +0.045 A 
ATOM     39  CD1 TYR A  1       -1.966  -2.131  -7.427  0.00  0.00    +0.007 A 
BRANCH  37  40
ATOM     40  OH  TYR A  1       -4.461  -0.692  -9.650  0.00  0.00    -0.507 OA
ATOM     41  HH  TYR A  1       -4.070  -0.124 -10.327  0.00  0.00    +0.292 HD
ENDBRANCH  37  40
ENDBRANCH  33  34
ENDBRANCH  29  33
ENDBRANCH  27  29
ENDBRANCH   4  25
BRANCH  16  42
ATOM     42  C   UNK A  5        4.026   2.939   2.983  0.00  0.00    +0.327 C 
ATOM     43  O   UNK A  5        4.129   3.580   1.951  0.00  0.00    -0.249 OA
BRANCH  42  44
ATOM     44  O   UNK A  5        3.591   3.470   3.990  0.00  0.00    -0.479 OA
ATOM     45  H   UNK A  5        3.512   2.977   4.783  0.00  0.00    +0.295 HD
ENDBRANCH  42  44
ENDBRANCH  16  42
BRANCH  12  46
ATOM     46  C   UNK A  4        8.129   2.597   0.057  0.00  0.00    +0.067 C 
BRANCH  46  47
ATOM     47  C   UNK A  4        8.935   2.244  -1.167  0.00  0.00    -0.045 A 
ATOM     48  C   UNK A  4        9.848   1.208  -1.118  0.00  0.00    +0.005 A 
ATOM     49  C   UNK A  4       10.587   0.884  -2.240  0.00  0.00    +0.020 A 
ATOM     50  C   UNK A  4       10.413   1.597  -3.413  0.00  0.00    +0.041 A 
ATOM     51 CL   UNK A  4       11.342   1.191  -4.822  0.00  0.00    -0.084 Cl
ATOM     52  C   UNK A  4        9.499   2.634  -3.461  0.00  0.00    +0.020 A 
ATOM     53  C   UNK A  4        8.756   2.954  -2.340  0.00  0.00    +0.005 A 
ENDBRANCH  46  47
ENDBRANCH  12  46
TORSDOF 10
