REMARK  Name = ZINC49071240
REMARK                            x       y       z     vdW  Elec       q    Type
REMARK                         _______ _______ _______ _____ _____    ______ ____
ROOT
ATOM      1  C   LIG    1       -0.070  -0.120  -2.596  0.00  0.00    +0.002 A 
ATOM      2  C   LIG    1       -0.656   1.139  -2.724  0.00  0.00    +0.010 A 
ATOM      3  C   LIG    1       -0.700   1.757  -3.954  0.00  0.00    +0.009 A 
ATOM      4  C   LIG    1       -0.158   1.123  -5.072  0.00  0.00    -0.018 A 
ATOM      5  C   LIG    1        0.427  -0.136  -4.945  0.00  0.00    +0.009 A 
ATOM      6  C   LIG    1        0.476  -0.752  -3.714  0.00  0.00    +0.010 A 
ENDROOT
BRANCH   1   9
ATOM      7  C   LIG    1       -2.425  -0.106  -0.920  0.00  0.00    +0.068 C 
ATOM      8  C   LIG    1       -1.165  -0.784  -0.449  0.00  0.00    +0.065 A 
ATOM      9  C   LIG    1       -0.023  -0.785  -1.273  0.00  0.00    +0.093 A 
ATOM     10  N   LIG    1        1.090  -1.376  -0.875  0.00  0.00    -0.243 NA
ATOM     11  C   LIG    1        1.130  -1.976   0.319  0.00  0.00    +0.090 A 
ATOM     12  C   LIG    1        2.300  -2.612   0.771  0.00  0.00    +0.030 A 
ATOM     13  C   LIG    1        2.312  -3.214   1.992  0.00  0.00    +0.003 A 
ATOM     14  C   LIG    1        1.179  -3.210   2.804  0.00  0.00    +0.014 A 
ATOM     15  C   LIG    1        0.029  -2.604   2.400  0.00  0.00    +0.082 A 
ATOM     16  C   LIG    1       -0.022  -1.972   1.146  0.00  0.00    +0.101 A 
ATOM     17  N   LIG    1       -1.139  -1.363   0.727  0.00  0.00    -0.248 NA
BRANCH  15  18
ATOM     18  C   LIG    1       -1.185  -2.612   3.293  0.00  0.00    +0.419 C 
ATOM     19  F   LIG    1       -2.243  -3.251   2.637  0.00  0.00    -0.166 F 
ATOM     20  F   LIG    1       -1.550  -1.296   3.595  0.00  0.00    -0.166 F 
ATOM     21  F   LIG    1       -0.888  -3.297   4.476  0.00  0.00    -0.166 F 
ENDBRANCH  15  18
ENDBRANCH   1   9
BRANCH   4  22
ATOM     22  C   LIG    1       -0.205   1.789  -6.397  0.00  0.00    -0.016 A 
ATOM     23  C   LIG    1       -0.785   3.050  -6.526  0.00  0.00    +0.008 A 
ATOM     24  C   LIG    1       -0.826   3.665  -7.761  0.00  0.00    +0.002 A 
ATOM     25  C   LIG    1       -0.294   3.031  -8.870  0.00  0.00    +0.027 A 
ATOM     26  C   LIG    1        0.282   1.780  -8.748  0.00  0.00    +0.088 A 
ATOM     27  C   LIG    1        0.335   1.158  -7.516  0.00  0.00    +0.035 A 
BRANCH  26  28
ATOM     28  S   LIG    1        0.957   0.980 -10.165  0.00  0.00    -0.006 S 
ATOM     29  C   LIG    1        2.689   1.514 -10.222  0.00  0.00    +0.200 C 
ATOM     30  O   LIG    1        0.240   1.526 -11.265  0.00  0.00    -0.170 OA
ATOM     31  O   LIG    1        0.882  -0.408  -9.869  0.00  0.00    -0.170 OA
ENDBRANCH  26  28
ENDBRANCH   4  22
TORSDOF 4
