REMARK  Name = ZINC29589888
REMARK                            x       y       z     vdW  Elec       q    Type
REMARK                         _______ _______ _______ _____ _____    ______ ____
ROOT
ATOM      1  N   LIG    1        1.544  -6.309  -0.050  0.00  0.00    -0.281 N 
ATOM      2  H   LIG    1        2.406  -6.745  -0.138  0.00  0.00    +0.155 HD
ATOM      3  C   LIG    1        0.423  -7.049   0.058  0.00  0.00    +0.249 C 
ATOM      4  O   LIG    1       -0.665  -6.506   0.072  0.00  0.00    -0.270 OA
ENDROOT
BRANCH   1  13
ATOM      5  C   LIG    1        1.968   1.496  -0.675  0.00  0.00    +0.001 A 
ATOM      6  C   LIG    1        0.987   2.086   0.108  0.00  0.00    +0.001 A 
ATOM      7  C   LIG    1        0.118   1.312   0.847  0.00  0.00    +0.014 A 
ATOM      8  C   LIG    1        0.227  -0.077   0.807  0.00  0.00    +0.047 A 
ATOM      9  C   LIG    1        1.225  -0.675   0.010  0.00  0.00    -0.004 A 
ATOM     10  C   LIG    1        1.317  -2.147  -0.013  0.00  0.00    +0.006 A 
ATOM     11  C   LIG    1        2.287  -2.788  -0.784  0.00  0.00    +0.012 A 
ATOM     12  C   LIG    1        2.359  -4.162  -0.793  0.00  0.00    +0.024 A 
ATOM     13  C   LIG    1        1.465  -4.915  -0.035  0.00  0.00    +0.036 A 
ATOM     14  C   LIG    1        0.498  -4.288   0.735  0.00  0.00    +0.049 A 
ATOM     15  C   LIG    1        0.415  -2.901   0.754  0.00  0.00    +0.052 A 
ATOM     16  N   LIG    1       -0.553  -2.279   1.525  0.00  0.00    -0.322 N 
ATOM     17  H   LIG    1       -1.163  -2.827   2.044  0.00  0.00    +0.169 HD
ATOM     18  C   LIG    1       -0.678  -0.941   1.579  0.00  0.00    +0.257 A 
ATOM     19  O   LIG    1       -1.545  -0.442   2.272  0.00  0.00    -0.267 OA
ATOM     20  C   LIG    1        2.092   0.123  -0.729  0.00  0.00    +0.009 A 
ENDBRANCH   1  13
BRANCH   3  21
ATOM     21  C   LIG    1        0.516  -8.519   0.160  0.00  0.00    +0.045 A 
ATOM     22  C   LIG    1        1.761  -9.146   0.151  0.00  0.00    +0.013 A 
ATOM     23  C   LIG    1        1.842 -10.520   0.247  0.00  0.00    +0.001 A 
ATOM     24  C   LIG    1        0.692 -11.285   0.352  0.00  0.00    +0.001 A 
ATOM     25  C   LIG    1       -0.550 -10.682   0.362  0.00  0.00    +0.009 A 
ATOM     26  C   LIG    1       -0.652  -9.296   0.273  0.00  0.00    -0.005 A 
BRANCH  26  27
ATOM     27  C   LIG    1       -1.981  -8.644   0.290  0.00  0.00    -0.003 A 
ATOM     28  C   LIG    1       -2.778  -8.707   1.430  0.00  0.00    +0.009 A 
ATOM     29  C   LIG    1       -4.017  -8.098   1.442  0.00  0.00    +0.001 A 
ATOM     30  C   LIG    1       -4.477  -7.421   0.325  0.00  0.00    +0.001 A 
ATOM     31  C   LIG    1       -3.704  -7.347  -0.815  0.00  0.00    +0.015 A 
ATOM     32  C   LIG    1       -2.446  -7.951  -0.845  0.00  0.00    +0.067 A 
BRANCH  32  33
ATOM     33  C   LIG    1       -1.612  -7.870  -2.057  0.00  0.00    +0.337 C 
ATOM     34  O   LIG    1       -2.020  -7.268  -3.040  0.00  0.00    -0.245 OA
BRANCH  33  35
ATOM     35  O   LIG    1       -0.513  -8.406  -2.080  0.00  0.00    -0.477 OA
ATOM     36  H   LIG    1       -0.201  -8.868  -1.327  0.00  0.00    +0.295 HD
ENDBRANCH  33  35
ENDBRANCH  32  33
ENDBRANCH  26  27
ENDBRANCH   3  21
TORSDOF 5
