REMARK  Name = ZINC17014699
REMARK                            x       y       z     vdW  Elec       q    Type
REMARK                         _______ _______ _______ _____ _____    ______ ____
ROOT
ATOM      1  C   LIG    1       -0.017   1.375   0.010  0.00  0.00    +0.001 A 
ATOM      2  C   LIG    1        1.172   2.091   0.002  0.00  0.00    +0.002 A 
ATOM      3  C   LIG    1        2.388   1.445  -0.011  0.00  0.00    +0.028 A 
ATOM      4  C   LIG    1        2.437   0.045  -0.017  0.00  0.00    +0.079 A 
ATOM      5  C   LIG    1        1.222  -0.675  -0.013  0.00  0.00    +0.050 A 
ATOM      6  C   LIG    1        1.285  -2.152  -0.030  0.00  0.00    +0.222 C 
ATOM      7  C   LIG    1        2.580  -2.703  -0.543  0.00  0.00    +0.210 C 
ATOM      8  C   LIG    1        3.775  -1.869  -0.262  0.00  0.00    +0.246 C 
ATOM      9  N   LIG    1        2.652  -3.835  -1.192  0.00  0.00    -0.078 NA
ATOM     10  O   LIG    1        0.365  -2.858   0.339  0.00  0.00    -0.285 OA
ATOM     11  N   LIG    1        3.632  -0.592  -0.024  0.00  0.00    -0.211 NA
ATOM     12  C   LIG    1        0.002  -0.004   0.002  0.00  0.00    +0.014 A 
ENDROOT
BRANCH   8  13
ATOM     13  O   LIG    1        5.006  -2.428  -0.252  0.00  0.00    -0.491 OA
ATOM     14  H   LIG    1        5.106  -3.344  -0.423  0.00  0.00    +0.294 HD
ENDBRANCH   8  13
BRANCH   9  15
ATOM     15  O   LIG    1        1.478  -4.589  -1.432  0.00  0.00    -0.409 OA
ATOM     16  H   LIG    1        1.631  -5.411  -1.918  0.00  0.00    +0.328 HD
ENDBRANCH   9  15
TORSDOF 2
