REMARK  Name = ZINC18128769
REMARK                            x       y       z     vdW  Elec       q    Type
REMARK                         _______ _______ _______ _____ _____    ______ ____
ROOT
ATOM      1  C   LIG    1        0.033   1.305   0.677  0.00  0.00    +0.001 A 
ATOM      2  C   LIG    1        1.215   2.039   0.636  0.00  0.00    +0.002 A 
ATOM      3  C   LIG    1        2.408   1.434   0.376  0.00  0.00    +0.028 A 
ATOM      4  C   LIG    1        2.448   0.051   0.147  0.00  0.00    +0.077 A 
ATOM      5  C   LIG    1        1.243  -0.694   0.190  0.00  0.00    +0.040 A 
ATOM      6  C   LIG    1        1.307  -2.090  -0.044  0.00  0.00    +0.135 A 
ATOM      7  N   LIG    1        2.490  -2.632  -0.292  0.00  0.00    -0.212 NA
ATOM      8  C   LIG    1        3.599  -1.895  -0.324  0.00  0.00    +0.166 A 
ATOM      9  N   LIG    1        3.595  -0.591  -0.113  0.00  0.00    -0.227 NA
ATOM     10  C   LIG    1        0.035  -0.042   0.459  0.00  0.00    +0.013 A 
ENDROOT
BRANCH   8  11
ATOM     11  C   LIG    1        4.889  -2.565  -0.607  0.00  0.00    +0.061 A 
ATOM     12  C   LIG    1        4.929  -3.939  -0.840  0.00  0.00    +0.015 A 
ATOM     13  C   LIG    1        6.133  -4.557  -1.103  0.00  0.00    +0.001 A 
ATOM     14  C   LIG    1        7.304  -3.819  -1.137  0.00  0.00    +0.004 A 
ATOM     15  C   LIG    1        7.277  -2.457  -0.907  0.00  0.00    +0.046 A 
ATOM     16  C   LIG    1        6.073  -1.821  -0.648  0.00  0.00    +0.128 A 
BRANCH  16  17
ATOM     17  O   LIG    1        6.044  -0.481  -0.428  0.00  0.00    -0.506 OA
ATOM     18  H   LIG    1        6.153  -0.233   0.500  0.00  0.00    +0.292 HD
ENDBRANCH  16  17
ENDBRANCH   8  11
BRANCH   6  19
ATOM     19  N   LIG    1        0.166  -2.865  -0.013  0.00  0.00    -0.299 N 
ATOM     20  H   LIG    1       -0.702  -2.446   0.087  0.00  0.00    +0.154 HD
BRANCH  19  21
ATOM     21  C   LIG    1        0.263  -4.257  -0.127  0.00  0.00    +0.033 A 
ATOM     22  C   LIG    1        1.329  -4.930   0.456  0.00  0.00    +0.027 A 
ATOM     23  C   LIG    1        1.423  -6.303   0.343  0.00  0.00    +0.047 A 
ATOM     24  C   LIG    1        0.453  -7.010  -0.351  0.00  0.00    +0.117 A 
ATOM     25  C   LIG    1       -0.612  -6.340  -0.934  0.00  0.00    +0.047 A 
ATOM     26  C   LIG    1       -0.711  -4.967  -0.817  0.00  0.00    +0.027 A 
BRANCH  24  27
ATOM     27  O   LIG    1        0.547  -8.363  -0.462  0.00  0.00    -0.507 OA
ATOM     28  H   LIG    1        0.109  -8.847   0.251  0.00  0.00    +0.292 HD
ENDBRANCH  24  27
ENDBRANCH  19  21
ENDBRANCH   6  19
TORSDOF 5
