REMARK  Name = ZINC36123841
REMARK                            x       y       z     vdW  Elec       q    Type
REMARK                         _______ _______ _______ _____ _____    ______ ____
ROOT
ATOM      1  C   LIG    1       -0.017   1.373   0.010  0.00  0.00    +0.002 A 
ATOM      2  C   LIG    1        1.169   2.093   0.002  0.00  0.00    +0.002 A 
ATOM      3  C   LIG    1        2.384   1.439  -0.013  0.00  0.00    +0.028 A 
ATOM      4  C   LIG    1        2.421   0.053  -0.021  0.00  0.00    +0.068 A 
ATOM      5  C   LIG    1        1.224  -0.681  -0.013  0.00  0.00    +0.068 A 
ATOM      6  N   LIG    1        1.562  -1.998  -0.024  0.00  0.00    -0.315 N 
ATOM      7  C   LIG    1        2.866  -2.117  -0.038  0.00  0.00    +0.174 A 
ATOM      8  N   LIG    1        3.445  -0.880  -0.037  0.00  0.00    -0.311 N 
ATOM      9  C   LIG    1        0.002  -0.004   0.002  0.00  0.00    +0.028 A 
ENDROOT
BRANCH   7  10
ATOM     10  N   LIG    1        3.552  -3.313  -0.053  0.00  0.00    -0.330 N 
ATOM     11  H   LIG    1        4.522  -3.316  -0.062  0.00  0.00    +0.145 HD
ATOM     12  H   LIG    1        3.065  -4.152  -0.053  0.00  0.00    +0.145 HD
ENDBRANCH   7  10
BRANCH   6  13
ATOM     13  C   LIG    1        0.612  -3.113  -0.021  0.00  0.00    +0.106 C 
BRANCH  13  14
ATOM     14  C   LIG    1        0.266  -3.493  -1.462  0.00  0.00    -0.057 C 
BRANCH  14  15
ATOM     15  N   LIG    1       -0.686  -4.612  -1.458  0.00  0.00    +0.381 N 
ATOM     16  H   LIG    1       -1.492  -4.364  -0.904  0.00  0.00    -0.082 HD
ATOM     17  C   LIG    1       -0.044  -5.798  -0.878  0.00  0.00    -0.079 C 
ATOM     18  C   LIG    1       -1.056  -6.942  -0.797  0.00  0.00    -0.019 C 
ATOM     19  C   LIG    1       -1.560  -7.271  -2.205  0.00  0.00    -0.004 C 
ATOM     20  C   LIG    1       -2.162  -6.008  -2.829  0.00  0.00    -0.019 C 
ATOM     21  C   LIG    1       -1.109  -4.897  -2.834  0.00  0.00    -0.079 C 
ENDBRANCH  14  15
ENDBRANCH  13  14
ENDBRANCH   6  13
BRANCH   8  22
ATOM     22  C   LIG    1        4.882  -0.594  -0.049  0.00  0.00    +0.159 C 
BRANCH  22  23
ATOM     23  C   LIG    1        5.396  -0.502   1.389  0.00  0.00    +0.172 C 
BRANCH  23  24
ATOM     24  O   LIG    1        5.271  -1.778   2.021  0.00  0.00    -0.387 OA
ATOM     25  H   LIG    1        5.767  -2.484   1.585  0.00  0.00    +0.210 HD
ENDBRANCH  23  24
BRANCH  23  26
ATOM     26  C   LIG    1        6.867  -0.081   1.379  0.00  0.00    +0.262 C 
BRANCH  26  27
ATOM     27  O   LIG    1        7.315   0.117   2.721  0.00  0.00    -0.488 OA
BRANCH  27  28
ATOM     28  C   LIG    1        8.609   0.498   2.890  0.00  0.00    +0.139 A 
ATOM     29  C   LIG    1        9.428   0.681   1.786  0.00  0.00    +0.048 A 
ATOM     30  C   LIG    1       10.743   1.068   1.960  0.00  0.00    +0.023 A 
ATOM     31  C   LIG    1       11.244   1.272   3.233  0.00  0.00    +0.043 A 
ATOM     32 CL   LIG    1       12.897   1.756   3.448  0.00  0.00    -0.083 Cl
ATOM     33  C   LIG    1       10.429   1.089   4.336  0.00  0.00    +0.043 A 
ATOM     34  C   LIG    1        9.111   0.708   4.167  0.00  0.00    +0.084 A 
ATOM     35 CL   LIG    1        8.086   0.485   5.550  0.00  0.00    -0.080 Cl
ENDBRANCH  27  28
ENDBRANCH  26  27
ENDBRANCH  23  26
ENDBRANCH  22  23
ENDBRANCH   8  22
TORSDOF 10
