REMARK  Name = ZINC34051487
REMARK                            x       y       z     vdW  Elec       q    Type
REMARK                         _______ _______ _______ _____ _____    ______ ____
ROOT
ATOM      1  C   LIG    1        1.723   0.744   3.577  0.00  0.00    +0.004 A 
ATOM      2  C   LIG    1        1.126   1.096   4.769  0.00  0.00    +0.008 A 
ATOM      3  C   LIG    1       -0.186   1.582   4.776  0.00  0.00    -0.020 A 
ATOM      4  C   LIG    1       -0.883   1.711   3.570  0.00  0.00    +0.054 A 
ATOM      5  C   LIG    1       -0.274   1.349   2.382  0.00  0.00    +0.131 A 
ATOM      6  C   LIG    1        1.029   0.868   2.387  0.00  0.00    +0.046 A 
ENDROOT
BRANCH   3   7
ATOM      7  C   LIG    1       -0.828   1.959   6.044  0.00  0.00    +0.028 C 
ATOM      8  C   LIG    1       -2.148   2.264   6.071  0.00  0.00    +0.080 C 
ATOM      9  C   LIG    1       -2.967   2.810   7.175  0.00  0.00    +0.258 C 
ATOM     10  N   LIG    1       -4.248   3.014   6.916  0.00  0.00    -0.243 N 
ATOM     11  H   LIG    1       -4.909   3.418   7.697  0.00  0.00    +0.159 HD
ATOM     12  C   LIG    1       -4.776   2.737   5.707  0.00  0.00    +0.283 C 
ATOM     13  O   LIG    1       -5.926   2.874   5.335  0.00  0.00    -0.262 OA
ATOM     14  O   LIG    1       -2.487   3.059   8.265  0.00  0.00    -0.269 OA
ATOM     15  S   LIG    1       -3.377   2.126   4.780  0.00  0.00    -0.026 S 
ENDBRANCH   3   7
BRANCH   5  16
ATOM     16  O   LIG    1       -0.950   1.468   1.209  0.00  0.00    -0.406 OA
BRANCH  16  17
ATOM     17  C   LIG    1       -0.258   1.081   0.020  0.00  0.00    +0.575 C 
ATOM     18  F   LIG    1       -1.093   1.266  -1.087  0.00  0.00    -0.133 F 
ATOM     19  F   LIG    1        0.892   1.864  -0.127  0.00  0.00    -0.133 F 
ATOM     20  F   LIG    1        0.105  -0.268   0.109  0.00  0.00    -0.133 F 
ENDBRANCH  16  17
ENDBRANCH   5  16
TORSDOF 3
