REMARK  Name = ZINC13813791
REMARK                            x       y       z     vdW  Elec       q    Type
REMARK                         _______ _______ _______ _____ _____    ______ ____
ROOT
ATOM      1  C   LIG    1       -0.018   1.503   0.010  0.00  0.00    +0.044 C 
ATOM      2  C   LIG    1        0.002  -0.004   0.002  0.00  0.00    -0.050 A 
ATOM      3  C   LIG    1        0.006  -0.689  -1.199  0.00  0.00    +0.005 A 
ATOM      4  C   LIG    1        0.025  -2.071  -1.206  0.00  0.00    +0.029 A 
ATOM      5  C   LIG    1        0.040  -2.768  -0.013  0.00  0.00    +0.107 A 
ATOM      6  C   LIG    1        0.037  -2.084   1.188  0.00  0.00    +0.029 A 
ATOM      7  C   LIG    1        0.023  -0.702   1.195  0.00  0.00    +0.005 A 
ENDROOT
BRANCH   5   8
ATOM      8  S   LIG    1        0.063  -4.530  -0.023  0.00  0.00    +0.080 S 
ATOM      9  O   LIG    1       -0.490  -4.937  -1.267  0.00  0.00    -0.151 OA
ATOM     10  O   LIG    1       -0.476  -4.950   1.223  0.00  0.00    -0.151 OA
BRANCH   8  11
ATOM     11  N   LIG    1        1.651  -4.999  -0.034  0.00  0.00    -0.071 NA
ATOM     12  H   LIG    1        2.011  -5.473  -0.800  0.00  0.00    +0.181 HD
BRANCH  11  13
ATOM     13  O   LIG    1        2.483  -4.709   1.074  0.00  0.00    -0.295 OA
ATOM     14  H   LIG    1        3.393  -5.022   0.976  0.00  0.00    +0.238 HD
ENDBRANCH  11  13
ENDBRANCH   8  11
ENDBRANCH   5   8
TORSDOF 3
