REMARK  Name = ZINC29047358
REMARK                            x       y       z     vdW  Elec       q    Type
REMARK                         _______ _______ _______ _____ _____    ______ ____
ROOT
ATOM      1  C   LIG    1       -1.036   2.385   0.030  0.00  0.00    +0.122 A 
ATOM      2  C   LIG    1       -0.017   1.406   0.010  0.00  0.00    +0.067 A 
ATOM      3  C   LIG    1        0.002  -0.004   0.002  0.00  0.00    +0.146 A 
ATOM      4  N   LIG    1        1.243  -0.401  -0.012  0.00  0.00    -0.180 NA
ATOM      5  N   LIG    1        2.094   0.712  -0.014  0.00  0.00    -0.260 N 
ATOM      6  H   LIG    1        3.185   0.570  -0.025  0.00  0.00    +0.191 HD
ATOM      7  C   LIG    1        1.325   1.837  -0.001  0.00  0.00    +0.161 A 
ATOM      8  N   LIG    1        1.581   3.144   0.004  0.00  0.00    -0.195 NA
ATOM      9  C   LIG    1        0.596   4.026   0.018  0.00  0.00    +0.215 A 
ATOM     10  N   LIG    1       -0.682   3.669   0.028  0.00  0.00    -0.211 NA
ENDROOT
BRANCH   1  13
ATOM     11  C   LIG    1       -4.641   1.934   0.446  0.00  0.00    +0.042 A 
ATOM     12  C   LIG    1       -3.458   2.650   0.699  0.00  0.00    +0.051 A 
ATOM     13  C   LIG    1       -2.456   1.994   0.048  0.00  0.00    +0.154 A 
ATOM     14  O   LIG    1       -2.992   0.930  -0.581  0.00  0.00    -0.461 OA
ATOM     15  C   LIG    1       -4.311   0.886  -0.338  0.00  0.00    +0.196 A 
ENDBRANCH   1  13
BRANCH   9  16
ATOM     16  N   LIG    1        0.910   5.374   0.022  0.00  0.00    -0.327 N 
ATOM     17  H   LIG    1        1.962   5.694   0.014  0.00  0.00    +0.145 HD
ATOM     18  H   LIG    1        0.107   6.126   0.034  0.00  0.00    +0.145 HD
ENDBRANCH   9  16
TORSDOF 2
