REMARK  Name = ZINC43129461
REMARK                            x       y       z     vdW  Elec       q    Type
REMARK                         _______ _______ _______ _____ _____    ______ ____
ROOT
ATOM      1  C   LIG    1       -0.459  -5.301   4.412  0.00  0.00    +0.123 A 
ATOM      2  C   LIG    1       -0.993  -6.347   3.654  0.00  0.00    +0.046 A 
ATOM      3  C   LIG    1       -1.019  -7.619   4.140  0.00  0.00    +0.017 A 
ATOM      4  C   LIG    1       -0.507  -7.885   5.416  0.00  0.00    +0.041 A 
ATOM      5  C   LIG    1        0.036  -6.831   6.192  0.00  0.00    +0.079 A 
ATOM      6  N   LIG    1        0.521  -7.112   7.411  0.00  0.00    -0.235 NA
ATOM      7  C   LIG    1        0.492  -8.341   7.872  0.00  0.00    +0.223 A 
ATOM      8  N   LIG    1       -0.005  -9.356   7.183  0.00  0.00    -0.220 NA
ATOM      9  C   LIG    1       -0.510  -9.188   5.968  0.00  0.00    +0.135 A 
ATOM     10  C   LIG    1        0.058  -5.533   5.669  0.00  0.00    +0.074 A 
ENDROOT
BRANCH   9  11
ATOM     11  N   LIG    1       -1.025 -10.255   5.261  0.00  0.00    -0.284 N 
ATOM     12  H   LIG    1       -1.391 -10.118   4.374  0.00  0.00    +0.155 HD
BRANCH  11  13
ATOM     13  C   LIG    1       -1.019 -11.530   5.823  0.00  0.00    +0.118 A 
ATOM     14  N   LIG    1       -1.495 -12.664   5.247  0.00  0.00    -0.287 N 
ATOM     15  H   LIG    1       -1.902 -12.732   4.369  0.00  0.00    +0.188 HD
ATOM     16  N   LIG    1       -1.292 -13.720   6.145  0.00  0.00    -0.302 N 
ATOM     17  H   LIG    1       -1.533 -14.647   5.995  0.00  0.00    +0.186 HD
ATOM     18  C   LIG    1       -0.724 -13.241   7.222  0.00  0.00    +0.045 A 
ATOM     19  C   LIG    1       -0.539 -11.867   7.052  0.00  0.00    +0.066 A 
BRANCH  18  20
ATOM     20  C   LIG    1       -0.336 -14.038   8.441  0.00  0.00    +0.150 C 
BRANCH  20  21
ATOM     21  C   LIG    1       -1.439 -13.959   9.466  0.00  0.00    +0.223 C 
ATOM     22  N   LIG    1       -1.311 -14.599  10.644  0.00  0.00    -0.285 N 
ATOM     23  H   LIG    1       -0.543 -15.170  10.806  0.00  0.00    +0.155 HD
ATOM     24  O   LIG    1       -2.441 -13.318   9.229  0.00  0.00    -0.275 OA
BRANCH  22  25
ATOM     25  C   LIG    1       -2.286 -14.442  11.636  0.00  0.00    +0.036 A 
ATOM     26  C   LIG    1       -1.919 -14.418  12.975  0.00  0.00    +0.023 A 
ATOM     27  C   LIG    1       -2.882 -14.262  13.952  0.00  0.00    +0.005 A 
ATOM     28  C   LIG    1       -4.212 -14.130  13.599  0.00  0.00    +0.038 A 
ATOM     29  C   LIG    1       -4.583 -14.153  12.265  0.00  0.00    +0.125 A 
ATOM     30  F   LIG    1       -5.883 -14.024  11.923  0.00  0.00    -0.205 F 
ATOM     31  C   LIG    1       -3.621 -14.303  11.282  0.00  0.00    +0.061 A 
ENDBRANCH  22  25
ENDBRANCH  20  21
ENDBRANCH  18  20
ENDBRANCH  11  13
ENDBRANCH   9  11
BRANCH   1  32
ATOM     32  O   LIG    1       -0.445  -4.042   3.903  0.00  0.00    -0.492 OA
BRANCH  32  33
ATOM     33  C   LIG    1       -0.995  -3.865   2.596  0.00  0.00    +0.227 C 
BRANCH  33  34
ATOM     34  C   LIG    1       -0.891  -2.392   2.195  0.00  0.00    +0.022 C 
BRANCH  34  35
ATOM     35  C   LIG    1       -1.480  -2.202   0.795  0.00  0.00    -0.075 C 
BRANCH  35  36
ATOM     36  N   LIG    1       -1.381  -0.788   0.410  0.00  0.00    +0.381 N 
ATOM     37  H   LIG    1       -1.823  -0.216   1.114  0.00  0.00    -0.082 HD
BRANCH  36  39
ATOM     38  C   LIG    1        0.141   1.092   0.025  0.00  0.00    -0.017 C 
ATOM     39  C   LIG    1        0.034  -0.411   0.291  0.00  0.00    -0.082 C 
ENDBRANCH  36  39
BRANCH  36  40
ATOM     40  C   LIG    1       -2.053  -0.584  -0.880  0.00  0.00    -0.050 C 
BRANCH  40  41
ATOM     41  C   LIG    1       -3.554  -0.828  -0.718  0.00  0.00    +0.154 C 
BRANCH  41  42
ATOM     42  O   LIG    1       -4.106   0.158   0.157  0.00  0.00    -0.289 OA
BRANCH  42  43
ATOM     43  P   LIG    1       -5.639   0.136   0.646  0.00  0.00    +0.472 P 
ATOM     44  O   LIG    1       -6.572   0.099  -0.585  0.00  0.00    -0.228 OA
BRANCH  43  45
ATOM     45  O   LIG    1       -5.885  -1.116   1.517  0.00  0.00    -0.303 OA
ATOM     46  H   LIG    1       -5.701  -1.913   0.996  0.00  0.00    +0.222 HD
ENDBRANCH  43  45
BRANCH  43  47
ATOM     47  O   LIG    1       -5.945   1.460   1.511  0.00  0.00    -0.303 OA
ATOM     48  H   LIG    1       -6.853   1.514   1.839  0.00  0.00    +0.222 HD
ENDBRANCH  43  47
ENDBRANCH  42  43
ENDBRANCH  41  42
ENDBRANCH  40  41
ENDBRANCH  36  40
ENDBRANCH  35  36
ENDBRANCH  34  35
ENDBRANCH  33  34
ENDBRANCH  32  33
ENDBRANCH   1  32
TORSDOF 17
