REMARK  Name = ZINC27551136
REMARK                            x       y       z     vdW  Elec       q    Type
REMARK                         _______ _______ _______ _____ _____    ______ ____
ROOT
ATOM      1  C   LIG    1        8.909   0.440  -2.978  0.00  0.00    +0.135 C 
ATOM      2  C   LIG    1        8.931   1.726  -3.812  0.00  0.00    +0.069 C 
ATOM      3  C   LIG    1       10.367   1.990  -4.277  0.00  0.00    +0.154 C 
ATOM      4  O   LIG    1       11.229   2.008  -3.135  0.00  0.00    -0.339 OA
ATOM      5  C   LIG    1       11.199   0.801  -2.370  0.00  0.00    +0.283 C 
ATOM      6  O   LIG    1        9.865   0.554  -1.919  0.00  0.00    -0.343 OA
ENDROOT
BRANCH   5   7
ATOM      7  C   LIG    1       12.115   0.936  -1.181  0.00  0.00    +0.008 A 
ATOM      8  C   LIG    1       12.814   2.111  -0.980  0.00  0.00    +0.010 A 
ATOM      9  C   LIG    1       13.655   2.238   0.109  0.00  0.00    +0.024 A 
ATOM     10  C   LIG    1       13.796   1.184   1.002  0.00  0.00    +0.033 A 
ATOM     11  C   LIG    1       13.091   0.005   0.797  0.00  0.00    +0.024 A 
ATOM     12  C   LIG    1       12.249  -0.114  -0.291  0.00  0.00    +0.010 A 
BRANCH  10  13
ATOM     13  N   LIG    1       14.647   1.309   2.106  0.00  0.00    -0.285 N 
ATOM     14  H   LIG    1       15.148   0.541   2.421  0.00  0.00    +0.155 HD
ATOM     15  C   LIG    1       14.769   2.497   2.731  0.00  0.00    +0.217 C 
ATOM     16  O   LIG    1       14.199   3.474   2.293  0.00  0.00    -0.275 OA
BRANCH  15  17
ATOM     17  C   LIG    1       15.614   2.611   3.973  0.00  0.00    +0.096 C 
BRANCH  17  18
ATOM     18  C   LIG    1       15.585   4.055   4.479  0.00  0.00    +0.009 C 
BRANCH  18  19
ATOM     19  C   LIG    1       16.443   4.171   5.741  0.00  0.00    +0.000 C 
BRANCH  19  20
ATOM     20  C   LIG    1       16.414   5.614   6.247  0.00  0.00    +0.000 C 
BRANCH  20  21
ATOM     21  C   LIG    1       17.272   5.730   7.508  0.00  0.00    +0.009 C 
BRANCH  21  22
ATOM     22  C   LIG    1       17.242   7.174   8.014  0.00  0.00    +0.098 C 
BRANCH  22  23
ATOM     23  C   LIG    1       18.087   7.288   9.257  0.00  0.00    +0.235 C 
ATOM     24  N   LIG    1       18.210   8.476   9.881  0.00  0.00    -0.197 N 
ATOM     25  H   LIG    1       17.754   9.257   9.531  0.00  0.00    +0.182 HD
ATOM     26  O   LIG    1       18.657   6.311   9.694  0.00  0.00    -0.274 OA
BRANCH  24  27
ATOM     27  O   LIG    1       19.004   8.583  11.049  0.00  0.00    -0.295 OA
ATOM     28  H   LIG    1       19.032   9.473  11.425  0.00  0.00    +0.241 HD
ENDBRANCH  24  27
ENDBRANCH  22  23
ENDBRANCH  21  22
ENDBRANCH  20  21
ENDBRANCH  19  20
ENDBRANCH  18  19
ENDBRANCH  17  18
ENDBRANCH  15  17
ENDBRANCH  10  13
ENDBRANCH   5   7
BRANCH   3  29
ATOM     29  C   LIG    1       10.432   3.320  -4.983  0.00  0.00    -0.019 A 
ATOM     30  C   LIG    1       10.602   4.481  -4.253  0.00  0.00    +0.006 A 
ATOM     31  C   LIG    1       10.662   5.702  -4.900  0.00  0.00    +0.006 A 
ATOM     32  C   LIG    1       10.552   5.760  -6.277  0.00  0.00    -0.022 A 
ATOM     33  C   LIG    1       10.382   4.598  -7.007  0.00  0.00    +0.006 A 
ATOM     34  C   LIG    1       10.327   3.377  -6.360  0.00  0.00    +0.006 A 
BRANCH  32  35
ATOM     35  C   LIG    1       10.616   7.090  -6.983  0.00  0.00    +0.191 C 
BRANCH  35  36
ATOM     36  O   LIG    1       11.973   7.386  -7.318  0.00  0.00    -0.390 OA
ATOM     37  H   LIG    1       12.089   8.230  -7.776  0.00  0.00    +0.210 HD
ENDBRANCH  35  36
ENDBRANCH  32  35
ENDBRANCH   3  29
BRANCH   1  38
ATOM     38  C   LIG    1        7.513   0.235  -2.388  0.00  0.00    +0.110 C 
BRANCH  38  39
ATOM     39  S   LIG    1        7.491  -1.284  -1.397  0.00  0.00    -0.065 S 
BRANCH  39  43
ATOM     40  C   LIG    1        3.760  -0.903  -0.421  0.00  0.00    +0.118 A 
ATOM     41  C   LIG    1        4.051  -2.075   0.243  0.00  0.00    +0.164 A 
ATOM     42  O   LIG    1        5.353  -2.350  -0.006  0.00  0.00    -0.430 OA
ATOM     43  C   LIG    1        5.838  -1.377  -0.795  0.00  0.00    +0.258 A 
ATOM     44  N   LIG    1        4.888  -0.511  -1.052  0.00  0.00    -0.203 NA
BRANCH  41  45
ATOM     45  C   LIG    1        3.124  -2.874   1.065  0.00  0.00    +0.020 A 
ATOM     46  C   LIG    1        1.867  -3.226   0.567  0.00  0.00    +0.011 A 
ATOM     47  C   LIG    1        1.006  -3.974   1.341  0.00  0.00    +0.001 A 
ATOM     48  C   LIG    1        1.384  -4.377   2.610  0.00  0.00    +0.000 A 
ATOM     49  C   LIG    1        2.627  -4.032   3.111  0.00  0.00    +0.001 A 
ATOM     50  C   LIG    1        3.501  -3.290   2.346  0.00  0.00    +0.011 A 
ENDBRANCH  41  45
BRANCH  40  54
ATOM     51  C   LIG    1        0.011   1.098  -0.486  0.00  0.00    +0.000 A 
ATOM     52  C   LIG    1        0.430   0.458   0.667  0.00  0.00    +0.001 A 
ATOM     53  C   LIG    1        1.646  -0.194   0.694  0.00  0.00    +0.010 A 
ATOM     54  C   LIG    1        2.453  -0.206  -0.444  0.00  0.00    +0.004 A 
ATOM     55  C   LIG    1        2.024   0.441  -1.603  0.00  0.00    +0.010 A 
ATOM     56  C   LIG    1        0.806   1.089  -1.617  0.00  0.00    +0.001 A 
ENDBRANCH  40  54
ENDBRANCH  39  43
ENDBRANCH  38  39
ENDBRANCH   1  38
TORSDOF 18
