REMARK  Name = ZINC45371737
REMARK                            x       y       z     vdW  Elec       q    Type
REMARK                         _______ _______ _______ _____ _____    ______ ____
ROOT
ATOM      1  C   LIG    1        2.670  -4.968  -5.373  0.00  0.00    +0.164 A 
ATOM      2  N   LIG    1        3.248  -4.317  -6.370  0.00  0.00    -0.208 NA
ATOM      3  C   LIG    1        3.747  -4.977  -7.411  0.00  0.00    +0.164 A 
ATOM      4  C   LIG    1        3.652  -6.383  -7.438  0.00  0.00    +0.078 A 
ATOM      5  C   LIG    1        3.029  -7.033  -6.353  0.00  0.00    +0.136 A 
ATOM      6  C   LIG    1        4.253  -6.815  -8.639  0.00  0.00    +0.148 A 
ATOM      7  N   LIG    1        4.677  -5.769  -9.289  0.00  0.00    -0.177 NA
ATOM      8  N   LIG    1        4.383  -4.609  -8.561  0.00  0.00    -0.243 N 
ATOM      9  N   LIG    1        2.563  -6.294  -5.355  0.00  0.00    -0.212 NA
ENDROOT
BRANCH   8  10
ATOM     10  C   LIG    1        4.702  -3.238  -8.965  0.00  0.00    +0.110 C 
ATOM     11  C   LIG    1        6.216  -3.094  -9.129  0.00  0.00    +0.032 C 
ATOM     12  C   LIG    1        6.550  -1.660  -9.546  0.00  0.00    +0.067 C 
ATOM     13  C   LIG    1        5.856  -1.342 -10.872  0.00  0.00    +0.170 C 
ATOM     14  O   LIG    1        6.167   0.006 -11.262  0.00  0.00    -0.346 OA
ATOM     15  C   LIG    1        7.290  -0.121 -12.168  0.00  0.00    +0.191 C 
ATOM     16  C   LIG    1        6.947  -1.436 -12.912  0.00  0.00    +0.191 C 
ATOM     17  C   LIG    1        4.342  -1.490 -10.714  0.00  0.00    +0.067 C 
ATOM     18  O   LIG    1        6.325  -2.238 -11.888  0.00  0.00    -0.346 OA
ATOM     19  C   LIG    1        4.012  -2.924 -10.294  0.00  0.00    +0.032 C 
ENDBRANCH   8  10
BRANCH   5  20
ATOM     20  N   LIG    1        2.909  -8.409  -6.329  0.00  0.00    -0.310 N 
ATOM     21  C   LIG    1        3.899  -9.243  -5.628  0.00  0.00    +0.138 C 
ATOM     22  C   LIG    1        3.133 -10.278  -4.786  0.00  0.00    +0.136 C 
ATOM     23  C   LIG    1        2.157  -9.515  -3.862  0.00  0.00    +0.036 C 
ATOM     24  C   LIG    1        0.860  -9.406  -4.695  0.00  0.00    +0.036 C 
ATOM     25  C   LIG    1        1.207 -10.116  -6.023  0.00  0.00    +0.136 C 
ATOM     26  O   LIG    1        2.290 -11.033  -5.686  0.00  0.00    -0.370 OA
ATOM     27  C   LIG    1        1.784  -9.083  -7.000  0.00  0.00    +0.138 C 
ENDBRANCH   5  20
BRANCH   1  31
ATOM     28  C   LIG    1        1.113  -2.743  -2.101  0.00  0.00    +0.035 A 
ATOM     29  C   LIG    1        1.720  -2.083  -3.163  0.00  0.00    +0.024 A 
ATOM     30  C   LIG    1        2.226  -2.802  -4.225  0.00  0.00    +0.013 A 
ATOM     31  C   LIG    1        2.128  -4.193  -4.233  0.00  0.00    +0.019 A 
ATOM     32  C   LIG    1        1.518  -4.853  -3.166  0.00  0.00    +0.013 A 
ATOM     33  C   LIG    1        1.020  -4.130  -2.104  0.00  0.00    +0.024 A 
BRANCH  28  38
ATOM     34  C   LIG    1       -1.153   1.167  -0.449  0.00  0.00    +0.129 C 
ATOM     35  N   LIG    1       -0.539  -0.143  -0.217  0.00  0.00    -0.302 N 
ATOM     36  H   LIG    1       -0.548  -0.533   0.671  0.00  0.00    +0.150 HD
ATOM     37  C   LIG    1        0.037  -0.807  -1.239  0.00  0.00    +0.304 C 
ATOM     38  N   LIG    1        0.602  -2.012  -1.026  0.00  0.00    -0.269 N 
ATOM     39  H   LIG    1        0.653  -2.372  -0.127  0.00  0.00    +0.156 HD
ATOM     40  O   LIG    1        0.047  -0.319  -2.352  0.00  0.00    -0.253 OA
ENDBRANCH  28  38
ENDBRANCH   1  31
TORSDOF 4
