REMARK  Name = ZINC13860721
REMARK                            x       y       z     vdW  Elec       q    Type
REMARK                         _______ _______ _______ _____ _____    ______ ____
ROOT
ATOM      1  C   LIG    1       -1.326   7.219  -0.164  0.00  0.00    +0.098 A 
ATOM      2  C   LIG    1       -2.578   7.838  -0.255  0.00  0.00    +0.020 A 
ATOM      3  C   LIG    1       -3.708   7.040  -0.241  0.00  0.00    +0.021 A 
ATOM      4  C   LIG    1       -3.571   5.667  -0.137  0.00  0.00    +0.114 A 
ATOM      5  N   LIG    1       -2.381   5.104  -0.057  0.00  0.00    -0.220 NA
ATOM      6  C   LIG    1       -1.269   5.821  -0.061  0.00  0.00    +0.233 A 
ENDROOT
BRANCH   1   9
ATOM      7  N   LIG    1       -0.157   9.364  -0.273  0.00  0.00    -0.307 N 
ATOM      8  H   LIG    1       -1.020   9.802  -0.338  0.00  0.00    +0.149 HD
ATOM      9  C   LIG    1       -0.089   8.022  -0.174  0.00  0.00    +0.249 C 
ATOM     10  O   LIG    1        0.993   7.473  -0.093  0.00  0.00    -0.270 OA
BRANCH   7  11
ATOM     11  C   LIG    1        1.072  10.162  -0.284  0.00  0.00    +0.139 C 
BRANCH  11  15
ATOM     12  C   LIG    1        0.079  14.303  -0.619  0.00  0.00    +0.000 A 
ATOM     13  C   LIG    1        0.194  13.719   0.628  0.00  0.00    +0.000 A 
ATOM     14  C   LIG    1        0.515  12.379   0.737  0.00  0.00    +0.005 A 
ATOM     15  C   LIG    1        0.721  11.623  -0.402  0.00  0.00    -0.030 A 
ATOM     16  C   LIG    1        0.612  12.208  -1.649  0.00  0.00    +0.005 A 
ATOM     17  C   LIG    1        0.285  13.547  -1.758  0.00  0.00    +0.000 A 
ENDBRANCH  11  15
ENDBRANCH   7  11
ENDBRANCH   1   9
BRANCH   6  18
ATOM     18  O   LIG    1       -0.069   5.201   0.029  0.00  0.00    -0.437 OA
BRANCH  18  19
ATOM     19  C   LIG    1       -0.049   3.842   0.003  0.00  0.00    +0.130 A 
ATOM     20  C   LIG    1        0.264   3.130   1.152  0.00  0.00    +0.046 A 
ATOM     21  C   LIG    1        0.284   1.749   1.123  0.00  0.00    +0.004 A 
ATOM     22  C   LIG    1       -0.007   1.077  -0.049  0.00  0.00    +0.000 A 
ATOM     23  C   LIG    1       -0.314   1.784  -1.197  0.00  0.00    +0.004 A 
ATOM     24  C   LIG    1       -0.341   3.165  -1.172  0.00  0.00    +0.046 A 
ENDBRANCH  18  19
ENDBRANCH   6  18
TORSDOF 5
