REMARK  Name = ZINC00004294
REMARK                            x       y       z     vdW  Elec       q    Type
REMARK                         _______ _______ _______ _____ _____    ______ ____
ROOT
ATOM      1  C   LIG    1       -0.018   1.461   0.010  0.00  0.00    +0.132 C 
ATOM      2  N   LIG    1        0.002  -0.004   0.002  0.00  0.00    -0.295 N 
ATOM      3  C   LIG    1        0.022  -0.684   1.165  0.00  0.00    +0.220 C 
ATOM      4  O   LIG    1        0.039  -1.897   1.159  0.00  0.00    -0.275 OA
ENDROOT
BRANCH   3   5
ATOM      5  C   LIG    1        0.025   0.062   2.475  0.00  0.00    +0.089 C 
ATOM      6  C   LIG    1        1.262   0.958   2.549  0.00  0.00    +0.013 C 
ATOM      7  C   LIG    1        2.523   0.096   2.451  0.00  0.00    +0.001 C 
ATOM      8  C   LIG    1        2.547  -0.904   3.608  0.00  0.00    +0.001 C 
ATOM      9  C   LIG    1        1.309  -1.800   3.534  0.00  0.00    +0.015 C 
ATOM     10  C   LIG    1        0.049  -0.938   3.632  0.00  0.00    +0.109 C 
BRANCH  10  11
ATOM     11  C   LIG    1       -1.170  -1.821   3.559  0.00  0.00    +0.309 C 
ATOM     12  O   LIG    1       -1.976  -1.666   2.672  0.00  0.00    -0.251 OA
BRANCH  11  13
ATOM     13  O   LIG    1       -1.361  -2.779   4.479  0.00  0.00    -0.480 OA
ATOM     14  H   LIG    1       -0.736  -2.900   5.167  0.00  0.00    +0.295 HD
ENDBRANCH  11  13
ENDBRANCH  10  11
ENDBRANCH   3   5
BRANCH   2  15
ATOM     15  C   LIG    1       -0.000  -0.730  -1.271  0.00  0.00    +0.205 C 
BRANCH  15  16
ATOM     16  C   LIG    1        1.420  -0.959  -1.720  0.00  0.00    +0.253 C 
ATOM     17  N   LIG    1        1.664  -1.612  -2.874  0.00  0.00    -0.196 N 
ATOM     18  H   LIG    1        0.926  -1.934  -3.415  0.00  0.00    +0.182 HD
ATOM     19  O   LIG    1        2.343  -0.556  -1.045  0.00  0.00    -0.272 OA
BRANCH  17  20
ATOM     20  O   LIG    1        2.998  -1.828  -3.297  0.00  0.00    -0.295 OA
ATOM     21  H   LIG    1        3.073  -2.304  -4.135  0.00  0.00    +0.241 HD
ENDBRANCH  17  20
ENDBRANCH  15  16
ENDBRANCH   2  15
TORSDOF 6
