REMARK  Name = ZINC13813271
REMARK                            x       y       z     vdW  Elec       q    Type
REMARK                         _______ _______ _______ _____ _____    ______ ____
ROOT
ATOM      1  C   LIG    1        1.770   3.723   1.442  0.00  0.00    +0.006 C 
ENDROOT
BRANCH   1   2
ATOM      2  C   LIG    1        1.719   3.206   0.002  0.00  0.00    +0.055 C 
BRANCH   2   4
ATOM      3  C   LIG    1       -0.016   1.337   0.009  0.00  0.00    +0.133 A 
ATOM      4  C   LIG    1        1.259   1.771  -0.000  0.00  0.00    +0.035 A 
ATOM      5  N   LIG    1        2.056   0.658  -0.014  0.00  0.00    -0.348 N 
ATOM      6  H   LIG    1        3.026   0.645  -0.023  0.00  0.00    +0.166 HD
ATOM      7  C   LIG    1        1.240  -0.418  -0.012  0.00  0.00    +0.196 A 
ATOM      8  N   LIG    1        0.002  -0.004   0.002  0.00  0.00    -0.244 NA
ENDBRANCH   2   4
ENDBRANCH   1   2
BRANCH   1   9
ATOM      9  C   LIG    1        2.237   5.179   1.445  0.00  0.00    -0.001 C 
BRANCH   9  10
ATOM     10  C   LIG    1        2.287   5.696   2.884  0.00  0.00    -0.020 C 
BRANCH  10  11
ATOM     11  C   LIG    1        2.755   7.153   2.887  0.00  0.00    -0.086 C 
BRANCH  11  12
ATOM     12  N   LIG    1        2.803   7.649   4.269  0.00  0.00    +0.378 N 
ATOM     13  H   LIG    1        3.111   8.610   4.271  0.00  0.00    -0.090 HD
ATOM     14  H   LIG    1        3.448   7.088   4.805  0.00  0.00    -0.090 HD
ATOM     15  H   LIG    1        1.883   7.590   4.679  0.00  0.00    -0.090 HD
ENDBRANCH  11  12
ENDBRANCH  10  11
ENDBRANCH   9  10
ENDBRANCH   1   9
TORSDOF 6
