REMARK  Name = ZINC13807947
REMARK                            x       y       z     vdW  Elec       q    Type
REMARK                         _______ _______ _______ _____ _____    ______ ____
ROOT
ATOM      1  C   LIG    1        0.002  -0.004   0.002  0.00  0.00    -0.028 C 
ENDROOT
BRANCH   1   2
ATOM      2  C   LIG    1       -0.018   1.503   0.010  0.00  0.00    -0.000 A 
ATOM      3  C   LIG    1       -1.128   2.258   0.019  0.00  0.00    +0.029 A 
ATOM      4  C   LIG    1       -0.693   3.657   0.028  0.00  0.00    -0.000 A 
ATOM      5  C   LIG    1       -1.364   4.882   0.042  0.00  0.00    +0.010 A 
ATOM      6  C   LIG    1       -0.649   6.046   0.042  0.00  0.00    +0.001 A 
ATOM      7  C   LIG    1        0.739   6.022   0.029  0.00  0.00    +0.002 A 
ATOM      8  C   LIG    1        1.420   4.825   0.015  0.00  0.00    +0.026 A 
ATOM      9  C   LIG    1        0.713   3.627   0.015  0.00  0.00    +0.047 A 
ATOM     10  N   LIG    1        1.091   2.303   0.004  0.00  0.00    -0.360 N 
ATOM     11  H   LIG    1        2.008   1.986  -0.007  0.00  0.00    +0.166 HD
ENDBRANCH   1   2
BRANCH   1  12
ATOM     12  N   LIG    1        0.143  -0.493   1.386  0.00  0.00    +0.385 N 
ATOM     13  H   LIG    1       -0.649  -0.158   1.946  0.00  0.00    -0.085 HD
ATOM     14  H   LIG    1        1.019  -0.135   1.784  0.00  0.00    -0.085 HD
BRANCH  12  15
ATOM     15  C   LIG    1        0.166  -1.968   1.409  0.00  0.00    -0.046 C 
BRANCH  15  19
ATOM     16  C   LIG    1        0.577  -3.301   5.446  0.00  0.00    +0.000 A 
ATOM     17  C   LIG    1       -0.681  -3.102   4.909  0.00  0.00    +0.000 A 
ATOM     18  C   LIG    1       -0.814  -2.671   3.602  0.00  0.00    +0.002 A 
ATOM     19  C   LIG    1        0.311  -2.438   2.833  0.00  0.00    -0.064 A 
ATOM     20  C   LIG    1        1.569  -2.642   3.369  0.00  0.00    +0.002 A 
ATOM     21  C   LIG    1        1.702  -3.069   4.677  0.00  0.00    +0.000 A 
ENDBRANCH  15  19
ENDBRANCH  12  15
ENDBRANCH   1  12
TORSDOF 4
