REMARK  Name = ZINC27987349
REMARK                            x       y       z     vdW  Elec       q    Type
REMARK                         _______ _______ _______ _____ _____    ______ ____
ROOT
ATOM      1  C   LIG    1        1.509  -2.491  -0.589  0.00  0.00    +0.007 C 
ATOM      2  C   LIG    1        0.891  -2.132   0.764  0.00  0.00    -0.010 C 
ATOM      3  C   LIG    1        0.828  -0.597   0.942  0.00  0.00    +0.008 C 
ATOM      4  C   LIG    1        0.281  -0.299   2.318  0.00  0.00    +0.150 C 
ATOM      5  C   LIG    1       -0.797  -1.154   2.842  0.00  0.00    +0.020 A 
ATOM      6  C   LIG    1       -1.429  -0.816   4.045  0.00  0.00    +0.015 A 
ATOM      7  C   LIG    1       -2.423  -1.611   4.540  0.00  0.00    +0.046 A 
ATOM      8  C   LIG    1       -2.809  -2.757   3.852  0.00  0.00    +0.117 A 
ATOM      9  C   LIG    1       -2.190  -3.098   2.654  0.00  0.00    +0.050 A 
ATOM     10  C   LIG    1       -1.188  -2.300   2.143  0.00  0.00    -0.027 A 
ATOM     11  O   LIG    1        0.719   0.621   2.975  0.00  0.00    -0.294 OA
ATOM     12  N   LIG    1       -0.017  -0.001  -0.092  0.00  0.00    +0.387 N 
ATOM     13  H   LIG    1        0.423  -0.286  -1.059  0.00  0.00    -0.081 HD
ATOM     14  C   LIG    1       -1.384  -0.530  -0.075  0.00  0.00    -0.077 C 
ATOM     15  C   LIG    1       -1.351  -2.045  -0.300  0.00  0.00    -0.007 C 
ATOM     16  C   LIG    1       -0.536  -2.681   0.838  0.00  0.00    -0.006 C 
ATOM     17  C   LIG    1       -0.521  -4.203   0.685  0.00  0.00    +0.016 C 
ENDROOT
BRANCH   8  18
ATOM     18  O   LIG    1       -3.793  -3.545   4.351  0.00  0.00    -0.507 OA
ATOM     19  H   LIG    1       -4.100  -4.452   3.809  0.00  0.00    +0.292 HD
ENDBRANCH   8  18
BRANCH  12  20
ATOM     20  C   LIG    1       -0.018   1.465   0.010  0.00  0.00    -0.074 C 
BRANCH  20  21
ATOM     21  C   LIG    1        1.424   1.973   0.071  0.00  0.00    -0.028 C 
ATOM     22  C   LIG    1        1.865   2.698   1.344  0.00  0.00    +0.002 C 
ATOM     23  C   LIG    1        1.640   3.488   0.053  0.00  0.00    +0.002 C 
ENDBRANCH  20  21
ENDBRANCH  12  20
TORSDOF 3
