REMARK  Name = ZINC39775397
REMARK                            x       y       z     vdW  Elec       q    Type
REMARK                         _______ _______ _______ _____ _____    ______ ____
ROOT
ATOM      1  C   LIG    1        1.273  -6.529   1.019  0.00  0.00    +0.249 C 
ATOM      2  N   LIG    1        1.075  -7.418   2.012  0.00  0.00    -0.206 N 
ATOM      3  H   LIG    1        1.312  -7.188   2.924  0.00  0.00    +0.177 HD
ATOM      4  O   LIG    1        0.978  -6.817  -0.122  0.00  0.00    -0.272 OA
ENDROOT
BRANCH   2   5
ATOM      5  N   LIG    1        0.528  -8.676   1.726  0.00  0.00    -0.188 NA
ATOM      6  C   LIG    1        0.238  -9.492   2.693  0.00  0.00    +0.142 C 
BRANCH   6   7
ATOM      7  C   LIG    1        0.239  -9.013   4.087  0.00  0.00    +0.038 A 
ATOM      8  C   LIG    1        0.013  -7.663   4.366  0.00  0.00    +0.045 A 
ATOM      9  C   LIG    1        0.015  -7.221   5.672  0.00  0.00    +0.122 A 
ATOM     10  C   LIG    1        0.240  -8.110   6.710  0.00  0.00    +0.036 A 
ATOM     11  C   LIG    1        0.465  -9.448   6.447  0.00  0.00    +0.048 A 
ATOM     12  C   LIG    1        0.461  -9.910   5.141  0.00  0.00    +0.126 A 
BRANCH   9  13
ATOM     13  N   LIG    1       -0.224  -5.790   5.967  0.00  0.00    +0.006 N 
ATOM     14  O   LIG    1       -0.420  -5.012   5.063  0.00  0.00    -0.130 OA
BRANCH  13  15
ATOM     15  O   LIG    1       -0.223  -5.400   7.111  0.00  0.00    -0.396 OA
ATOM     16  H   LIG    1       -0.070  -6.004   7.812  0.00  0.00    +0.329 HD
ENDBRANCH  13  15
ENDBRANCH   9  13
BRANCH  12  17
ATOM     17  O   LIG    1        0.675 -11.226   4.882  0.00  0.00    -0.506 OA
ATOM     18  H   LIG    1        0.672 -11.536   3.998  0.00  0.00    +0.292 HD
ENDBRANCH  12  17
ENDBRANCH   6   7
ENDBRANCH   2   5
BRANCH   1  19
ATOM     19  C   LIG    1        1.862  -5.176   1.326  0.00  0.00    +0.199 C 
BRANCH  19  20
ATOM     20  N   LIG    1        1.975  -4.400   0.088  0.00  0.00    -0.335 N 
ATOM     21  H   LIG    1        1.688  -4.786  -0.754  0.00  0.00    +0.147 HD
BRANCH  20  27
ATOM     22  C   LIG    1        4.092   0.860   0.220  0.00  0.00    +0.046 C 
ATOM     23  C   LIG    1        3.530  -0.538   0.185  0.00  0.00    -0.022 A 
ATOM     24  C   LIG    1        3.122  -1.087  -1.017  0.00  0.00    +0.024 A 
ATOM     25 BR   LIG    1        3.269  -0.084  -2.614  0.00  0.00    -0.050 Br
ATOM     26  C   LIG    1        2.605  -2.369  -1.053  0.00  0.00    +0.038 A 
ATOM     27  C   LIG    1        2.497  -3.105   0.120  0.00  0.00    +0.030 A 
ATOM     28  C   LIG    1        2.908  -2.551   1.326  0.00  0.00    +0.038 A 
ATOM     29  C   LIG    1        3.429  -1.271   1.354  0.00  0.00    +0.024 A 
ATOM     30 BR   LIG    1        3.996  -0.518   2.993  0.00  0.00    -0.050 Br
ENDBRANCH  20  27
ENDBRANCH  19  20
ENDBRANCH   1  19
TORSDOF 8
