REMARK  Name = ZINC25724686
REMARK                            x       y       z     vdW  Elec       q    Type
REMARK                         _______ _______ _______ _____ _____    ______ ____
ROOT
ATOM      1  N   LIG    1       -1.413  -2.002   0.005  0.00  0.00    +0.382 N 
ATOM      2  H   LIG    1       -0.865  -2.331   0.785  0.00  0.00    -0.081 HD
ATOM      3  C   LIG    1       -0.802  -2.469  -1.242  0.00  0.00    -0.078 C 
ATOM      4  C   LIG    1       -0.683  -3.995  -1.189  0.00  0.00    -0.018 C 
ATOM      5  C   LIG    1       -2.088  -4.587  -1.082  0.00  0.00    +0.000 C 
ATOM      6  C   LIG    1       -2.801  -4.034   0.158  0.00  0.00    -0.019 C 
ATOM      7  C   LIG    1       -4.251  -4.548   0.109  0.00  0.00    +0.059 C 
ATOM      8  C   LIG    1       -5.064  -3.829   1.153  0.00  0.00    +0.066 A 
ATOM      9  N   LIG    1       -6.227  -4.155   1.638  0.00  0.00    -0.179 NA
ATOM     10  N   LIG    1       -6.593  -3.185   2.584  0.00  0.00    -0.284 N 
ATOM     11  H   LIG    1       -7.412  -3.174   3.102  0.00  0.00    +0.188 HD
ATOM     12  C   LIG    1       -5.602  -2.267   2.645  0.00  0.00    +0.108 A 
ATOM     13  C   LIG    1       -4.646  -2.640   1.773  0.00  0.00    -0.008 A 
ATOM     14  C   LIG    1       -3.341  -1.958   1.465  0.00  0.00    +0.023 C 
ATOM     15  C   LIG    1       -2.789  -2.505   0.136  0.00  0.00    -0.061 C 
ENDROOT
BRANCH   1  16
ATOM     16  C   LIG    1       -1.433  -0.534   0.013  0.00  0.00    -0.079 C 
BRANCH  16  18
ATOM     17  C   LIG    1       -0.019   1.526   0.010  0.00  0.00    +0.002 C 
ATOM     18  C   LIG    1        0.002  -0.004   0.002  0.00  0.00    -0.022 C 
ENDBRANCH  16  18
ENDBRANCH   1  16
TORSDOF 2
