REMARK  Name = ZINC16052569
REMARK                            x       y       z     vdW  Elec       q    Type
REMARK                         _______ _______ _______ _____ _____    ______ ____
ROOT
ATOM      1  C   LIG    1       -0.003  -1.420  -4.905  0.00  0.00    +0.004 A 
ATOM      2  C   LIG    1        0.000  -2.485  -5.810  0.00  0.00    +0.057 A 
ATOM      3  C   LIG    1       -0.011  -2.194  -7.168  0.00  0.00    +0.139 A 
ATOM      4  C   LIG    1       -0.026  -0.867  -7.576  0.00  0.00    +0.156 A 
ATOM      5  N   LIG    1       -0.029   0.113  -6.694  0.00  0.00    -0.259 NA
ATOM      6  C   LIG    1       -0.024  -0.117  -5.397  0.00  0.00    +0.119 A 
ENDROOT
BRANCH   1  11
ATOM      7  C   LIG    1       -0.018   1.503   0.010  0.00  0.00    +0.068 C 
ATOM      8  C   LIG    1        0.002  -0.004   0.002  0.00  0.00    +0.067 A 
ATOM      9  C   LIG    1        0.008  -0.858  -1.182  0.00  0.00    +0.023 A 
ATOM     10  C   LIG    1       -0.002  -0.608  -2.557  0.00  0.00    +0.020 A 
ATOM     11  C   LIG    1        0.008  -1.674  -3.443  0.00  0.00    -0.016 A 
ATOM     12  C   LIG    1        0.028  -2.989  -2.963  0.00  0.00    +0.010 A 
ATOM     13  C   LIG    1        0.038  -3.241  -1.623  0.00  0.00    +0.028 A 
ATOM     14  C   LIG    1        0.029  -2.186  -0.712  0.00  0.00    +0.066 A 
ATOM     15  N   LIG    1        0.034  -2.119   0.657  0.00  0.00    -0.277 N 
ATOM     16  H   LIG    1        0.047  -2.881   1.257  0.00  0.00    +0.189 HD
ATOM     17  N   LIG    1        0.023  -0.777   1.050  0.00  0.00    -0.178 NA
ENDBRANCH   1  11
BRANCH   3  18
ATOM     18  O   LIG    1       -0.007  -3.196  -8.086  0.00  0.00    -0.492 OA
BRANCH  18  19
ATOM     19  C   LIG    1       -0.020  -2.814  -9.463  0.00  0.00    +0.213 C 
BRANCH  19  20
ATOM     20  C   LIG    1       -0.014  -4.068 -10.340  0.00  0.00    -0.033 C 
BRANCH  20  21
ATOM     21  N   LIG    1       -1.260  -4.817 -10.133  0.00  0.00    +0.382 N 
ATOM     22  H   LIG    1       -2.047  -4.236 -10.382  0.00  0.00    -0.089 HD
ATOM     23  H   LIG    1       -1.335  -5.085  -9.163  0.00  0.00    -0.089 HD
ATOM     24  H   LIG    1       -1.256  -5.644 -10.711  0.00  0.00    -0.089 HD
ENDBRANCH  20  21
BRANCH  20  25
ATOM     25  C   LIG    1        0.099  -3.662 -11.810  0.00  0.00    +0.022 C 
BRANCH  25  26
ATOM     26  C   LIG    1        0.229  -4.896 -12.665  0.00  0.00    -0.049 A 
ATOM     27  C   LIG    1        1.479  -5.414 -12.946  0.00  0.00    +0.003 A 
ATOM     28  C   LIG    1        1.598  -6.546 -13.730  0.00  0.00    +0.000 A 
ATOM     29  C   LIG    1        0.467  -7.162 -14.231  0.00  0.00    +0.000 A 
ATOM     30  C   LIG    1       -0.784  -6.645 -13.949  0.00  0.00    +0.000 A 
ATOM     31  C   LIG    1       -0.903  -5.515 -13.162  0.00  0.00    +0.003 A 
ENDBRANCH  25  26
ENDBRANCH  20  25
ENDBRANCH  19  20
ENDBRANCH  18  19
ENDBRANCH   3  18
TORSDOF 7
