REMARK  Name = ZINC27529349
REMARK                            x       y       z     vdW  Elec       q    Type
REMARK                         _______ _______ _______ _____ _____    ______ ____
ROOT
ATOM      1  C   LIG    1        1.097   2.036   0.186  0.00  0.00    +0.178 A 
ATOM      2  N   LIG    1       -0.024   1.337   0.204  0.00  0.00    -0.224 NA
ATOM      3  C   LIG    1       -0.015   0.030   0.423  0.00  0.00    +0.080 A 
ATOM      4  C   LIG    1        1.176  -0.607   0.635  0.00  0.00    +0.077 A 
ATOM      5  S   LIG    1        2.314   0.766   0.506  0.00  0.00    -0.059 S 
ENDROOT
BRANCH   3   6
ATOM      6  C   LIG    1       -1.285  -0.735   0.438  0.00  0.00    +0.001 A 
ATOM      7  C   LIG    1       -1.270  -2.111   0.663  0.00  0.00    +0.013 A 
ATOM      8  C   LIG    1       -2.455  -2.817   0.681  0.00  0.00    +0.039 A 
ATOM      9  C   LIG    1       -3.658  -2.164   0.466  0.00  0.00    +0.123 A 
ATOM     10  F   LIG    1       -4.815  -2.860   0.480  0.00  0.00    -0.205 F 
ATOM     11  C   LIG    1       -3.677  -0.797   0.237  0.00  0.00    +0.039 A 
ATOM     12  C   LIG    1       -2.497  -0.082   0.222  0.00  0.00    +0.013 A 
ENDBRANCH   3   6
BRANCH   1  13
ATOM     13  N   LIG    1        1.280   3.393  -0.025  0.00  0.00    -0.215 N 
ATOM     14  H   LIG    1        0.412   4.043  -0.211  0.00  0.00    +0.176 HD
BRANCH  13  21
ATOM     15  C   LIG    1        3.336   9.054   1.688  0.00  0.00    +0.007 C 
ATOM     16  C   LIG    1        3.132   7.910   0.693  0.00  0.00    -0.013 C 
ATOM     17  C   LIG    1        4.271   6.899   0.840  0.00  0.00    +0.009 C 
ATOM     18  C   LIG    1        4.117   5.802  -0.219  0.00  0.00    +0.053 C 
ATOM     19  C   LIG    1        2.733   5.204  -0.094  0.00  0.00    +0.037 C 
ATOM     20  C   LIG    1        1.545   6.141  -0.087  0.00  0.00    +0.053 C 
ATOM     21  N   LIG    1        2.571   3.937  -0.002  0.00  0.00    -0.190 NA
ATOM     22  C   LIG    1        1.792   7.226   0.972  0.00  0.00    +0.009 C 
ENDBRANCH  13  21
ENDBRANCH   1  13
TORSDOF 3
