REMARK  Name = ZINC13803772
REMARK                            x       y       z     vdW  Elec       q    Type
REMARK                         _______ _______ _______ _____ _____    ______ ____
ROOT
ATOM      1  C   LIG    1       -0.014   1.208   0.009  0.00  0.00    +0.190 C 
ATOM      2  O   LIG    1        0.002  -0.004   0.002  0.00  0.00    -0.287 OA
ENDROOT
BRANCH   1   3
ATOM      3  C   LIG    1       -1.297   1.926   0.019  0.00  0.00    +0.023 A 
ATOM      4  C   LIG    1       -1.320   3.325   0.032  0.00  0.00    +0.014 A 
ATOM      5  C   LIG    1       -2.525   3.992   0.035  0.00  0.00    +0.040 A 
ATOM      6  C   LIG    1       -3.715   3.280   0.037  0.00  0.00    +0.142 A 
ATOM      7  F   LIG    1       -4.894   3.941   0.046  0.00  0.00    -0.204 F 
ATOM      8  C   LIG    1       -3.701   1.893   0.030  0.00  0.00    +0.077 A 
ATOM      9 CL   LIG    1       -5.196   1.011   0.032  0.00  0.00    -0.081 Cl
ATOM     10  C   LIG    1       -2.501   1.213   0.021  0.00  0.00    +0.034 A 
ENDBRANCH   1   3
BRANCH   1  12
ATOM     11  C   LIG    1        2.439   1.016  -0.016  0.00  0.00    +0.205 C 
ATOM     12  C   LIG    1        1.280   1.980   0.001  0.00  0.00    +0.104 C 
BRANCH  11  13
ATOM     13  C   LIG    1        3.837   1.532  -0.026  0.00  0.00    +0.374 C 
ATOM     14  O   LIG    1        4.043   2.727  -0.022  0.00  0.00    -0.242 OA
BRANCH  13  16
ATOM     15  C   LIG    1        6.206   1.245  -0.051  0.00  0.00    +0.280 C 
ATOM     16  O   LIG    1        4.872   0.671  -0.041  0.00  0.00    -0.462 OA
ENDBRANCH  13  16
ENDBRANCH  11  13
BRANCH  11  17
ATOM     17  O   LIG    1        2.234  -0.174  -0.020  0.00  0.00    -0.501 OA
ATOM     18  H   LIG    1        2.955  -0.773  -0.030  0.00  0.00    +0.292 HD
ENDBRANCH  11  17
ENDBRANCH   1  12
TORSDOF 5
