REMARK  Name = ZINC55564324
REMARK                            x       y       z     vdW  Elec       q    Type
REMARK                         _______ _______ _______ _____ _____    ______ ____
ROOT
ATOM      1  N   LIG    1       -0.208  -6.339   3.410  0.00  0.00    -0.291 NA
ATOM      2  C   LIG    1        1.038  -6.828   2.805  0.00  0.00    +0.104 C 
ATOM      3  C   LIG    1        0.852  -8.285   2.368  0.00  0.00    +0.120 C 
ATOM      4  N   LIG    1        0.374  -9.062   3.522  0.00  0.00    -0.325 N 
ATOM      5  C   LIG    1       -0.791  -8.559   4.265  0.00  0.00    +0.120 C 
ATOM      6  C   LIG    1       -0.540  -7.091   4.627  0.00  0.00    +0.104 C 
ENDROOT
BRANCH   4   7
ATOM      7  C   LIG    1        1.011 -10.249   3.903  0.00  0.00    +0.072 A 
ATOM      8  C   LIG    1        2.053 -10.216   4.818  0.00  0.00    +0.027 A 
ATOM      9  C   LIG    1        2.680 -11.390   5.192  0.00  0.00    +0.002 A 
ATOM     10  C   LIG    1        2.271 -12.597   4.657  0.00  0.00    +0.004 A 
ATOM     11  C   LIG    1        1.233 -12.637   3.745  0.00  0.00    +0.047 A 
ATOM     12  C   LIG    1        0.596 -11.466   3.368  0.00  0.00    +0.141 A 
BRANCH  12  13
ATOM     13  O   LIG    1       -0.428 -11.505   2.474  0.00  0.00    -0.493 OA
ATOM     14  C   LIG    1       -0.800 -12.789   1.968  0.00  0.00    +0.277 C 
ENDBRANCH  12  13
ENDBRANCH   4   7
BRANCH   1  15
ATOM     15  C   LIG    1       -0.129  -4.898   3.686  0.00  0.00    +0.180 C 
BRANCH  15  18
ATOM     16  N   LIG    1        0.052  -2.797   2.393  0.00  0.00    -0.284 N 
ATOM     17  H   LIG    1        0.127  -2.321   3.234  0.00  0.00    +0.155 HD
ATOM     18  C   LIG    1       -0.031  -4.143   2.385  0.00  0.00    +0.231 C 
ATOM     19  O   LIG    1       -0.028  -4.745   1.333  0.00  0.00    -0.274 OA
BRANCH  16  25
ATOM     20  C   LIG    1        1.524   1.061  -0.275  0.00  0.00    +0.044 C 
ATOM     21  C   LIG    1        0.735  -0.215  -0.134  0.00  0.00    -0.049 A 
ATOM     22  C   LIG    1       -0.011  -0.687  -1.199  0.00  0.00    +0.003 A 
ATOM     23  C   LIG    1       -0.736  -1.857  -1.074  0.00  0.00    +0.002 A 
ATOM     24  C   LIG    1       -0.717  -2.559   0.116  0.00  0.00    +0.023 A 
ATOM     25  C   LIG    1        0.031  -2.089   1.186  0.00  0.00    +0.034 A 
ATOM     26  C   LIG    1        0.763  -0.915   1.056  0.00  0.00    +0.026 A 
ENDBRANCH  16  25
ENDBRANCH  15  18
ENDBRANCH   1  15
TORSDOF 5
