REMARK  Name = ZINC13798298
REMARK                            x       y       z     vdW  Elec       q    Type
REMARK                         _______ _______ _______ _____ _____    ______ ____
ROOT
ATOM      1  N   LIG    1       -0.016   1.358   0.009  0.00  0.00    -0.299 N 
ATOM      2  C   LIG    1        0.002  -0.004   0.002  0.00  0.00    +0.205 A 
ATOM      3  N   LIG    1        1.230  -0.434  -0.012  0.00  0.00    -0.235 NA
ATOM      4  C   LIG    1        2.086   0.621  -0.015  0.00  0.00    +0.090 A 
ATOM      5  C   LIG    1        3.478   0.728  -0.027  0.00  0.00    +0.044 A 
ATOM      6  C   LIG    1        4.069   1.979  -0.026  0.00  0.00    +0.007 A 
ATOM      7  C   LIG    1        3.282   3.130  -0.013  0.00  0.00    +0.016 A 
ATOM      8  C   LIG    1        1.908   3.034   0.001  0.00  0.00    +0.029 A 
ATOM      9  C   LIG    1        1.300   1.786  -0.001  0.00  0.00    +0.073 A 
ENDROOT
BRANCH   1  13
ATOM     10  C   LIG    1       -3.405   3.784   0.040  0.00  0.00    +0.000 A 
ATOM     11  C   LIG    1       -3.297   2.761  -0.884  0.00  0.00    +0.002 A 
ATOM     12  C   LIG    1       -2.176   1.956  -0.897  0.00  0.00    +0.026 A 
ATOM     13  C   LIG    1       -1.155   2.174   0.020  0.00  0.00    +0.048 A 
ATOM     14  C   LIG    1       -1.269   3.199   0.950  0.00  0.00    +0.026 A 
ATOM     15  C   LIG    1       -2.391   4.004   0.954  0.00  0.00    +0.002 A 
ENDBRANCH   1  13
BRANCH   6  16
ATOM     16  S   LIG    1        5.825   2.119  -0.043  0.00  0.00    -0.143 S 
ATOM     17  H   LIG    1        6.176   3.433  -0.039  0.00  0.00    +0.107 HD
ENDBRANCH   6  16
TORSDOF 2
