REMARK  Name = ZINC36270659
REMARK                            x       y       z     vdW  Elec       q    Type
REMARK                         _______ _______ _______ _____ _____    ______ ____
ROOT
ATOM      1  C   LIG    1       -1.790  -2.002   0.008  0.00  0.00    +0.049 C 
ATOM      2  C   LIG    1       -3.166  -2.296   0.625  0.00  0.00    -0.058 C 
ATOM      3  C   LIG    1       -3.518  -3.769   0.317  0.00  0.00    -0.016 C 
ATOM      4  C   LIG    1       -4.234  -3.727  -1.049  0.00  0.00    -0.017 C 
ATOM      5  C   LIG    1       -4.250  -2.232  -1.442  0.00  0.00    -0.068 C 
ATOM      6  C   LIG    1       -2.960  -1.938  -2.223  0.00  0.00    -0.007 C 
ATOM      7  N   LIG    1       -4.168  -1.500  -0.133  0.00  0.00    +0.382 N 
ATOM      8  H   LIG    1       -3.845  -0.553  -0.262  0.00  0.00    -0.081 HD
ATOM      9  C   LIG    1       -5.468  -1.517   0.552  0.00  0.00    -0.095 C 
ATOM     10  C   LIG    1       -1.774  -2.508  -1.438  0.00  0.00    +0.026 C 
ENDROOT
BRANCH  10  11
ATOM     11  C   LIG    1       -1.884  -4.011  -1.444  0.00  0.00    -0.044 A 
ATOM     12  C   LIG    1       -2.485  -4.655  -2.509  0.00  0.00    +0.004 A 
ATOM     13  C   LIG    1       -2.587  -6.033  -2.515  0.00  0.00    +0.003 A 
ATOM     14  C   LIG    1       -2.086  -6.768  -1.456  0.00  0.00    -0.050 A 
ATOM     15  C   LIG    1       -2.197  -8.271  -1.462  0.00  0.00    +0.044 C 
ATOM     16  C   LIG    1       -1.484  -6.124  -0.392  0.00  0.00    +0.003 A 
ATOM     17  C   LIG    1       -1.379  -4.745  -0.388  0.00  0.00    +0.004 A 
ENDBRANCH  10  11
BRANCH   1  18
ATOM     18  C   LIG    1       -1.535  -0.517   0.026  0.00  0.00    +0.135 C 
ATOM     19  O   LIG    1       -1.748   0.144  -0.962  0.00  0.00    -0.297 OA
BRANCH  18  21
ATOM     20  C   LIG    1       -0.844   1.644   1.028  0.00  0.00    +0.012 C 
ATOM     21  C   LIG    1       -1.014   0.143   1.276  0.00  0.00    +0.071 C 
ENDBRANCH  18  21
ENDBRANCH   1  18
TORSDOF 3
