REMARK  Name = ZINC26420394
REMARK                            x       y       z     vdW  Elec       q    Type
REMARK                         _______ _______ _______ _____ _____    ______ ____
ROOT
ATOM      1  C   LIG    1       -3.541   2.401   0.045  0.00  0.00    +0.012 A 
ATOM      2  C   LIG    1       -2.420   1.599   0.042  0.00  0.00    +0.027 A 
ATOM      3  C   LIG    1       -1.154   2.172   0.038  0.00  0.00    +0.047 A 
ATOM      4  C   LIG    1       -1.015   3.554   0.044  0.00  0.00    +0.027 A 
ATOM      5  C   LIG    1       -2.133   4.361   0.042  0.00  0.00    +0.012 A 
ATOM      6  C   LIG    1       -3.404   3.788   0.046  0.00  0.00    +0.002 A 
ENDROOT
BRANCH   6   7
ATOM      7  C   LIG    1       -4.608   4.654   0.050  0.00  0.00    +0.091 A 
ATOM      8  N   LIG    1       -5.818   4.110   0.047  0.00  0.00    -0.171 NA
ATOM      9  N   LIG    1       -6.886   4.823   0.061  0.00  0.00    -0.243 N 
ATOM     10  H   LIG    1       -7.852   4.298   0.067  0.00  0.00    +0.192 HD
ATOM     11  C   LIG    1       -6.851   6.146   0.067  0.00  0.00    +0.265 A 
ATOM     12  O   LIG    1       -8.008   6.855   0.075  0.00  0.00    -0.266 OA
ATOM     13  C   LIG    1       -5.626   6.810   0.065  0.00  0.00    +0.073 A 
ATOM     14  C   LIG    1       -4.472   6.046   0.056  0.00  0.00    +0.035 A 
ENDBRANCH   6   7
BRANCH   3  15
ATOM     15  N   LIG    1       -0.016   1.354   0.034  0.00  0.00    -0.307 N 
ATOM     16  C   LIG    1        1.289   1.774   0.024  0.00  0.00    +0.110 A 
ATOM     17  C   LIG    1        2.055   0.666   0.017  0.00  0.00    +0.102 A 
ATOM     18  N   LIG    1        1.245  -0.403   0.023  0.00  0.00    -0.352 N 
ATOM     19  H   LIG    1        1.672  -1.417   0.018  0.00  0.00    +0.166 HD
ATOM     20  C   LIG    1        0.002  -0.004   0.032  0.00  0.00    +0.178 A 
ENDBRANCH   3  15
TORSDOF 2
