REMARK  Name = ZINC38334038
REMARK                            x       y       z     vdW  Elec       q    Type
REMARK                         _______ _______ _______ _____ _____    ______ ____
ROOT
ATOM      1  C   LIG    1        4.556  -1.585  -1.333  0.00  0.00    -0.039 C 
ATOM      2  C   LIG    1        5.663  -2.360  -0.615  0.00  0.00    +0.044 C 
ATOM      3  C   LIG    1        6.812  -2.609  -1.601  0.00  0.00    +0.001 C 
ATOM      4  C   LIG    1        6.262  -3.398  -2.796  0.00  0.00    -0.014 C 
ATOM      5  C   LIG    1        5.135  -2.590  -3.444  0.00  0.00    -0.078 C 
ATOM      6  C   LIG    1        7.317  -1.252  -2.108  0.00  0.00    -0.014 C 
ATOM      7  C   LIG    1        6.160  -0.513  -2.775  0.00  0.00    -0.078 C 
ATOM      8  N   LIG    1        4.944  -1.330  -2.721  0.00  0.00    +0.383 N 
ATOM      9  H   LIG    1        4.202  -0.815  -3.171  0.00  0.00    -0.081 HD
ENDROOT
BRANCH   2  10
ATOM     10  N   LIG    1        6.152  -1.575   0.527  0.00  0.00    -0.310 NA
ATOM     11  H   LIG    1        6.548  -0.699   0.221  0.00  0.00    +0.122 HD
BRANCH  10  12
ATOM     12  C   LIG    1        7.123  -2.344   1.317  0.00  0.00    +0.118 C 
BRANCH  12  13
ATOM     13  C   LIG    1        7.480  -1.573   2.562  0.00  0.00    -0.015 A 
ATOM     14  C   LIG    1        8.613  -0.781   2.583  0.00  0.00    +0.006 A 
ATOM     15  C   LIG    1        8.940  -0.074   3.725  0.00  0.00    +0.000 A 
ATOM     16  C   LIG    1        8.136  -0.159   4.846  0.00  0.00    +0.001 A 
ATOM     17  C   LIG    1        7.003  -0.950   4.826  0.00  0.00    +0.020 A 
ATOM     18  C   LIG    1        6.671  -1.654   3.682  0.00  0.00    +0.045 A 
ATOM     19 CL   LIG    1        5.245  -2.643   3.653  0.00  0.00    -0.083 Cl
ENDBRANCH  12  13
ENDBRANCH  10  12
ENDBRANCH   2  10
BRANCH   1  20
ATOM     20  C   LIG    1        4.322  -0.253  -0.618  0.00  0.00    +0.037 C 
BRANCH  20  24
ATOM     21  C   LIG    1        1.328   1.972  -2.698  0.00  0.00    +0.000 A 
ATOM     22  C   LIG    1        2.563   2.540  -2.450  0.00  0.00    +0.000 A 
ATOM     23  C   LIG    1        3.532   1.820  -1.776  0.00  0.00    +0.004 A 
ATOM     24  C   LIG    1        3.265   0.532  -1.351  0.00  0.00    -0.041 A 
ATOM     25  C   LIG    1        2.030  -0.036  -1.599  0.00  0.00    +0.004 A 
ATOM     26  C   LIG    1        1.061   0.684  -2.274  0.00  0.00    +0.000 A 
ENDBRANCH  20  24
BRANCH  20  27
ATOM     27  C   LIG    1        3.865  -0.514   0.794  0.00  0.00    -0.041 A 
ATOM     28  C   LIG    1        4.397   0.217   1.840  0.00  0.00    +0.004 A 
ATOM     29  C   LIG    1        3.977  -0.022   3.135  0.00  0.00    +0.000 A 
ATOM     30  C   LIG    1        3.025  -0.993   3.385  0.00  0.00    +0.000 A 
ATOM     31  C   LIG    1        2.492  -1.723   2.339  0.00  0.00    +0.000 A 
ATOM     32  C   LIG    1        2.908  -1.481   1.044  0.00  0.00    +0.004 A 
ENDBRANCH  20  27
ENDBRANCH   1  20
TORSDOF 6
