REMARK  Name = ZINC26983004
REMARK                            x       y       z     vdW  Elec       q    Type
REMARK                         _______ _______ _______ _____ _____    ______ ____
ROOT
ATOM      1  P   LIG    1        0.101   1.005  -2.731  0.00  0.00    +0.202 P 
ATOM      2  O   LIG    1        0.227  -0.469  -2.681  0.00  0.00    -0.291 OA
ENDROOT
BRANCH   1   3
ATOM      3  O   LIG    1        1.566   1.667  -2.810  0.00  0.00    -0.344 OA
ATOM      4  H   LIG    1        2.078   1.413  -2.026  0.00  0.00    +0.218 HD
ENDBRANCH   1   3
BRANCH   1   5
ATOM      5  C   LIG    1       -0.753   1.593  -1.232  0.00  0.00    +0.097 C 
BRANCH   5   6
ATOM      6  C   LIG    1       -0.013   1.086   0.008  0.00  0.00    +0.010 C 
BRANCH   6   7
ATOM      7  C   LIG    1       -0.729   1.579   1.267  0.00  0.00    +0.000 C 
BRANCH   7   8
ATOM      8  C   LIG    1        0.011   1.072   2.506  0.00  0.00    -0.000 C 
BRANCH   8  10
ATOM      9  C   LIG    1        0.035   1.059   5.005  0.00  0.00    +0.004 C 
ATOM     10  C   LIG    1       -0.705   1.566   3.765  0.00  0.00    -0.003 C 
ENDBRANCH   8  10
ENDBRANCH   7   8
ENDBRANCH   6   7
ENDBRANCH   5   6
ENDBRANCH   1   5
BRANCH   1  11
ATOM     11  C   LIG    1       -0.862   1.482  -4.204  0.00  0.00    +0.095 C 
BRANCH  11  12
ATOM     12  C   LIG    1       -0.213   0.883  -5.454  0.00  0.00    -0.010 C 
BRANCH  12  13
ATOM     13  C   LIG    1       -1.020   1.283  -6.690  0.00  0.00    -0.086 C 
BRANCH  13  14
ATOM     14  N   LIG    1       -0.397   0.708  -7.889  0.00  0.00    +0.378 N 
ATOM     15  H   LIG    1        0.632   1.085  -7.985  0.00  0.00    -0.090 HD
ATOM     16  H   LIG    1       -0.379  -0.389  -7.803  0.00  0.00    -0.090 HD
ATOM     17  H   LIG    1       -0.978   0.996  -8.778  0.00  0.00    -0.090 HD
ENDBRANCH  13  14
ENDBRANCH  12  13
ENDBRANCH  11  12
ENDBRANCH   1  11
TORSDOF 10
