REMARK  Name = ZINC28526079
REMARK                            x       y       z     vdW  Elec       q    Type
REMARK                         _______ _______ _______ _____ _____    ______ ____
ROOT
ATOM      1  C   LIG    1       -2.906   3.152  -2.299  0.00  0.00    +0.029 C 
ATOM      2  C   LIG    1       -1.445   3.591  -2.413  0.00  0.00    +0.084 C 
ENDROOT
BRANCH   2   3
ATOM      3  N   LIG    1       -0.682   3.056  -1.277  0.00  0.00    -0.299 NA
ATOM      4  C   LIG    1       -0.537   1.597  -1.380  0.00  0.00    +0.066 C 
ATOM      5  C   LIG    1        0.328   1.090  -0.225  0.00  0.00    -0.064 C 
ATOM      6  N   LIG    1       -0.295   1.465   1.052  0.00  0.00    +0.379 N 
ATOM      7  H   LIG    1       -1.301   1.021   1.083  0.00  0.00    -0.082 HD
ATOM      8  C   LIG    1        0.468   0.930   2.188  0.00  0.00    -0.096 C 
ATOM      9  C   LIG    1       -0.440   2.924   1.155  0.00  0.00    -0.064 C 
ATOM     10  C   LIG    1       -1.306   3.431  -0.000  0.00  0.00    +0.066 C 
ENDBRANCH   2   3
BRANCH   2  11
ATOM     11  C   LIG    1       -1.371   5.096  -2.403  0.00  0.00    -0.031 A 
ATOM     12  C   LIG    1       -2.448   5.844  -2.840  0.00  0.00    +0.005 A 
ATOM     13  C   LIG    1       -2.381   7.225  -2.827  0.00  0.00    +0.000 A 
ATOM     14  C   LIG    1       -1.234   7.857  -2.386  0.00  0.00    +0.000 A 
ATOM     15  C   LIG    1       -0.155   7.109  -1.954  0.00  0.00    +0.000 A 
ATOM     16  C   LIG    1       -0.223   5.729  -1.963  0.00  0.00    +0.005 A 
ENDBRANCH   2  11
TORSDOF 2
