REMARK  Name = ZINC19685792
REMARK                            x       y       z     vdW  Elec       q    Type
REMARK                         _______ _______ _______ _____ _____    ______ ____
ROOT
ATOM      1  C   LIG    1        2.121  -7.465   0.058  0.00  0.00    +0.337 C 
ATOM      2  O   LIG    1        2.485  -6.341   0.350  0.00  0.00    -0.245 OA
ENDROOT
BRANCH   1   7
ATOM      3  C   LIG    1        6.367 -10.789  -1.673  0.00  0.00    +0.061 C 
ATOM      4  C   LIG    1        5.120 -10.004  -1.355  0.00  0.00    +0.016 C 
ATOM      5  C   LIG    1        4.712  -9.037  -2.195  0.00  0.00    +0.065 C 
ATOM      6  C   LIG    1        3.471  -8.235  -1.923  0.00  0.00    +0.096 C 
ATOM      7  C   LIG    1        3.043  -8.387  -0.490  0.00  0.00    +0.065 C 
ATOM      8  C   LIG    1        3.519  -9.379   0.282  0.00  0.00    +0.016 C 
ATOM      9  C   LIG    1        3.055  -9.498   1.711  0.00  0.00    +0.061 C 
ATOM     10  N   LIG    1        4.415 -10.287  -0.217  0.00  0.00    -0.321 N 
ATOM     11  H   LIG    1        4.554 -11.131   0.240  0.00  0.00    +0.152 HD
BRANCH   6  12
ATOM     12  C   LIG    1        2.363  -8.714  -2.824  0.00  0.00    -0.033 A 
ATOM     13  C   LIG    1        1.998 -10.047  -2.822  0.00  0.00    +0.005 A 
ATOM     14  C   LIG    1        0.981 -10.486  -3.649  0.00  0.00    +0.003 A 
ATOM     15  C   LIG    1        0.329  -9.592  -4.478  0.00  0.00    +0.032 A 
ATOM     16  C   LIG    1        0.693  -8.259  -4.479  0.00  0.00    +0.122 A 
ATOM     17  C   LIG    1        1.707  -7.819  -3.648  0.00  0.00    +0.037 A 
BRANCH  16  18
ATOM     18  N   LIG    1       -0.005  -7.301  -5.366  0.00  0.00    +0.006 N 
ATOM     19  O   LIG    1       -0.955  -7.665  -6.019  0.00  0.00    -0.130 OA
BRANCH  18  20
ATOM     20  O   LIG    1        0.375  -6.156  -5.438  0.00  0.00    -0.396 OA
ATOM     21  H   LIG    1        1.112  -5.874  -4.931  0.00  0.00    +0.329 HD
ENDBRANCH  18  20
ENDBRANCH  16  18
ENDBRANCH   6  12
BRANCH   5  22
ATOM     22  C   LIG    1        5.467  -8.770  -3.361  0.00  0.00    +0.337 C 
ATOM     23  O   LIG    1        6.474  -9.411  -3.594  0.00  0.00    -0.245 OA
BRANCH  22  24
ATOM     24  O   LIG    1        5.070  -7.803  -4.214  0.00  0.00    -0.465 OA
ATOM     25  C   LIG    1        5.880  -7.586  -5.371  0.00  0.00    +0.280 C 
ENDBRANCH  22  24
ENDBRANCH   5  22
ENDBRANCH   1   7
BRANCH   1  26
ATOM     26  O   LIG    1        0.838  -7.832   0.256  0.00  0.00    -0.463 OA
BRANCH  26  27
ATOM     27  C   LIG    1       -0.011  -6.892   0.917  0.00  0.00    +0.214 C 
BRANCH  27  28
ATOM     28  C   LIG    1       -1.382  -7.526   1.161  0.00  0.00    -0.037 C 
BRANCH  28  29
ATOM     29  N   LIG    1       -2.028  -7.807  -0.128  0.00  0.00    +0.384 N 
ATOM     30  H   LIG    1       -1.415  -8.372  -0.696  0.00  0.00    -0.082 HD
ATOM     31  C   LIG    1       -2.308  -6.542  -0.821  0.00  0.00    -0.063 C 
ATOM     32  C   LIG    1       -2.964  -6.835  -2.172  0.00  0.00    +0.067 C 
ATOM     33  N   LIG    1       -4.212  -7.582  -1.956  0.00  0.00    -0.295 NA
ATOM     34  C   LIG    1       -3.950  -8.839  -1.241  0.00  0.00    +0.067 C 
ATOM     35  C   LIG    1       -3.286  -8.530   0.102  0.00  0.00    -0.063 C 
BRANCH  33  36
ATOM     36  C   LIG    1       -4.902  -7.833  -3.228  0.00  0.00    +0.117 C 
BRANCH  36  37
ATOM     37  C   LIG    1       -5.201  -6.520  -3.905  0.00  0.00    -0.026 A 
ATOM     38  C   LIG    1       -5.625  -5.438  -3.157  0.00  0.00    +0.005 A 
ATOM     39  C   LIG    1       -5.900  -4.234  -3.778  0.00  0.00    +0.000 A 
ATOM     40  C   LIG    1       -5.751  -4.112  -5.147  0.00  0.00    +0.000 A 
ATOM     41  C   LIG    1       -5.326  -5.194  -5.895  0.00  0.00    +0.000 A 
ATOM     42  C   LIG    1       -5.047  -6.397  -5.273  0.00  0.00    +0.005 A 
ENDBRANCH  36  37
BRANCH  36  43
ATOM     43  C   LIG    1       -6.191  -8.568  -2.964  0.00  0.00    -0.026 A 
ATOM     44  C   LIG    1       -6.974  -8.221  -1.879  0.00  0.00    +0.005 A 
ATOM     45  C   LIG    1       -8.156  -8.895  -1.637  0.00  0.00    +0.000 A 
ATOM     46  C   LIG    1       -8.556  -9.915  -2.480  0.00  0.00    +0.000 A 
ATOM     47  C   LIG    1       -7.772 -10.262  -3.565  0.00  0.00    +0.000 A 
ATOM     48  C   LIG    1       -6.592  -9.585  -3.810  0.00  0.00    +0.005 A 
ENDBRANCH  36  43
ENDBRANCH  33  36
ENDBRANCH  28  29
ENDBRANCH  27  28
ENDBRANCH  26  27
ENDBRANCH   1  26
TORSDOF 13
