REMARK  Name = ZINC16156527
REMARK                            x       y       z     vdW  Elec       q    Type
REMARK                         _______ _______ _______ _____ _____    ______ ____
ROOT
ATOM      1  C   LIG    1        2.456   3.397   0.157  0.00  0.00    +0.028 C 
ATOM      2  C   LIG    1        1.935   2.232   0.621  0.00  0.00    +0.078 C 
ATOM      3  C   LIG    1        2.426   0.850   0.455  0.00  0.00    +0.263 C 
ATOM      4  N   LIG    1        1.708  -0.106   1.021  0.00  0.00    -0.224 N 
ATOM      5  C   LIG    1        0.586   0.172   1.714  0.00  0.00    +0.125 C 
ATOM      6  S   LIG    1       -0.468  -0.915   2.513  0.00  0.00    -0.027 S 
ATOM      7  O   LIG    1        3.440   0.602  -0.172  0.00  0.00    -0.269 OA
ATOM      8  S   LIG    1        0.466   1.950   1.599  0.00  0.00    -0.061 S 
ENDROOT
BRANCH   4   9
ATOM      9  C   LIG    1        2.124  -1.439   0.897  0.00  0.00    +0.043 A 
ATOM     10  C   LIG    1        2.611  -2.121   2.004  0.00  0.00    +0.025 A 
ATOM     11  C   LIG    1        3.014  -3.436   1.882  0.00  0.00    +0.022 A 
ATOM     12  C   LIG    1        2.945  -4.071   0.654  0.00  0.00    +0.041 A 
ATOM     13 CL   LIG    1        3.460  -5.721   0.501  0.00  0.00    -0.084 Cl
ATOM     14  C   LIG    1        2.465  -3.391  -0.453  0.00  0.00    +0.022 A 
ATOM     15  C   LIG    1        2.055  -2.078  -0.334  0.00  0.00    +0.025 A 
ENDBRANCH   4   9
BRANCH   1  18
ATOM     16  C   LIG    1        1.661   7.051   0.452  0.00  0.00    +0.166 A 
ATOM     17  C   LIG    1        2.375   5.876   0.314  0.00  0.00    +0.057 A 
ATOM     18  C   LIG    1        1.702   4.648   0.304  0.00  0.00    -0.017 A 
ATOM     19  C   LIG    1        0.308   4.617   0.427  0.00  0.00    +0.057 A 
ATOM     20  C   LIG    1       -0.398   5.796   0.570  0.00  0.00    +0.166 A 
ATOM     21  C   LIG    1        0.275   7.016   0.580  0.00  0.00    +0.201 A 
BRANCH  16  23
ATOM     22  C   LIG    1        3.736   8.208   0.327  0.00  0.00    +0.277 C 
ATOM     23  O   LIG    1        2.314   8.245   0.463  0.00  0.00    -0.491 OA
ENDBRANCH  16  23
BRANCH  20  24
ATOM     24  O   LIG    1       -1.752   5.767   0.695  0.00  0.00    -0.491 OA
ATOM     25  C   LIG    1       -2.377   4.482   0.676  0.00  0.00    +0.277 C 
ENDBRANCH  20  24
BRANCH  21  26
ATOM     26  O   LIG    1       -0.423   8.174   0.715  0.00  0.00    -0.501 OA
ATOM     27  H   LIG    1       -0.708   8.562  -0.124  0.00  0.00    +0.292 HD
ENDBRANCH  21  26
ENDBRANCH   1  18
TORSDOF 5
