REMARK  Name = ZINC13860657
REMARK                            x       y       z     vdW  Elec       q    Type
REMARK                         _______ _______ _______ _____ _____    ______ ____
ROOT
ATOM      1  C   LIG    1       -0.013   1.086   0.008  0.00  0.00    +0.025 C 
ATOM      2  C   LIG    1       -0.729   1.579   1.267  0.00  0.00    +0.068 C 
ATOM      3  C   LIG    1       -2.187   1.116   1.269  0.00  0.00    +0.025 C 
ATOM      4  C   LIG    1       -0.016   1.091   2.507  0.00  0.00    -0.011 A 
ATOM      5  C   LIG    1        0.249  -0.165   2.997  0.00  0.00    +0.015 A 
ATOM      6  C   LIG    1        0.944  -0.309   4.198  0.00  0.00    -0.017 A 
ATOM      7  C   LIG    1        1.363   0.826   4.891  0.00  0.00    +0.010 A 
ATOM      8  C   LIG    1        1.093   2.081   4.394  0.00  0.00    +0.024 A 
ATOM      9  C   LIG    1        0.399   2.228   3.192  0.00  0.00    +0.038 A 
ATOM     10  N   LIG    1        0.014   3.375   2.499  0.00  0.00    -0.285 N 
ATOM     11  H   LIG    1        0.202   4.277   2.801  0.00  0.00    +0.155 HD
ATOM     12  C   LIG    1       -0.648   3.088   1.366  0.00  0.00    +0.227 C 
ATOM     13  O   LIG    1       -1.097   3.887   0.572  0.00  0.00    -0.275 OA
ENDROOT
BRANCH   6  14
ATOM     14  C   LIG    1        1.235  -1.661   4.735  0.00  0.00    -0.016 A 
ATOM     15  C   LIG    1        0.810  -2.795   4.044  0.00  0.00    +0.008 A 
ATOM     16  C   LIG    1        1.087  -4.050   4.545  0.00  0.00    +0.002 A 
ATOM     17  C   LIG    1        1.777  -4.186   5.736  0.00  0.00    +0.020 A 
ATOM     18  C   LIG    1        2.197  -3.064   6.430  0.00  0.00    +0.042 A 
ATOM     19 CL   LIG    1        3.062  -3.243   7.925  0.00  0.00    -0.084 Cl
ATOM     20  C   LIG    1        1.929  -1.802   5.935  0.00  0.00    +0.028 A 
ENDBRANCH   6  14
TORSDOF 1
