REMARK  Name = ZINC35931823
REMARK                            x       y       z     vdW  Elec       q    Type
REMARK                         _______ _______ _______ _____ _____    ______ ____
ROOT
ATOM      1  C   LIG    1        1.455  -2.521  -2.524  0.00  0.00    +0.013 C 
ENDROOT
BRANCH   1   2
ATOM      2  C   LIG    1        1.369  -4.024  -2.595  0.00  0.00    +0.201 C 
ATOM      3  N   LIG    1        0.243  -4.613  -3.045  0.00  0.00    -0.303 N 
ATOM      4  C   LIG    1       -0.967  -3.914  -3.502  0.00  0.00    +0.108 C 
ATOM      5  C   LIG    1       -1.998  -4.993  -3.896  0.00  0.00    +0.020 C 
ATOM      6  C   LIG    1       -1.517  -6.239  -3.106  0.00  0.00    +0.020 C 
ATOM      7  C   LIG    1        0.024  -6.066  -3.165  0.00  0.00    +0.108 C 
ATOM      8  O   LIG    1        2.312  -4.702  -2.247  0.00  0.00    -0.277 OA
ENDBRANCH   1   2
BRANCH   1   9
ATOM      9  N   LIG    1        2.866  -2.113  -2.476  0.00  0.00    +0.386 N 
ATOM     10  H   LIG    1        3.304  -2.514  -1.661  0.00  0.00    -0.089 HD
ATOM     11  H   LIG    1        2.924  -1.107  -2.429  0.00  0.00    -0.089 HD
ATOM     12  H   LIG    1        3.338  -2.439  -3.307  0.00  0.00    -0.089 HD
ENDBRANCH   1   9
BRANCH   1  13
ATOM     13  C   LIG    1        0.739  -2.027  -1.265  0.00  0.00    -0.007 C 
BRANCH  13  14
ATOM     14  C   LIG    1        0.718  -0.497  -1.257  0.00  0.00    -0.001 C 
BRANCH  14  16
ATOM     15  C   LIG    1       -0.019   1.526   0.010  0.00  0.00    +0.004 C 
ATOM     16  C   LIG    1        0.002  -0.004   0.002  0.00  0.00    -0.003 C 
ENDBRANCH  14  16
ENDBRANCH  13  14
ENDBRANCH   1  13
TORSDOF 5
