REMARK  Name = ZINC28570816
REMARK                            x       y       z     vdW  Elec       q    Type
REMARK                         _______ _______ _______ _____ _____    ______ ____
ROOT
ATOM      1  S   UNK    1       -0.095   5.960  -1.677  0.00  0.00    -0.156 S 
ENDROOT
BRANCH   1   2
ATOM      2  C   UNK    1       -0.070   5.347   0.030  0.00  0.00    +0.104 C 
BRANCH   2   5
ATOM      3  C   UNK    1        1.175   1.783   0.000  0.00  0.00    +0.001 A 
ATOM      4  C   UNK    1        1.156   3.166   0.008  0.00  0.00    +0.004 A 
ATOM      5  C   UNK    1       -0.050   3.840   0.022  0.00  0.00    -0.037 A 
ATOM      6  C   UNK    1       -1.238   3.133   0.030  0.00  0.00    +0.016 A 
ATOM      7  C   UNK    1       -1.219   1.751   0.017  0.00  0.00    +0.055 A 
ATOM      8  C   UNK    1       -0.013   1.076   0.008  0.00  0.00    +0.012 A 
BRANCH   7   9
ATOM      9  C   UNK    1       -2.514   0.980   0.019  0.00  0.00    +0.417 C 
ATOM     10  F   UNK    1       -3.257   1.314  -1.118  0.00  0.00    -0.166 F 
ATOM     11  F   UNK    1       -3.247   1.301   1.167  0.00  0.00    -0.166 F 
ATOM     12  F   UNK    1       -2.240  -0.392   0.010  0.00  0.00    -0.166 F 
ENDBRANCH   7   9
ENDBRANCH   2   5
ENDBRANCH   1   2
BRANCH   1  13
ATOM     13  C   UNK    1       -0.118   7.765  -1.494  0.00  0.00    +0.068 C 
BRANCH  13  14
ATOM     14  C   UNK    1       -0.139   8.417  -2.878  0.00  0.00    +0.005 C 
BRANCH  14  15
ATOM     15  C   UNK    1       -0.159   9.939  -2.725  0.00  0.00    +0.036 C 
BRANCH  15  16
ATOM     16  N   UNK    1       -1.414  10.351  -2.081  0.00  0.00    +0.387 N 
ATOM     17  H   UNK    1       -2.265  10.034  -2.702  0.00  0.00    -0.089 HD
ATOM     18  H   UNK    1       -1.488   9.881  -1.089  0.00  0.00    -0.089 HD
ATOM     19  H   UNK    1       -1.427  11.445  -1.971  0.00  0.00    -0.089 HD
ENDBRANCH  15  16
BRANCH  15  20
ATOM     20  C   UNK    1       -0.056  10.583  -4.083  0.00  0.00    +0.290 C 
ATOM     21  O   UNK    1       -1.049  11.000  -4.631  0.00  0.00    -0.253 OA
BRANCH  20  22
ATOM     22  O   UNK    1        1.138  10.692  -4.686  0.00  0.00    -0.482 OA
ATOM     23  H   UNK    1        1.908  10.369  -4.261  0.00  0.00    +0.295 HD
ENDBRANCH  20  22
ENDBRANCH  15  20
ENDBRANCH  14  15
ENDBRANCH  13  14
ENDBRANCH   1  13
TORSDOF 9
