REMARK  Name = ZINC13981338
REMARK                            x       y       z     vdW  Elec       q    Type
REMARK                         _______ _______ _______ _____ _____    ______ ____
ROOT
ATOM      1  C   LIG    1        0.140   1.103  -0.201  0.00  0.00    +0.047 A 
ATOM      2  C   LIG    1        0.331  -0.261  -0.273  0.00  0.00    +0.113 A 
ATOM      3  N   LIG    1        1.544  -0.787  -0.241  0.00  0.00    -0.261 NA
ATOM      4  C   LIG    1        2.630  -0.050  -0.139  0.00  0.00    +0.140 A 
ATOM      5  C   LIG    1        2.532   1.341  -0.061  0.00  0.00    +0.108 A 
ATOM      6  N   LIG    1        3.430   2.347   0.048  0.00  0.00    -0.224 NA
ATOM      7  C   LIG    1        2.801   3.496   0.082  0.00  0.00    +0.167 A 
ATOM      8  N   LIG    1        1.449   3.288  -0.001  0.00  0.00    -0.319 N 
ATOM      9  C   LIG    1        1.251   1.931  -0.093  0.00  0.00    +0.072 A 
ENDROOT
BRANCH   8  10
ATOM     10  C   LIG    1        0.409   4.319   0.006  0.00  0.00    +0.089 C 
ATOM     11  C   LIG    1       -0.525   4.093   1.197  0.00  0.00    +0.025 C 
ATOM     12  C   LIG    1       -1.611   5.170   1.205  0.00  0.00    +0.002 C 
ATOM     13  C   LIG    1       -2.415   5.093  -0.095  0.00  0.00    +0.000 C 
ATOM     14  C   LIG    1       -1.481   5.320  -1.286  0.00  0.00    +0.002 C 
ATOM     15  C   LIG    1       -0.395   4.242  -1.294  0.00  0.00    +0.025 C 
ENDBRANCH   8  10
BRANCH   7  16
ATOM     16  C   LIG    1        3.452   4.820   0.196  0.00  0.00    +0.190 A 
ATOM     17  C   LIG    1        4.897   5.146   0.187  0.00  0.00    +0.191 A 
ATOM     18  N   LIG    1        4.896   6.452   0.318  0.00  0.00    -0.033 NA
ATOM     19  O   LIG    1        3.756   6.848   0.391  0.00  0.00    -0.240 OA
ATOM     20  N   LIG    1        2.894   6.004   0.326  0.00  0.00    -0.044 NA
BRANCH  17  21
ATOM     21  N   LIG    1        5.982   4.287   0.069  0.00  0.00    -0.339 N 
ATOM     22  H   LIG    1        6.885   4.641   0.078  0.00  0.00    +0.144 HD
ATOM     23  H   LIG    1        5.836   3.332  -0.024  0.00  0.00    +0.144 HD
ENDBRANCH  17  21
ENDBRANCH   7  16
TORSDOF 3
