REMARK  Name = ZINC16948211
REMARK                            x       y       z     vdW  Elec       q    Type
REMARK                         _______ _______ _______ _____ _____    ______ ____
ROOT
ATOM      1  C   LIG    1        1.175   2.102   0.002  0.00  0.00    -0.017 A 
ATOM      2  C   LIG    1       -0.017   1.375   0.010  0.00  0.00    +0.010 A 
ATOM      3  C   LIG    1        0.002  -0.004   0.002  0.00  0.00    +0.024 A 
ATOM      4  C   LIG    1        1.211  -0.691  -0.013  0.00  0.00    +0.045 A 
ATOM      5  C   LIG    1        2.413   0.038  -0.021  0.00  0.00    +0.049 A 
ATOM      6  C   LIG    1        3.506  -0.953  -0.036  0.00  0.00    +0.249 C 
ATOM      7  C   LIG    1        2.815  -2.285  -0.037  0.00  0.00    +0.289 C 
ATOM      8  O   LIG    1        3.354  -3.372  -0.048  0.00  0.00    -0.266 OA
ATOM      9  O   LIG    1        4.700  -0.738  -0.047  0.00  0.00    -0.282 OA
ATOM     10  N   LIG    1        1.491  -2.055  -0.023  0.00  0.00    -0.278 N 
ATOM     11  H   LIG    1        0.816  -2.751  -0.020  0.00  0.00    +0.155 HD
ATOM     12  C   LIG    1        2.394   1.430  -0.013  0.00  0.00    +0.022 A 
ENDROOT
BRANCH   1  16
ATOM     13  C   LIG    1        1.083   6.353   0.024  0.00  0.00    +0.000 A 
ATOM     14  C   LIG    1       -0.102   5.638   0.031  0.00  0.00    +0.001 A 
ATOM     15  C   LIG    1       -0.077   4.258   0.024  0.00  0.00    +0.008 A 
ATOM     16  C   LIG    1        1.143   3.585   0.010  0.00  0.00    -0.018 A 
ATOM     17  C   LIG    1        2.333   4.310   0.008  0.00  0.00    +0.008 A 
ATOM     18  C   LIG    1        2.297   5.690   0.009  0.00  0.00    +0.001 A 
ENDBRANCH   1  16
TORSDOF 1
