REMARK  Name = ZINC26826387
REMARK                            x       y       z     vdW  Elec       q    Type
REMARK                         _______ _______ _______ _____ _____    ______ ____
ROOT
ATOM      1  C   LIG    1        0.126   1.484   0.341  0.00  0.00    +0.061 C 
ATOM      2  C   LIG    1        0.073  -0.012   0.163  0.00  0.00    +0.016 C 
ATOM      3  C   LIG    1       -1.118  -0.635   0.135  0.00  0.00    +0.065 C 
ATOM      4  C   LIG    1       -1.220  -2.123  -0.047  0.00  0.00    +0.096 C 
ATOM      5  C   LIG    1        0.106  -2.781   0.207  0.00  0.00    +0.065 C 
ATOM      6  C   LIG    1        1.248  -2.072   0.232  0.00  0.00    +0.016 C 
ATOM      7  C   LIG    1        2.556  -2.777   0.483  0.00  0.00    +0.061 C 
ATOM      8  N   LIG    1        1.236  -0.718   0.028  0.00  0.00    -0.321 N 
ATOM      9  H   LIG    1        2.056  -0.257  -0.210  0.00  0.00    +0.152 HD
ENDROOT
BRANCH   4  10
ATOM     10  C   LIG    1       -1.658  -2.421  -1.458  0.00  0.00    -0.033 A 
ATOM     11  C   LIG    1       -0.883  -2.006  -2.525  0.00  0.00    +0.005 A 
ATOM     12  C   LIG    1       -1.285  -2.280  -3.819  0.00  0.00    +0.003 A 
ATOM     13  C   LIG    1       -2.463  -2.968  -4.046  0.00  0.00    +0.032 A 
ATOM     14  C   LIG    1       -3.237  -3.383  -2.979  0.00  0.00    +0.122 A 
ATOM     15  C   LIG    1       -2.833  -3.113  -1.685  0.00  0.00    +0.037 A 
BRANCH  14  16
ATOM     16  N   LIG    1       -4.498  -4.119  -3.222  0.00  0.00    +0.006 N 
ATOM     17  O   LIG    1       -4.851  -4.357  -4.354  0.00  0.00    -0.130 OA
BRANCH  16  18
ATOM     18  O   LIG    1       -5.176  -4.482  -2.289  0.00  0.00    -0.396 OA
ATOM     19  H   LIG    1       -4.903  -4.297  -1.412  0.00  0.00    +0.329 HD
ENDBRANCH  16  18
ENDBRANCH  14  16
ENDBRANCH   4  10
BRANCH   3  20
ATOM     20  C   LIG    1       -2.301   0.127   0.281  0.00  0.00    +0.337 C 
ATOM     21  O   LIG    1       -2.234   1.332   0.430  0.00  0.00    -0.245 OA
BRANCH  20  22
ATOM     22  O   LIG    1       -3.504  -0.484   0.255  0.00  0.00    -0.465 OA
ATOM     23  C   LIG    1       -4.657   0.346   0.408  0.00  0.00    +0.280 C 
ENDBRANCH  20  22
ENDBRANCH   3  20
BRANCH   5  24
ATOM     24  C   LIG    1        0.154  -4.178   0.425  0.00  0.00    +0.338 C 
ATOM     25  O   LIG    1       -0.225  -4.642   1.484  0.00  0.00    -0.245 OA
BRANCH  24  26
ATOM     26  O   LIG    1        0.621  -4.996  -0.541  0.00  0.00    -0.461 OA
BRANCH  26  27
ATOM     27  C   LIG    1        0.641  -6.396  -0.253  0.00  0.00    +0.235 C 
BRANCH  27  28
ATOM     28  C   LIG    1        1.197  -7.157  -1.458  0.00  0.00    +0.020 C 
ATOM     29  C   LIG    1        1.103  -8.662  -1.198  0.00  0.00    +0.010 C 
ATOM     30  C   LIG    1        2.661  -6.767  -1.676  0.00  0.00    +0.010 C 
ENDBRANCH  27  28
ENDBRANCH  26  27
ENDBRANCH  24  26
ENDBRANCH   5  24
TORSDOF 9
