REMARK  Name = ZINC14806830
REMARK                            x       y       z     vdW  Elec       q    Type
REMARK                         _______ _______ _______ _____ _____    ______ ____
ROOT
ATOM      1  C   LIG    1       -0.071   5.050   4.511  0.00  0.00    +0.327 A 
ATOM      2  N   LIG    1       -0.791   5.608   5.474  0.00  0.00    -0.177 NA
ATOM      3  C   LIG    1       -1.275   6.839   5.344  0.00  0.00    +0.158 A 
ATOM      4  C   LIG    1       -1.008   7.544   4.157  0.00  0.00    +0.148 A 
ATOM      5  C   LIG    1       -0.246   6.908   3.163  0.00  0.00    +0.169 A 
ATOM      6  N   LIG    1       -0.137   7.810   2.135  0.00  0.00    -0.312 N 
ATOM      7  C   LIG    1       -0.818   8.933   2.503  0.00  0.00    +0.202 A 
ATOM      8  N   LIG    1       -1.327   8.775   3.689  0.00  0.00    -0.231 NA
ATOM      9  N   LIG    1        0.204   5.676   3.381  0.00  0.00    -0.175 NA
ENDROOT
BRANCH   6  10
ATOM     10  C   LIG    1        0.574   7.602   0.871  0.00  0.00    +0.090 C 
ATOM     11  C   LIG    1       -0.410   7.728  -0.294  0.00  0.00    +0.025 C 
ATOM     12  C   LIG    1        0.332   7.511  -1.615  0.00  0.00    +0.002 C 
ATOM     13  C   LIG    1        1.433   8.564  -1.760  0.00  0.00    +0.000 C 
ATOM     14  C   LIG    1        2.417   8.438  -0.595  0.00  0.00    +0.002 C 
ATOM     15  C   LIG    1        1.674   8.655   0.725  0.00  0.00    +0.025 C 
ENDBRANCH   6  10
BRANCH   3  16
ATOM     16  N   LIG    1       -2.026   7.414   6.354  0.00  0.00    -0.297 N 
ATOM     17  H   LIG    1       -1.626   8.295   6.607  0.00  0.00    +0.154 HD
BRANCH  16  18
ATOM     18  C   LIG    1       -2.180   6.749   7.577  0.00  0.00    +0.033 A 
ATOM     19  C   LIG    1       -1.129   6.008   8.102  0.00  0.00    +0.025 A 
ATOM     20  C   LIG    1       -1.279   5.357   9.310  0.00  0.00    +0.025 A 
ATOM     21  C   LIG    1       -2.485   5.435   9.996  0.00  0.00    +0.030 A 
ATOM     22  C   LIG    1       -3.537   6.172   9.469  0.00  0.00    +0.025 A 
ATOM     23  C   LIG    1       -3.385   6.827   8.263  0.00  0.00    +0.025 A 
BRANCH  21  24
ATOM     24  N   LIG    1       -2.638   4.771  11.218  0.00  0.00    -0.326 N 
ATOM     25  C   LIG    1       -3.037   5.707  12.280  0.00  0.00    +0.133 C 
ATOM     26  C   LIG    1       -3.252   4.931  13.582  0.00  0.00    +0.178 C 
ATOM     27  O   LIG    1       -2.056   4.218  13.909  0.00  0.00    -0.377 OA
ATOM     28  C   LIG    1       -1.639   3.297  12.897  0.00  0.00    +0.178 C 
ATOM     29  C   LIG    1       -1.408   4.056  11.588  0.00  0.00    +0.133 C 
ENDBRANCH  21  24
ENDBRANCH  16  18
ENDBRANCH   3  16
BRANCH   1  30
ATOM     30  O   LIG    1        0.399   3.792   4.693  0.00  0.00    -0.423 OA
BRANCH  30  39
ATOM     31  C   LIG    1        5.148   2.508   3.694  0.00  0.00    +0.001 A 
ATOM     32  C   LIG    1        4.530   3.131   4.777  0.00  0.00    +0.001 A 
ATOM     33  C   LIG    1        3.189   3.362   4.780  0.00  0.00    +0.012 A 
ATOM     34  C   LIG    1        2.413   2.971   3.677  0.00  0.00    +0.025 A 
ATOM     35  C   LIG    1        3.040   2.333   2.578  0.00  0.00    -0.014 A 
ATOM     36  C   LIG    1        2.265   1.936   1.475  0.00  0.00    +0.009 A 
ATOM     37  C   LIG    1        0.922   2.162   1.472  0.00  0.00    +0.004 A 
ATOM     38  C   LIG    1        0.296   2.783   2.549  0.00  0.00    +0.047 A 
ATOM     39  C   LIG    1        1.020   3.187   3.648  0.00  0.00    +0.140 A 
ATOM     40  C   LIG    1        4.428   2.112   2.610  0.00  0.00    +0.008 A 
ENDBRANCH  30  39
ENDBRANCH   1  30
TORSDOF 6
