REMARK  Name = ZINC13757086
REMARK                            x       y       z     vdW  Elec       q    Type
REMARK                         _______ _______ _______ _____ _____    ______ ____
ROOT
ATOM      1  C   LIG    1        0.033  -2.771  -0.025  0.00  0.00    +0.053 A 
ATOM      2  C   LIG    1        0.044  -2.092   1.172  0.00  0.00    +0.001 A 
ATOM      3  C   LIG    1        0.023  -0.704   1.206  0.00  0.00    +0.127 A 
ATOM      4  O   LIG    1        0.019  -0.241   2.487  0.00  0.00    -0.491 OA
ATOM      5  C   LIG    1        0.478  -1.282   3.367  0.00  0.00    +0.234 C 
ATOM      6  C   LIG    1        0.002  -0.004   0.002  0.00  0.00    -0.000 A 
ATOM      7  C   LIG    1       -0.006  -0.683  -1.195  0.00  0.00    +0.004 A 
ATOM      8  C   LIG    1        0.001  -0.204  -2.634  0.00  0.00    +0.080 C 
ATOM      9  C   LIG    1        0.408  -1.486  -3.398  0.00  0.00    +0.234 C 
ATOM     10  O   LIG    1       -0.014  -2.534  -2.510  0.00  0.00    -0.491 OA
ATOM     11  C   LIG    1        0.079  -2.571   2.611  0.00  0.00    +0.080 C 
ATOM     12  C   LIG    1        0.009  -2.071  -1.229  0.00  0.00    +0.125 A 
ENDROOT
BRANCH   6  13
ATOM     13  C   LIG    1       -0.018   1.503   0.010  0.00  0.00    +0.020 C 
BRANCH  13  14
ATOM     14  C   LIG    1        1.417   2.032  -0.001  0.00  0.00    -0.082 C 
BRANCH  14  15
ATOM     15  N   LIG    1        1.385   3.505   0.030  0.00  0.00    +0.378 N 
ATOM     16  H   LIG    1        0.931   3.815   0.897  0.00  0.00    -0.090 HD
ATOM     17  H   LIG    1        0.859   3.860  -0.767  0.00  0.00    -0.090 HD
ATOM     18  H   LIG    1        2.334   3.876   0.001  0.00  0.00    -0.090 HD
ENDBRANCH  14  15
ENDBRANCH  13  14
ENDBRANCH   6  13
TORSDOF 3
