REMARK  Name = ZINC71280869
REMARK                            x       y       z     vdW  Elec       q    Type
REMARK                         _______ _______ _______ _____ _____    ______ ____
ROOT
ATOM      1  C   LIG    1       -0.178   0.873  -0.427  0.00  0.00    -0.020 C 
ATOM      2  C   LIG    1        1.229   1.487  -0.200  0.00  0.00    -0.006 C 
ATOM      3  C   LIG    1        2.115   0.575  -1.085  0.00  0.00    +0.041 C 
ATOM      4  N   LIG    1        1.532  -0.776  -0.935  0.00  0.00    +0.388 N 
ATOM      5  H   LIG    1        2.033  -1.285  -0.222  0.00  0.00    -0.085 HD
ATOM      6  H   LIG    1        1.596  -1.272  -1.812  0.00  0.00    -0.085 HD
ATOM      7  C   LIG    1        0.117  -0.637  -0.546  0.00  0.00    -0.081 C 
ENDROOT
BRANCH   3   8
ATOM      8  C   LIG    1        3.539   0.591  -0.594  0.00  0.00    +0.220 C 
ATOM      9  N   LIG    1        4.423   1.398  -1.156  0.00  0.00    -0.294 N 
ATOM     10  H   LIG    1        5.340   1.409  -0.840  0.00  0.00    +0.300 HD
ATOM     11  H   LIG    1        4.154   1.979  -1.885  0.00  0.00    +0.300 HD
BRANCH   8  12
ATOM     12  N   LIG    1        3.906  -0.201   0.399  0.00  0.00    -0.255 N 
ATOM     13  H   LIG    1        4.842  -0.273   0.641  0.00  0.00    +0.288 HD
ATOM     14  H   LIG    1        3.238  -0.709   0.885  0.00  0.00    +0.288 HD
ENDBRANCH   8  12
ENDBRANCH   3   8
TORSDOF 2
