REMARK  Name = ZINC19364273
REMARK                            x       y       z     vdW  Elec       q    Type
REMARK                         _______ _______ _______ _____ _____    ______ ____
ROOT
ATOM      1  C   LIG    1        5.431  -3.176  -2.320  0.00  0.00    -0.039 C 
ATOM      2  C   LIG    1        6.235  -2.281  -1.375  0.00  0.00    +0.044 C 
ATOM      3  C   LIG    1        6.659  -1.016  -2.133  0.00  0.00    +0.001 C 
ATOM      4  C   LIG    1        7.494  -1.438  -3.349  0.00  0.00    -0.014 C 
ATOM      5  C   LIG    1        6.650  -2.361  -4.231  0.00  0.00    -0.078 C 
ATOM      6  C   LIG    1        5.395  -0.307  -2.637  0.00  0.00    -0.014 C 
ATOM      7  C   LIG    1        4.619  -1.263  -3.537  0.00  0.00    -0.078 C 
ATOM      8  N   LIG    1        5.323  -2.544  -3.637  0.00  0.00    +0.383 N 
ATOM      9  H   LIG    1        4.786  -3.149  -4.239  0.00  0.00    -0.081 HD
ENDROOT
BRANCH   2  10
ATOM     10  N   LIG    1        5.403  -1.911  -0.222  0.00  0.00    -0.310 NA
ATOM     11  H   LIG    1        5.671  -1.009   0.143  0.00  0.00    +0.122 HD
BRANCH  10  12
ATOM     12  C   LIG    1        5.466  -2.941   0.824  0.00  0.00    +0.117 C 
BRANCH  12  13
ATOM     13  C   LIG    1        6.483  -2.542   1.862  0.00  0.00    -0.020 A 
ATOM     14  C   LIG    1        7.466  -3.435   2.246  0.00  0.00    +0.006 A 
ATOM     15  C   LIG    1        8.399  -3.070   3.198  0.00  0.00    +0.000 A 
ATOM     16  C   LIG    1        8.350  -1.810   3.766  0.00  0.00    +0.001 A 
ATOM     17  C   LIG    1        7.368  -0.916   3.382  0.00  0.00    +0.014 A 
ATOM     18  C   LIG    1        6.438  -1.280   2.426  0.00  0.00    +0.018 A 
ATOM     19  I   LIG    1        4.955   0.078   1.838  0.00  0.00    -0.043 I 
ENDBRANCH  12  13
ENDBRANCH  10  12
ENDBRANCH   2  10
BRANCH   1  20
ATOM     20  C   LIG    1        4.030  -3.393  -1.745  0.00  0.00    +0.037 C 
BRANCH  20  24
ATOM     21  C   LIG    1        1.214  -3.709  -4.941  0.00  0.00    +0.000 A 
ATOM     22  C   LIG    1        1.034  -2.760  -3.953  0.00  0.00    +0.000 A 
ATOM     23  C   LIG    1        1.945  -2.658  -2.918  0.00  0.00    +0.004 A 
ATOM     24  C   LIG    1        3.036  -3.505  -2.872  0.00  0.00    -0.041 A 
ATOM     25  C   LIG    1        3.216  -4.455  -3.860  0.00  0.00    +0.004 A 
ATOM     26  C   LIG    1        2.305  -4.556  -4.896  0.00  0.00    +0.000 A 
ENDBRANCH  20  24
BRANCH  20  27
ATOM     27  C   LIG    1        4.012  -4.662  -0.931  0.00  0.00    -0.041 A 
ATOM     28  C   LIG    1        3.321  -4.706   0.265  0.00  0.00    +0.004 A 
ATOM     29  C   LIG    1        3.304  -5.869   1.011  0.00  0.00    +0.000 A 
ATOM     30  C   LIG    1        3.978  -6.989   0.561  0.00  0.00    +0.000 A 
ATOM     31  C   LIG    1        4.668  -6.945  -0.636  0.00  0.00    +0.000 A 
ATOM     32  C   LIG    1        4.681  -5.783  -1.384  0.00  0.00    +0.004 A 
ENDBRANCH  20  27
ENDBRANCH   1  20
TORSDOF 6
