REMARK  Name = ZINC15987659
REMARK                            x       y       z     vdW  Elec       q    Type
REMARK                         _______ _______ _______ _____ _____    ______ ____
ROOT
ATOM      1  C   LIG    1       -0.754  -4.688  -2.839  0.00  0.00    +0.196 C 
ENDROOT
BRANCH   1   2
ATOM      2  N   LIG    1       -0.692  -6.152  -2.828  0.00  0.00    -0.274 N 
ATOM      3  H   LIG    1       -0.788  -6.635  -1.993  0.00  0.00    +0.258 HD
BRANCH   2   4
ATOM      4  C   LIG    1       -0.500  -6.827  -3.980  0.00  0.00    +0.411 C 
ATOM      5  N   LIG    1       -0.338  -8.164  -3.958  0.00  0.00    +0.094 NA
BRANCH   4   6
ATOM      6  N   LIG    1       -0.471  -6.164  -5.154  0.00  0.00    -0.287 N 
ATOM      7  H   LIG    1       -0.334  -6.649  -5.982  0.00  0.00    +0.255 HD
ATOM      8  H   LIG    1       -0.588  -5.201  -5.170  0.00  0.00    +0.255 HD
ENDBRANCH   4   6
BRANCH   5   9
ATOM      9  N   LIG    1       -0.461  -8.810  -2.848  0.00  0.00    +0.176 N 
ATOM     10  O   LIG    1       -1.615  -9.360  -2.531  0.00  0.00    -0.095 OA
BRANCH   9  11
ATOM     11  O   LIG    1        0.567  -8.921  -2.033  0.00  0.00    -0.370 OA
ATOM     12  H   LIG    1        1.388  -8.530  -2.258  0.00  0.00    +0.332 HD
ENDBRANCH   9  11
ENDBRANCH   5   9
ENDBRANCH   2   4
ENDBRANCH   1   2
BRANCH   1  13
ATOM     13  C   LIG    1       -0.977  -4.177  -1.414  0.00  0.00    +0.036 C 
BRANCH  13  14
ATOM     14  C   LIG    1       -1.043  -2.648  -1.425  0.00  0.00    -0.002 C 
BRANCH  14  15
ATOM     15  C   LIG    1       -1.265  -2.137  -0.001  0.00  0.00    +0.036 C 
BRANCH  15  16
ATOM     16  N   LIG    1       -2.582  -2.579   0.478  0.00  0.00    +0.387 N 
ATOM     17  H   LIG    1       -3.300  -2.211  -0.127  0.00  0.00    -0.089 HD
ATOM     18  H   LIG    1       -2.729  -2.241   1.418  0.00  0.00    -0.089 HD
ATOM     19  H   LIG    1       -2.621  -3.587   0.473  0.00  0.00    -0.089 HD
ENDBRANCH  15  16
BRANCH  15  20
ATOM     20  C   LIG    1       -1.207  -0.631   0.007  0.00  0.00    +0.292 C 
ATOM     21  O   LIG    1       -2.230   0.013   0.017  0.00  0.00    -0.253 OA
BRANCH  20  23
ATOM     22  C   LIG    1       -0.040   1.424   0.012  0.00  0.00    +0.280 C 
ATOM     23  O   LIG    1       -0.020  -0.005   0.004  0.00  0.00    -0.469 OA
ENDBRANCH  20  23
ENDBRANCH  15  20
ENDBRANCH  14  15
ENDBRANCH  13  14
ENDBRANCH   1  13
TORSDOF 11
