REMARK  Name = ZINC29212975
REMARK                            x       y       z     vdW  Elec       q    Type
REMARK                         _______ _______ _______ _____ _____    ______ ____
ROOT
ATOM      1  C   LIG    1       -1.513  -0.262  -0.761  0.00  0.00    +0.044 C 
ATOM      2  C   LIG    1       -0.178   0.402  -0.535  0.00  0.00    -0.046 A 
ATOM      3  C   LIG    1       -0.056   1.770  -0.675  0.00  0.00    +0.026 A 
ATOM      4  C   LIG    1        1.174   2.381  -0.466  0.00  0.00    +0.029 A 
ATOM      5  C   LIG    1        2.277   1.612  -0.117  0.00  0.00    +0.023 A 
ATOM      6  C   LIG    1        2.148   0.244   0.022  0.00  0.00    +0.005 A 
ATOM      7  C   LIG    1        0.921  -0.361  -0.187  0.00  0.00    -0.046 A 
ENDROOT
BRANCH   4   8
ATOM      8  N   LIG    1        1.302   3.764  -0.607  0.00  0.00    -0.336 N 
ATOM      9  C   LIG    1        2.620   4.393  -0.501  0.00  0.00    +0.129 C 
ATOM     10  C   LIG    1        0.116   4.587  -0.861  0.00  0.00    +0.129 C 
ENDBRANCH   4   8
BRANCH   7  11
ATOM     11  C   LIG    1        0.784  -1.853  -0.034  0.00  0.00    +0.019 C 
BRANCH  11  12
ATOM     12  C   LIG    1        0.262  -2.177   1.367  0.00  0.00    -0.074 C 
ATOM     13  C   LIG    1        0.001  -3.681   1.479  0.00  0.00    -0.014 C 
BRANCH  12  14
ATOM     14  N   LIG    1        1.262  -1.778   2.366  0.00  0.00    +0.380 N 
ATOM     15  H   LIG    1        2.199  -2.327   2.188  0.00  0.00    -0.090 HD
ATOM     16  H   LIG    1        1.450  -0.697   2.286  0.00  0.00    -0.090 HD
ATOM     17  H   LIG    1        0.887  -2.011   3.374  0.00  0.00    -0.090 HD
ENDBRANCH  12  14
ENDBRANCH  11  12
ENDBRANCH   7  11
TORSDOF 4
