REMARK  Name = ZINC13819629
REMARK                            x       y       z     vdW  Elec       q    Type
REMARK                         _______ _______ _______ _____ _____    ______ ____
ROOT
ATOM      1  O   LIG    1        0.019   5.428   0.032  0.00  0.00    -0.492 OA
ENDROOT
BRANCH   1   2
ATOM      2  C   LIG    1       -0.020   4.069   0.025  0.00  0.00    +0.139 A 
ATOM      3  C   LIG    1       -1.240   3.399   0.033  0.00  0.00    +0.051 A 
ATOM      4  C   LIG    1       -1.230   2.014   0.019  0.00  0.00    +0.063 A 
ATOM      5  C   LIG    1       -0.016   1.347   0.009  0.00  0.00    +0.213 A 
ATOM      6  F   LIG    1        0.002  -0.004   0.002  0.00  0.00    -0.184 F 
ATOM      7  N   LIG    1        1.123   2.014   0.002  0.00  0.00    -0.224 NA
ATOM      8  C   LIG    1        1.154   3.333   0.009  0.00  0.00    +0.159 A 
ENDBRANCH   1   2
BRANCH   1   9
ATOM      9  C   LIG    1        1.311   6.040   0.024  0.00  0.00    +0.213 C 
BRANCH   9  11
ATOM     10  C   LIG    1        0.268   7.992  -1.136  0.00  0.00    -0.010 C 
ATOM     11  C   LIG    1        1.154   7.562   0.034  0.00  0.00    -0.034 C 
BRANCH  11  12
ATOM     12  N   LIG    1        0.508   7.970   1.300  0.00  0.00    +0.380 N 
ATOM     13  H   LIG    1       -0.425   7.544   1.350  0.00  0.00    -0.082 HD
ATOM     14  C   LIG    1        0.367   9.440   1.344  0.00  0.00    -0.096 C 
ATOM     15  C   LIG    1        1.310   7.504   2.450  0.00  0.00    -0.096 C 
ENDBRANCH  11  12
ENDBRANCH   9  11
ENDBRANCH   1   9
TORSDOF 4
