REMARK  Name = ZINC35052489
REMARK                            x       y       z     vdW  Elec       q    Type
REMARK                         _______ _______ _______ _____ _____    ______ ____
ROOT
ATOM      1  C   LIG    1       -0.268  -0.858  -0.901  0.00  0.00    -0.021 C 
ATOM      2  C   LIG    1       -0.392  -0.353  -2.128  0.00  0.00    -0.021 C 
ATOM      3  C   LIG    1       -0.372  -1.472  -3.157  0.00  0.00    +0.032 C 
ATOM      4  C   LIG    1       -0.807  -2.695  -2.324  0.00  0.00    +0.007 C 
ATOM      5  C   LIG    1       -0.401  -4.007  -2.939  0.00  0.00    +0.001 C 
ATOM      6  C   LIG    1       -0.887  -4.060  -4.395  0.00  0.00    +0.031 C 
ATOM      7  C   LIG    1       -0.405  -5.321  -5.048  0.00  0.00    -0.027 C 
ATOM      8  C   LIG    1        0.611  -6.003  -4.626  0.00  0.00    -0.065 C 
ATOM      9  C   LIG    1        1.452  -5.610  -3.476  0.00  0.00    -0.008 C 
ATOM     10  C   LIG    1        2.919  -5.612  -3.911  0.00  0.00    +0.016 C 
ATOM     11  C   LIG    1        1.290  -6.660  -2.380  0.00  0.00    +0.014 C 
ATOM     12  C   LIG    1        0.959  -8.017  -3.002  0.00  0.00    +0.032 C 
ATOM     13  C   LIG    1        1.662  -8.193  -4.346  0.00  0.00    +0.119 C 
ATOM     14  C   LIG    1        1.007  -7.287  -5.338  0.00  0.00    +0.062 C 
ATOM     15  C   LIG    1        1.109  -4.219  -2.959  0.00  0.00    +0.003 C 
ATOM     16  C   LIG    1        1.628  -4.089  -1.521  0.00  0.00    +0.005 C 
ATOM     17  C   LIG    1        1.373  -2.667  -1.036  0.00  0.00    +0.012 C 
ATOM     18  C   LIG    1       -0.129  -2.377  -0.977  0.00  0.00    -0.002 C 
ATOM     19  C   LIG    1       -0.816  -3.083   0.194  0.00  0.00    +0.016 C 
ENDROOT
BRANCH   1  21
ATOM     20  C   LIG    1       -0.405   1.429   0.280  0.00  0.00    +0.069 C 
ATOM     21  C   LIG    1       -0.259  -0.070   0.339  0.00  0.00    +0.080 C 
ATOM     22  N   LIG    1       -0.126  -0.664   1.482  0.00  0.00    -0.092 NA
BRANCH  22  23
ATOM     23  O   LIG    1       -0.118   0.096   2.677  0.00  0.00    -0.409 OA
ATOM     24  H   LIG    1       -0.014  -0.435   3.479  0.00  0.00    +0.328 HD
ENDBRANCH  22  23
ENDBRANCH   1  21
BRANCH  13  25
ATOM     25  O   LIG    1        3.044  -7.857  -4.208  0.00  0.00    -0.391 OA
ATOM     26  H   LIG    1        3.573  -8.036  -4.998  0.00  0.00    +0.210 HD
ENDBRANCH  13  25
TORSDOF 3
