REMARK  Name = ZINC22933029
REMARK                            x       y       z     vdW  Elec       q    Type
REMARK                         _______ _______ _______ _____ _____    ______ ____
ROOT
ATOM      1  C   LIG    1       -2.032  -3.723   0.818  0.00  0.00    +0.044 C 
ATOM      2  C   LIG    1       -1.962  -5.204   0.433  0.00  0.00    +0.015 C 
ATOM      3  C   LIG    1       -2.765  -5.426  -0.852  0.00  0.00    -0.018 C 
ATOM      4  C   LIG    1       -4.203  -4.950  -0.636  0.00  0.00    -0.082 C 
ATOM      5  N   LIG    1       -4.205  -3.522  -0.297  0.00  0.00    +0.385 N 
ATOM      6  H   LIG    1       -5.157  -3.200  -0.208  0.00  0.00    -0.085 HD
ATOM      7  H   LIG    1       -3.743  -3.003  -1.029  0.00  0.00    -0.085 HD
ATOM      8  C   LIG    1       -3.497  -3.310   0.972  0.00  0.00    -0.024 C 
ENDROOT
BRANCH   8   9
ATOM      9  C   LIG    1       -3.571  -1.853   1.352  0.00  0.00    -0.060 A 
ATOM     10  C   LIG    1       -3.439  -0.878   0.380  0.00  0.00    +0.002 A 
ATOM     11  C   LIG    1       -3.506   0.458   0.728  0.00  0.00    +0.000 A 
ATOM     12  C   LIG    1       -3.705   0.819   2.047  0.00  0.00    +0.000 A 
ATOM     13  C   LIG    1       -3.838  -0.156   3.019  0.00  0.00    +0.000 A 
ATOM     14  C   LIG    1       -3.775  -1.492   2.670  0.00  0.00    +0.002 A 
ENDBRANCH   8   9
BRANCH   1  15
ATOM     15  N   LIG    1       -1.402  -2.913  -0.233  0.00  0.00    -0.310 NA
ATOM     16  H   LIG    1       -1.815  -1.993  -0.277  0.00  0.00    +0.122 HD
BRANCH  15  17
ATOM     17  C   LIG    1        0.051  -2.828  -0.033  0.00  0.00    +0.120 C 
BRANCH  17  23
ATOM     18  C   LIG    1        0.606  -0.607  -1.056  0.00  0.00    +0.124 A 
ATOM     19  C   LIG    1        1.173   0.161  -2.063  0.00  0.00    +0.046 A 
ATOM     20  C   LIG    1        1.786  -0.455  -3.136  0.00  0.00    +0.004 A 
ATOM     21  C   LIG    1        1.836  -1.835  -3.208  0.00  0.00    +0.001 A 
ATOM     22  C   LIG    1        1.271  -2.602  -2.207  0.00  0.00    +0.008 A 
ATOM     23  C   LIG    1        0.661  -1.991  -1.128  0.00  0.00    +0.008 A 
BRANCH  18  25
ATOM     24  C   LIG    1       -0.017   1.425   0.010  0.00  0.00    +0.277 C 
ATOM     25  O   LIG    1        0.002  -0.004   0.002  0.00  0.00    -0.495 OA
ENDBRANCH  18  25
ENDBRANCH  17  23
ENDBRANCH  15  17
ENDBRANCH   1  15
TORSDOF 5
