REMARK  Name = ZINC16263494
REMARK                            x       y       z     vdW  Elec       q    Type
REMARK                         _______ _______ _______ _____ _____    ______ ____
ROOT
ATOM      1  N   LIG    1        4.529   5.639  -1.282  0.00  0.00    -0.325 N 
ATOM      2  C   LIG    1        3.221   6.304  -1.195  0.00  0.00    +0.124 C 
ATOM      3  C   LIG    1        2.450   5.751   0.009  0.00  0.00    +0.127 C 
ATOM      4  N   LIG    1        2.397   4.285  -0.104  0.00  0.00    -0.294 N 
ATOM      5  C   LIG    1        1.226   3.626  -0.001  0.00  0.00    +0.249 C 
ATOM      6  O   LIG    1        0.184   4.247   0.082  0.00  0.00    -0.270 OA
ATOM      7  C   LIG    1        3.656   3.558  -0.324  0.00  0.00    +0.127 C 
ATOM      8  C   LIG    1        4.379   4.198  -1.521  0.00  0.00    +0.124 C 
ENDROOT
BRANCH   1  12
ATOM      9  C   LIG    1        6.896   7.395  -4.217  0.00  0.00    +0.020 A 
ATOM     10  C   LIG    1        5.663   6.822  -4.553  0.00  0.00    +0.013 A 
ATOM     11  C   LIG    1        4.890   6.246  -3.585  0.00  0.00    +0.027 A 
ATOM     12  C   LIG    1        5.322   6.227  -2.262  0.00  0.00    +0.065 A 
ATOM     13  C   LIG    1        6.545   6.800  -1.915  0.00  0.00    +0.145 A 
ATOM     14  F   LIG    1        6.959   6.785  -0.629  0.00  0.00    -0.204 F 
ATOM     15  C   LIG    1        7.333   7.377  -2.886  0.00  0.00    +0.051 A 
BRANCH   9  17
ATOM     16  C   LIG    1        8.992   8.740  -4.877  0.00  0.00    +0.091 C 
ATOM     17  C   LIG    1        7.727   8.013  -5.256  0.00  0.00    +0.160 C 
ATOM     18  O   LIG    1        7.396   7.940  -6.421  0.00  0.00    -0.292 OA
ENDBRANCH   9  17
ENDBRANCH   1  12
BRANCH   5  19
ATOM     19  C   LIG    1        1.209   2.152   0.010  0.00  0.00    +0.060 A 
ATOM     20  C   LIG    1        2.078   1.445   0.846  0.00  0.00    +0.047 A 
ATOM     21  C   LIG    1        2.058   0.068   0.852  0.00  0.00    +0.122 A 
ATOM     22  C   LIG    1        1.179  -0.623   0.032  0.00  0.00    +0.034 A 
ATOM     23  C   LIG    1        0.315   0.060  -0.799  0.00  0.00    +0.026 A 
ATOM     24  C   LIG    1        0.321   1.449  -0.819  0.00  0.00    +0.039 A 
BRANCH  24  25
ATOM     25  N   LIG    1       -0.544   2.139  -1.658  0.00  0.00    -0.346 N 
ATOM     26  H   LIG    1       -0.591   3.107  -1.616  0.00  0.00    +0.146 HD
ATOM     27  C   LIG    1       -1.384   1.405  -2.608  0.00  0.00    +0.125 C 
ENDBRANCH  24  25
BRANCH  21  28
ATOM     28  N   LIG    1        2.979  -0.679   1.738  0.00  0.00    +0.006 N 
ATOM     29  O   LIG    1        2.964  -1.897   1.745  0.00  0.00    -0.130 OA
BRANCH  28  30
ATOM     30  O   LIG    1        3.753  -0.075   2.459  0.00  0.00    -0.396 OA
ATOM     31  H   LIG    1        3.764   0.862   2.454  0.00  0.00    +0.329 HD
ENDBRANCH  28  30
ENDBRANCH  21  28
ENDBRANCH   5  19
TORSDOF 6
