REMARK  Name = ZINC29134554
REMARK                            x       y       z     vdW  Elec       q    Type
REMARK                         _______ _______ _______ _____ _____    ______ ____
ROOT
ATOM      1  C   LIG    1       -0.017   1.428   0.010  0.00  0.00    +0.025 A 
ATOM      2  C   LIG    1       -1.233   2.112   0.031  0.00  0.00    +0.019 A 
ATOM      3  C   LIG    1       -1.245   3.491   0.039  0.00  0.00    +0.030 A 
ATOM      4  C   LIG    1       -0.055   4.197   0.026  0.00  0.00    +0.105 A 
ATOM      5  C   LIG    1        1.154   3.524   0.005  0.00  0.00    +0.030 A 
ATOM      6  C   LIG    1        1.180   2.145   0.002  0.00  0.00    +0.019 A 
ENDROOT
BRANCH   4   7
ATOM      7  S   LIG    1       -0.079   5.958   0.036  0.00  0.00    +0.056 S 
ATOM      8  O   LIG    1       -1.337   6.350  -0.495  0.00  0.00    -0.153 OA
ATOM      9  O   LIG    1        1.153   6.384  -0.530  0.00  0.00    -0.153 OA
BRANCH   7  10
ATOM     10  N   LIG    1       -0.063   6.439   1.620  0.00  0.00    -0.204 NA
ATOM     11  H   LIG    1       -0.073   7.384   1.840  0.00  0.00    +0.144 HD
ATOM     12  H   LIG    1       -0.044   5.777   2.328  0.00  0.00    +0.144 HD
ENDBRANCH   7  10
ENDBRANCH   4   7
BRANCH   1  14
ATOM     13  C   LIG    1        0.018  -1.178  -0.004  0.00  0.00    +0.009 C 
ATOM     14  C   LIG    1        0.002  -0.004   0.002  0.00  0.00    -0.070 C 
ENDBRANCH   1  14
TORSDOF 3
