REMARK  Name = ZINC35143441
REMARK                            x       y       z     vdW  Elec       q    Type
REMARK                         _______ _______ _______ _____ _____    ______ ____
ROOT
ATOM      1  C   LIG    1       -0.018   1.503   0.010  0.00  0.00    +0.044 C 
ATOM      2  C   LIG    1        0.002  -0.004   0.002  0.00  0.00    -0.050 A 
ATOM      3  C   LIG    1        0.006  -0.689  -1.199  0.00  0.00    +0.003 A 
ATOM      4  C   LIG    1        0.025  -2.071  -1.207  0.00  0.00    +0.001 A 
ATOM      5  C   LIG    1        0.040  -2.768  -0.013  0.00  0.00    +0.005 A 
ATOM      6  C   LIG    1        0.037  -2.084   1.188  0.00  0.00    -0.027 A 
ATOM      7  C   LIG    1        0.023  -0.702   1.195  0.00  0.00    +0.008 A 
ENDROOT
BRANCH   6   8
ATOM      8  C   LIG    1        0.054  -2.845   2.489  0.00  0.00    +0.157 C 
BRANCH   8   9
ATOM      9  N   LIG    1        1.440  -3.073   2.903  0.00  0.00    -0.332 N 
ATOM     10  C   LIG    1        2.220  -4.148   2.572  0.00  0.00    +0.107 A 
ATOM     11  C   LIG    1        3.417  -3.957   3.160  0.00  0.00    +0.130 A 
ATOM     12  N   LIG    1        3.369  -2.797   3.832  0.00  0.00    -0.244 NA
ATOM     13  C   LIG    1        2.189  -2.260   3.678  0.00  0.00    +0.199 A 
ENDBRANCH   8   9
ENDBRANCH   6   8
TORSDOF 2
