REMARK  Name = ZINC28238018
REMARK                            x       y       z     vdW  Elec       q    Type
REMARK                         _______ _______ _______ _____ _____    ______ ____
ROOT
ATOM      1  N   LIG    1       -2.426   1.042   0.019  0.00  0.00    -0.333 N 
ATOM      2  C   LIG    1       -2.495   0.123  -1.126  0.00  0.00    +0.086 C 
ATOM      3  C   LIG    1       -3.787  -0.693  -1.044  0.00  0.00    -0.059 C 
ATOM      4  N   LIG    1       -4.940   0.218  -1.033  0.00  0.00    +0.385 N 
ATOM      5  H   LIG    1       -4.906   0.819  -1.954  0.00  0.00    -0.081 HD
ATOM      6  C   LIG    1       -4.870   1.137   0.112  0.00  0.00    -0.059 C 
ATOM      7  C   LIG    1       -3.579   1.954   0.030  0.00  0.00    +0.086 C 
ENDROOT
BRANCH   1  11
ATOM      8  C   LIG    1        1.156   3.166   0.008  0.00  0.00    +0.000 A 
ATOM      9  C   LIG    1        1.173   1.783   0.000  0.00  0.00    +0.002 A 
ATOM     10  C   LIG    1       -0.013   1.076   0.008  0.00  0.00    +0.023 A 
ATOM     11  C   LIG    1       -1.224   1.755   0.017  0.00  0.00    +0.030 A 
ATOM     12  C   LIG    1       -1.239   3.144   0.031  0.00  0.00    +0.023 A 
ATOM     13  C   LIG    1       -0.049   3.845   0.023  0.00  0.00    +0.002 A 
ENDBRANCH   1  11
BRANCH   4  14
ATOM     14  C   LIG    1       -6.203  -0.531  -1.031  0.00  0.00    -0.039 C 
ATOM     15  C   LIG    1       -6.311  -1.346   0.259  0.00  0.00    -0.013 C 
ATOM     16  C   LIG    1       -7.627  -2.126   0.261  0.00  0.00    -0.001 C 
ATOM     17  C   LIG    1       -7.662  -3.070  -0.943  0.00  0.00    +0.002 C 
ATOM     18  C   LIG    1       -7.554  -2.255  -2.233  0.00  0.00    +0.030 C 
ATOM     19  C   LIG    1       -6.238  -1.475  -2.235  0.00  0.00    +0.101 C 
BRANCH  19  20
ATOM     20  O   LIG    1       -6.138  -0.714  -3.440  0.00  0.00    -0.393 OA
ATOM     21  H   LIG    1       -6.146  -1.223  -4.415  0.00  0.00    +0.210 HD
ENDBRANCH  19  20
ENDBRANCH   4  14
TORSDOF 3
