REMARK  Name = ZINC19360857
REMARK                            x       y       z     vdW  Elec       q    Type
REMARK                         _______ _______ _______ _____ _____    ______ ____
ROOT
ATOM      1  C   LIG    1       -0.016   1.091   2.429  0.00  0.00    +0.044 C 
ATOM      2  C   LIG    1       -0.510  -0.314   2.784  0.00  0.00    +0.015 C 
ATOM      3  C   LIG    1        0.163  -0.770   4.082  0.00  0.00    -0.018 C 
ATOM      4  C   LIG    1       -0.149   0.235   5.193  0.00  0.00    -0.082 C 
ATOM      5  N   LIG    1        0.344   1.563   4.806  0.00  0.00    +0.385 N 
ATOM      6  H   LIG    1        1.427   1.511   4.616  0.00  0.00    -0.085 HD
ATOM      7  H   LIG    1        0.148   2.278   5.618  0.00  0.00    -0.085 HD
ATOM      8  C   LIG    1       -0.322   2.042   3.588  0.00  0.00    -0.024 C 
ENDROOT
BRANCH   8   9
ATOM      9  C   LIG    1        0.180   3.422   3.251  0.00  0.00    -0.060 A 
ATOM     10  C   LIG    1        1.520   3.728   3.407  0.00  0.00    +0.002 A 
ATOM     11  C   LIG    1        1.981   4.992   3.094  0.00  0.00    +0.000 A 
ATOM     12  C   LIG    1        1.102   5.955   2.634  0.00  0.00    +0.000 A 
ATOM     13  C   LIG    1       -0.238   5.651   2.483  0.00  0.00    +0.000 A 
ATOM     14  C   LIG    1       -0.699   4.385   2.792  0.00  0.00    +0.002 A 
ENDBRANCH   8   9
BRANCH   1  15
ATOM     15  N   LIG    1       -0.700   1.560   1.217  0.00  0.00    -0.310 NA
ATOM     16  H   LIG    1       -0.715   2.659   1.223  0.00  0.00    +0.122 HD
BRANCH  15  17
ATOM     17  C   LIG    1       -0.013   1.086   0.008  0.00  0.00    +0.120 C 
BRANCH  17  23
ATOM     18  C   LIG    1       -0.551   2.887  -1.651  0.00  0.00    +0.124 A 
ATOM     19  C   LIG    1       -1.220   3.343  -2.778  0.00  0.00    +0.046 A 
ATOM     20  C   LIG    1       -2.082   2.502  -3.455  0.00  0.00    +0.004 A 
ATOM     21  C   LIG    1       -2.274   1.205  -3.013  0.00  0.00    +0.001 A 
ATOM     22  C   LIG    1       -1.604   0.748  -1.894  0.00  0.00    +0.008 A 
ATOM     23  C   LIG    1       -0.742   1.585  -1.213  0.00  0.00    +0.008 A 
BRANCH  18  25
ATOM     24  C   LIG    1        0.440   5.042  -1.488  0.00  0.00    +0.277 C 
ATOM     25  O   LIG    1        0.293   3.715  -0.980  0.00  0.00    -0.495 OA
ENDBRANCH  18  25
ENDBRANCH  17  23
ENDBRANCH  15  17
ENDBRANCH   1  15
TORSDOF 5
