REMARK  Name = ZINC40955242
REMARK                            x       y       z     vdW  Elec       q    Type
REMARK                         _______ _______ _______ _____ _____    ______ ____
ROOT
ATOM      1  C   LIG    1       -0.017   1.385   0.010  0.00  0.00    +0.022 A 
ATOM      2  C   LIG    1        1.159   2.103   0.002  0.00  0.00    +0.028 A 
ATOM      3  C   LIG    1        2.381   1.437  -0.013  0.00  0.00    +0.049 A 
ATOM      4  C   LIG    1        2.403   0.031  -0.021  0.00  0.00    +0.003 A 
ATOM      5  C   LIG    1        3.688  -0.671  -0.038  0.00  0.00    +0.061 A 
ATOM      6  C   LIG    1        4.832   0.062  -0.045  0.00  0.00    +0.182 A 
ATOM      7  C   LIG    1        4.753   1.522  -0.036  0.00  0.00    +0.291 A 
ATOM      8  O   LIG    1        5.779   2.179  -0.044  0.00  0.00    -0.264 OA
ATOM      9  C   LIG    1        1.199  -0.684  -0.013  0.00  0.00    +0.030 A 
ATOM     10  N   LIG    1        3.563   2.149  -0.022  0.00  0.00    -0.319 N 
ATOM     11  H   LIG    1        3.536   3.119  -0.017  0.00  0.00    +0.169 HD
ATOM     12  C   LIG    1        0.002  -0.004   0.002  0.00  0.00    +0.042 A 
ATOM     13 CL   LIG    1       -1.492  -0.888   0.011  0.00  0.00    -0.084 Cl
ENDROOT
BRANCH   6  14
ATOM     14  O   LIG    1        6.042  -0.557  -0.060  0.00  0.00    -0.502 OA
ATOM     15  H   LIG    1        6.794   0.050  -0.064  0.00  0.00    +0.292 HD
ENDBRANCH   6  14
TORSDOF 1
