REMARK  Name = ZINC40896792
REMARK                            x       y       z     vdW  Elec       q    Type
REMARK                         _______ _______ _______ _____ _____    ______ ____
ROOT
ATOM      1  N   LIG    1        3.620  -0.649  -0.036  0.00  0.00    -0.300 N 
ATOM      2  C   LIG    1        4.964  -0.057  -0.040  0.00  0.00    +0.214 C 
ATOM      3  N   LIG    1        5.939  -1.147  -0.057  0.00  0.00    -0.298 N 
ATOM      4  H   LIG    1        6.902  -1.030  -0.063  0.00  0.00    +0.150 HD
ATOM      5  C   LIG    1        5.310  -2.334  -0.064  0.00  0.00    +0.238 C 
ATOM      6  O   LIG    1        5.853  -3.419  -0.078  0.00  0.00    -0.273 OA
ATOM      7  C   LIG    1        3.822  -2.103  -0.046  0.00  0.00    +0.109 C 
ATOM      8  C   LIG    1        3.182  -2.711  -1.294  0.00  0.00    +0.017 C 
ATOM      9  C   LIG    1        3.348  -4.233  -1.255  0.00  0.00    -0.076 C 
ATOM     10  N   LIG    1        2.702  -4.767  -0.050  0.00  0.00    +0.381 N 
ATOM     11  H   LIG    1        1.732  -4.491  -0.040  0.00  0.00    -0.082 HD
ATOM     12  C   LIG    1        3.370  -4.246   1.148  0.00  0.00    -0.076 C 
ATOM     13  C   LIG    1        3.205  -2.725   1.207  0.00  0.00    +0.017 C 
ENDROOT
BRANCH   1  17
ATOM     14  C   LIG    1       -0.017   1.379   0.010  0.00  0.00    +0.000 A 
ATOM     15  C   LIG    1        1.169   2.089   0.002  0.00  0.00    +0.002 A 
ATOM     16  C   LIG    1        2.377   1.420  -0.013  0.00  0.00    +0.023 A 
ATOM     17  C   LIG    1        2.400   0.031  -0.021  0.00  0.00    +0.032 A 
ATOM     18  C   LIG    1        1.206  -0.680  -0.013  0.00  0.00    +0.023 A 
ATOM     19  C   LIG    1        0.002  -0.004   0.002  0.00  0.00    +0.002 A 
ENDBRANCH   1  17
BRANCH  10  20
ATOM     20  C   LIG    1        2.791  -6.234  -0.059  0.00  0.00    -0.060 C 
BRANCH  20  21
ATOM     21  C   LIG    1        2.011  -6.799   1.130  0.00  0.00    +0.086 C 
BRANCH  21  22
ATOM     22  N   LIG    1        2.099  -8.261   1.121  0.00  0.00    -0.313 N 
ATOM     23  H   LIG    1        2.600  -8.712   0.424  0.00  0.00    +0.149 HD
ATOM     24  C   LIG    1        1.484  -8.979   2.082  0.00  0.00    +0.244 C 
ATOM     25  O   LIG    1        0.856  -8.413   2.955  0.00  0.00    -0.270 OA
BRANCH  24  26
ATOM     26  C   LIG    1        1.573 -10.454   2.073  0.00  0.00    +0.037 A 
ATOM     27  C   LIG    1        2.306 -11.103   1.063  0.00  0.00    +0.013 A 
ATOM     28  C   LIG    1        2.402 -12.456   1.033  0.00  0.00    +0.009 A 
ATOM     29  C   LIG    1        1.764 -13.229   2.021  0.00  0.00    -0.018 A 
ATOM     30  C   LIG    1        1.850 -14.631   2.011  0.00  0.00    +0.008 A 
ATOM     31  C   LIG    1        1.222 -15.353   2.980  0.00  0.00    +0.001 A 
ATOM     32  C   LIG    1        0.493 -14.722   3.986  0.00  0.00    +0.001 A 
ATOM     33  C   LIG    1        0.387 -13.366   4.028  0.00  0.00    +0.008 A 
ATOM     34  C   LIG    1        1.022 -12.587   3.044  0.00  0.00    -0.017 A 
ATOM     35  C   LIG    1        0.939 -11.187   3.062  0.00  0.00    +0.021 A 
ENDBRANCH  24  26
ENDBRANCH  21  22
ENDBRANCH  20  21
ENDBRANCH  10  20
TORSDOF 5
