REMARK  Name = ZINC66252202
REMARK                            x       y       z     vdW  Elec       q    Type
REMARK                         _______ _______ _______ _____ _____    ______ ____
ROOT
ATOM      1  C   LIG    1       -0.017   1.392  -0.006  0.00  0.00    +0.024 A 
ATOM      2  C   LIG    1        1.148   2.104  -0.013  0.00  0.00    +0.017 A 
ATOM      3  C   LIG    1        2.370   1.431  -0.013  0.00  0.00    +0.065 A 
ATOM      4  C   LIG    1        2.402   0.016  -0.006  0.00  0.00    +0.080 A 
ATOM      5  N   LIG    1        3.604  -0.615  -0.007  0.00  0.00    -0.237 NA
ATOM      6  C   LIG    1        4.720   0.049  -0.014  0.00  0.00    +0.199 A 
ATOM      7  N   LIG    1        4.782   1.406  -0.022  0.00  0.00    -0.313 N 
ATOM      8  H   LIG    1        5.646   1.847  -0.028  0.00  0.00    +0.170 HD
ATOM      9  C   LIG    1        1.204  -0.694   0.002  0.00  0.00    +0.051 A 
ATOM     10  C   LIG    1        3.651   2.148  -0.022  0.00  0.00    +0.259 A 
ATOM     11  O   LIG    1        3.693   3.365  -0.028  0.00  0.00    -0.267 OA
ATOM     12  C   LIG    1        0.002  -0.004   0.002  0.00  0.00    +0.032 A 
ENDROOT
BRANCH  12  13
ATOM     13  N   LIG    1       -1.198  -0.710   0.010  0.00  0.00    -0.325 N 
ATOM     14  C   LIG    1       -2.487  -0.011   0.131  0.00  0.00    +0.133 C 
ATOM     15  C   LIG    1       -3.411  -0.505  -0.988  0.00  0.00    +0.178 C 
ATOM     16  O   LIG    1       -3.459  -1.934  -0.961  0.00  0.00    -0.377 OA
ATOM     17  C   LIG    1       -2.201  -2.566  -1.209  0.00  0.00    +0.178 C 
ATOM     18  C   LIG    1       -1.214  -2.176  -0.107  0.00  0.00    +0.133 C 
ENDBRANCH  12  13
TORSDOF 1
