REMARK  Name = ZINC40379392
REMARK                            x       y       z     vdW  Elec       q    Type
REMARK                         _______ _______ _______ _____ _____    ______ ____
ROOT
ATOM      1  C   UNK    1       -0.017   1.379   0.010  0.00  0.00    +0.047 A 
ATOM      2  C   UNK    1       -1.239   2.036   0.031  0.00  0.00    +0.070 A 
ATOM      3  N   UNK    1       -1.642   3.351   0.043  0.00  0.00    -0.344 N 
ATOM      4  H   UNK    1       -1.065   4.131   0.040  0.00  0.00    +0.167 HD
ATOM      5  C   UNK    1       -3.002   3.354   0.063  0.00  0.00    +0.197 A 
ATOM      6  N   UNK    1       -3.453   2.131   0.049  0.00  0.00    -0.234 NA
ATOM      7  C   UNK    1       -2.421   1.266   0.033  0.00  0.00    +0.119 A 
ATOM      8  C   UNK    1       -2.310  -0.135   0.024  0.00  0.00    +0.153 A 
ATOM      9  N   UNK    1       -1.112  -0.706   0.009  0.00  0.00    -0.248 NA
ATOM     10  C   UNK    1        0.002  -0.004   0.002  0.00  0.00    +0.114 A 
ENDROOT
BRANCH   8  11
ATOM     11  C   UNK    1       -3.527  -0.973   0.030  0.00  0.00    +0.265 C 
ATOM     12  N   UNK    1       -3.421  -2.316   0.021  0.00  0.00    -0.300 N 
ATOM     13  H   UNK    1       -2.545  -2.734   0.010  0.00  0.00    +0.150 HD
ATOM     14  O   UNK    1       -4.625  -0.450   0.044  0.00  0.00    -0.268 OA
BRANCH  12  15
ATOM     15  C   UNK    1       -4.628  -3.147   0.028  0.00  0.00    +0.225 C 
BRANCH  15  16
ATOM     16  C   UNK    1       -4.237  -4.602   0.015  0.00  0.00    +0.322 C 
ATOM     17  O   UNK    1       -3.059  -4.916   0.002  0.00  0.00    -0.249 OA
BRANCH  16  18
ATOM     18  O   UNK    1       -5.098  -5.465   0.018  0.00  0.00    -0.480 OA
ATOM     19  H   UNK    1       -6.003  -5.223   0.029  0.00  0.00    +0.295 HD
ENDBRANCH  16  18
ENDBRANCH  15  16
ENDBRANCH  12  15
ENDBRANCH   8  11
TORSDOF 4
