REMARK  Name = ZINC17005092
REMARK                            x       y       z     vdW  Elec       q    Type
REMARK                         _______ _______ _______ _____ _____    ______ ____
ROOT
ATOM      1  C   LIG    1        0.153   1.152  -1.625  0.00  0.00    +0.001 A 
ATOM      2  C   LIG    1        1.340   1.870  -1.615  0.00  0.00    +0.001 A 
ATOM      3  C   LIG    1        2.509   1.283  -1.178  0.00  0.00    +0.009 A 
ATOM      4  C   LIG    1        2.499  -0.039  -0.744  0.00  0.00    -0.011 A 
ATOM      5  C   LIG    1        1.294  -0.774  -0.752  0.00  0.00    -0.017 A 
ATOM      6  C   LIG    1        1.579  -2.119  -0.250  0.00  0.00    +0.009 C 
ATOM      7  C   LIG    1        2.886  -2.226   0.057  0.00  0.00    +0.009 C 
ATOM      8  C   LIG    1        3.544  -0.946  -0.229  0.00  0.00    -0.017 C 
ATOM      9  C   LIG    1        4.877  -0.648  -0.050  0.00  0.00    +0.016 C 
ATOM     10  C   LIG    1        0.121  -0.158  -1.200  0.00  0.00    +0.008 A 
ENDROOT
BRANCH   9  11
ATOM     11  C   LIG    1        5.338   0.737  -0.158  0.00  0.00    -0.024 A 
ATOM     12  C   LIG    1        4.615   1.770   0.457  0.00  0.00    +0.010 A 
ATOM     13  C   LIG    1        5.050   3.060   0.353  0.00  0.00    +0.023 A 
ATOM     14  C   LIG    1        6.210   3.352  -0.362  0.00  0.00    +0.025 A 
ATOM     15  C   LIG    1        6.931   2.330  -0.975  0.00  0.00    +0.023 A 
ATOM     16  C   LIG    1        6.509   1.035  -0.872  0.00  0.00    +0.010 A 
BRANCH  14  17
ATOM     17  N   LIG    1        6.648   4.667  -0.464  0.00  0.00    -0.358 N 
ATOM     18  H   LIG    1        7.455   4.872  -0.962  0.00  0.00    +0.142 HD
ATOM     19  H   LIG    1        6.146   5.380  -0.038  0.00  0.00    +0.142 HD
ENDBRANCH  14  17
ENDBRANCH   9  11
TORSDOF 2
