REMARK  Name = ZINC13782584
REMARK                            x       y       z     vdW  Elec       q    Type
REMARK                         _______ _______ _______ _____ _____    ______ ____
ROOT
ATOM      1  N   LIG    1        3.585   2.125  -0.021  0.00  0.00    -0.298 N 
ATOM      2  C   LIG    1        4.649   1.927   0.808  0.00  0.00    +0.205 A 
ATOM      3  N   LIG    1        5.600   2.767   0.524  0.00  0.00    -0.235 NA
ATOM      4  C   LIG    1        5.214   3.563  -0.507  0.00  0.00    +0.089 A 
ATOM      5  C   LIG    1        5.831   4.609  -1.198  0.00  0.00    +0.031 A 
ATOM      6  C   LIG    1        5.170   5.228  -2.235  0.00  0.00    +0.022 A 
ATOM      7  C   LIG    1        3.889   4.827  -2.593  0.00  0.00    +0.043 A 
ATOM      8 CL   LIG    1        3.069   5.627  -3.897  0.00  0.00    -0.083 Cl
ATOM      9  C   LIG    1        3.264   3.798  -1.918  0.00  0.00    +0.048 A 
ATOM     10  C   LIG    1        3.919   3.159  -0.875  0.00  0.00    +0.075 A 
ENDROOT
BRANCH   1  14
ATOM     11  C   LIG    1        0.002  -0.004   0.002  0.00  0.00    +0.000 A 
ATOM     12  C   LIG    1       -0.017   1.379   0.010  0.00  0.00    +0.002 A 
ATOM     13  C   LIG    1        1.169   2.087   0.002  0.00  0.00    +0.026 A 
ATOM     14  C   LIG    1        2.381   1.409  -0.013  0.00  0.00    +0.048 A 
ATOM     15  C   LIG    1        2.396   0.021  -0.021  0.00  0.00    +0.026 A 
ATOM     16  C   LIG    1        1.207  -0.682  -0.013  0.00  0.00    +0.002 A 
ENDBRANCH   1  14
TORSDOF 1
