REMARK  Name = ZINC14974931
REMARK                            x       y       z     vdW  Elec       q    Type
REMARK                         _______ _______ _______ _____ _____    ______ ____
ROOT
ATOM      1  C   LIG    1       -2.997  -2.356  -0.101  0.00  0.00    +0.176 A 
ATOM      2  C   LIG    1       -3.395  -3.756   0.070  0.00  0.00    +0.061 A 
ATOM      3  C   LIG    1       -4.776  -3.765   0.171  0.00  0.00    +0.179 A 
ATOM      4  O   LIG    1       -5.204  -2.495   0.073  0.00  0.00    -0.353 OA
ATOM      5  N   LIG    1       -4.093  -1.637  -0.089  0.00  0.00    -0.072 NA
ENDROOT
BRANCH   2   6
ATOM      6  C   LIG    1       -2.496  -4.931   0.123  0.00  0.00    -0.012 A 
ATOM      7  C   LIG    1       -2.518  -5.877  -0.903  0.00  0.00    +0.009 A 
ATOM      8  C   LIG    1       -1.677  -6.969  -0.848  0.00  0.00    +0.005 A 
ATOM      9  C   LIG    1       -0.814  -7.129   0.222  0.00  0.00    -0.033 A 
ATOM     10  C   LIG    1       -0.788  -6.195   1.242  0.00  0.00    +0.005 A 
ATOM     11  C   LIG    1       -1.620  -5.095   1.196  0.00  0.00    +0.009 A 
BRANCH   9  12
ATOM     12  C   LIG    1        0.100  -8.325   0.276  0.00  0.00    +0.119 C 
BRANCH  12  13
ATOM     13  N   LIG    1        1.371  -8.000  -0.385  0.00  0.00    -0.294 NA
ATOM     14  C   LIG    1        1.175  -7.784  -1.826  0.00  0.00    +0.113 C 
ATOM     15  C   LIG    1        2.510  -7.390  -2.463  0.00  0.00    +0.175 C 
ATOM     16  O   LIG    1        3.479  -8.408  -2.196  0.00  0.00    -0.377 OA
ATOM     17  C   LIG    1        3.695  -8.645  -0.802  0.00  0.00    +0.175 C 
ATOM     18  C   LIG    1        2.372  -9.051  -0.148  0.00  0.00    +0.113 C 
ENDBRANCH  12  13
ENDBRANCH   9  12
ENDBRANCH   2   6
BRANCH   3  19
ATOM     19  C   LIG    1       -5.625  -4.956   0.352  0.00  0.00    +0.062 A 
ATOM     20  C   LIG    1       -5.301  -5.907   1.324  0.00  0.00    +0.022 A 
ATOM     21  C   LIG    1       -6.097  -7.018   1.491  0.00  0.00    -0.002 A 
ATOM     22  C   LIG    1       -7.224  -7.198   0.696  0.00  0.00    +0.124 A 
ATOM     23  C   LIG    1       -7.554  -6.261  -0.272  0.00  0.00    +0.091 A 
ATOM     24  C   LIG    1       -6.765  -5.137  -0.445  0.00  0.00    +0.131 A 
BRANCH  21  25
ATOM     25  C   LIG    1       -5.746  -8.043   2.539  0.00  0.00    +0.016 C 
ATOM     26  C   LIG    1       -5.739  -7.381   3.918  0.00  0.00    +0.012 C 
ATOM     27  C   LIG    1       -4.360  -8.620   2.243  0.00  0.00    +0.012 C 
ENDBRANCH  21  25
BRANCH  22  28
ATOM     28  O   LIG    1       -8.004  -8.297   0.867  0.00  0.00    -0.506 OA
ATOM     29  H   LIG    1       -8.717  -8.177   1.508  0.00  0.00    +0.292 HD
ENDBRANCH  22  28
BRANCH  24  30
ATOM     30  O   LIG    1       -7.090  -4.215  -1.387  0.00  0.00    -0.506 OA
ATOM     31  H   LIG    1       -6.762  -4.425  -2.273  0.00  0.00    +0.292 HD
ENDBRANCH  24  30
ENDBRANCH   3  19
BRANCH   1  34
ATOM     32  N   LIG    1       -1.393  -0.526  -0.395  0.00  0.00    -0.310 N 
ATOM     33  H   LIG    1       -2.140   0.093  -0.400  0.00  0.00    +0.149 HD
ATOM     34  C   LIG    1       -1.613  -1.848  -0.251  0.00  0.00    +0.266 C 
ATOM     35  O   LIG    1       -0.677  -2.623  -0.245  0.00  0.00    -0.268 OA
BRANCH  32  37
ATOM     36  C   LIG    1       -0.054   1.500  -0.689  0.00  0.00    +0.024 C 
ATOM     37  C   LIG    1       -0.025  -0.023  -0.544  0.00  0.00    +0.101 C 
ENDBRANCH  32  37
ENDBRANCH   1  34
TORSDOF 9
