REMARK  Name = ZINC29039135
REMARK                            x       y       z     vdW  Elec       q    Type
REMARK                         _______ _______ _______ _____ _____    ______ ____
ROOT
ATOM      1  C   LIG    1       -1.071   5.750   0.198  0.00  0.00    -0.004 C 
ATOM      2  C   LIG    1       -0.069   6.838  -0.234  0.00  0.00    -0.082 C 
ATOM      3  N   LIG    1        1.316   6.479   0.067  0.00  0.00    +0.379 N 
ATOM      4  H   LIG    1        1.456   6.440   1.157  0.00  0.00    -0.086 HD
ATOM      5  H   LIG    1        1.992   7.233  -0.363  0.00  0.00    -0.086 HD
ATOM      6  C   LIG    1        1.720   5.177  -0.469  0.00  0.00    -0.074 C 
ATOM      7  C   LIG    1        0.758   4.154   0.090  0.00  0.00    +0.009 C 
ATOM      8  C   LIG    1        1.033   2.709   0.007  0.00  0.00    -0.002 C 
ATOM      9  C   LIG    1       -0.024   1.887   0.012  0.00  0.00    +0.047 C 
ATOM     10 BR   LIG    1        0.002  -0.004   0.002  0.00  0.00    -0.043 Br
ATOM     11  S   LIG    1       -1.467   2.949   0.024  0.00  0.00    -0.114 S 
ATOM     12  C   LIG    1       -0.638   4.482  -0.535  0.00  0.00    +0.055 C 
ENDROOT
TORSDOF 0
