REMARK  Name = ZINC13974880
REMARK                            x       y       z     vdW  Elec       q    Type
REMARK                         _______ _______ _______ _____ _____    ______ ____
ROOT
ATOM      1  C   LIG    1       -0.064   4.704  -0.240  0.00  0.00    +0.009 C 
ATOM      2  C   LIG    1       -0.042   3.956   1.094  0.00  0.00    +0.009 C 
ATOM      3  C   LIG    1       -1.279   3.061   1.198  0.00  0.00    +0.024 C 
ATOM      4  C   LIG    1       -1.290   2.075   0.019  0.00  0.00    +0.108 C 
ATOM      5  N   LIG    1       -0.016   1.344   0.009  0.00  0.00    -0.299 N 
ATOM      6  C   LIG    1        0.002  -0.004   0.002  0.00  0.00    +0.229 C 
ATOM      7  O   LIG    1        1.060  -0.596  -0.011  0.00  0.00    -0.274 OA
ATOM      8  C   LIG    1        1.238   2.109   0.002  0.00  0.00    +0.130 C 
ATOM      9  C   LIG    1        1.221   3.095   1.174  0.00  0.00    +0.095 C 
ENDROOT
BRANCH   9  10
ATOM     10  N   LIG    1        2.408   3.958   1.107  0.00  0.00    -0.313 N 
ATOM     11  C   LIG    1        2.378   4.978   2.163  0.00  0.00    +0.131 C 
BRANCH  10  12
ATOM     12  C   LIG    1        3.569   3.209   1.173  0.00  0.00    +0.134 A 
ATOM     13  C   LIG    1        4.828   3.828   1.120  0.00  0.00    +0.059 A 
ATOM     14  C   LIG    1        5.300   5.207   1.012  0.00  0.00    +0.032 A 
ATOM     15  C   LIG    1        6.642   5.160   1.021  0.00  0.00    +0.085 A 
ATOM     16  N   LIG    1        7.060   3.859   1.130  0.00  0.00    -0.346 N 
ATOM     17  H   LIG    1        7.987   3.572   1.157  0.00  0.00    +0.167 HD
ATOM     18  C   LIG    1        5.979   3.023   1.196  0.00  0.00    +0.143 A 
ATOM     19  N   LIG    1        5.828   1.704   1.306  0.00  0.00    -0.218 NA
ATOM     20  C   LIG    1        4.628   1.167   1.347  0.00  0.00    +0.225 A 
ATOM     21  N   LIG    1        3.522   1.885   1.283  0.00  0.00    -0.220 NA
ENDBRANCH  10  12
ENDBRANCH   9  10
BRANCH   6  22
ATOM     22  C   LIG    1       -1.293  -0.775   0.010  0.00  0.00    +0.214 C 
BRANCH  22  23
ATOM     23  C   LIG    1       -1.004  -2.219  -0.000  0.00  0.00    +0.072 C 
ATOM     24  N   LIG    1       -0.781  -3.333  -0.008  0.00  0.00    -0.196 NA
ENDBRANCH  22  23
ENDBRANCH   6  22
TORSDOF 4
