REMARK  Name = ZINC17740304
REMARK                            x       y       z     vdW  Elec       q    Type
REMARK                         _______ _______ _______ _____ _____    ______ ____
ROOT
ATOM      1  C   LIG    1        0.065  -2.992   6.583  0.00  0.00    +0.119 C 
ENDROOT
BRANCH   1   5
ATOM      2  N   LIG    1        0.051  -2.796   2.390  0.00  0.00    -0.327 N 
ATOM      3  C   LIG    1       -1.203  -3.201   3.044  0.00  0.00    +0.120 C 
ATOM      4  C   LIG    1       -1.157  -2.746   4.507  0.00  0.00    +0.103 C 
ATOM      5  N   LIG    1        0.066  -3.259   5.138  0.00  0.00    -0.297 NA
ATOM      6  C   LIG    1        1.268  -2.704   4.501  0.00  0.00    +0.103 C 
ATOM      7  C   LIG    1        1.322  -3.162   3.035  0.00  0.00    +0.120 C 
BRANCH   2  13
ATOM      8  C   LIG    1       -0.018   1.503   0.010  0.00  0.00    +0.044 C 
ATOM      9  C   LIG    1        0.002  -0.004   0.002  0.00  0.00    -0.046 A 
ATOM     10  C   LIG    1        0.006  -0.688  -1.200  0.00  0.00    +0.004 A 
ATOM     11  C   LIG    1        0.024  -2.071  -1.212  0.00  0.00    +0.002 A 
ATOM     12  C   LIG    1        0.039  -2.773  -0.023  0.00  0.00    +0.023 A 
ATOM     13  C   LIG    1        0.036  -2.089   1.186  0.00  0.00    +0.033 A 
ATOM     14  C   LIG    1        0.023  -0.700   1.194  0.00  0.00    -0.027 A 
ATOM     15  C   LIG    1        0.025   0.046   2.504  0.00  0.00    +0.046 C 
ENDBRANCH   2  13
ENDBRANCH   1   5
BRANCH   1  16
ATOM     16  C   LIG    1        1.219  -3.749   7.242  0.00  0.00    +0.166 C 
BRANCH  16  17
ATOM     17  O   LIG    1        1.059  -5.151   7.017  0.00  0.00    -0.387 OA
ATOM     18  H   LIG    1        0.237  -5.516   7.374  0.00  0.00    +0.210 HD
ENDBRANCH  16  17
BRANCH  16  19
ATOM     19  C   LIG    1        1.218  -3.471   8.747  0.00  0.00    +0.261 C 
BRANCH  19  20
ATOM     20  O   LIG    1        2.362  -4.083   9.345  0.00  0.00    -0.489 OA
BRANCH  20  21
ATOM     21  C   LIG    1        2.512  -3.931  10.685  0.00  0.00    +0.121 A 
ATOM     22  C   LIG    1        1.570  -3.209  11.410  0.00  0.00    +0.046 A 
ATOM     23  C   LIG    1        1.716  -3.052  12.764  0.00  0.00    +0.015 A 
ATOM     24  C   LIG    1        2.817  -3.621  13.417  0.00  0.00    +0.017 A 
ATOM     25  C   LIG    1        3.763  -4.346  12.683  0.00  0.00    +0.015 A 
ATOM     26  C   LIG    1        3.604  -4.502  11.329  0.00  0.00    +0.046 A 
BRANCH  24  27
ATOM     27  C   LIG    1        2.979  -3.456  14.868  0.00  0.00    +0.160 C 
ATOM     28  C   LIG    1        4.165  -4.068  15.568  0.00  0.00    +0.091 C 
ATOM     29  O   LIG    1        2.159  -2.826  15.502  0.00  0.00    -0.292 OA
ENDBRANCH  24  27
ENDBRANCH  20  21
ENDBRANCH  19  20
ENDBRANCH  16  19
ENDBRANCH   1  16
TORSDOF 8
