REMARK  Name = ZINC34565731
REMARK                            x       y       z     vdW  Elec       q    Type
REMARK                         _______ _______ _______ _____ _____    ______ ____
ROOT
ATOM      1  C   LIG    1        2.966  -0.348   5.241  0.00  0.00    +0.221 A 
ATOM      2  N   LIG    1        3.018  -1.674   5.268  0.00  0.00    -0.222 NA
ATOM      3  C   LIG    1        3.528  -2.317   6.305  0.00  0.00    +0.126 A 
ATOM      4  C   LIG    1        4.014  -1.571   7.379  0.00  0.00    +0.037 A 
ATOM      5  C   LIG    1        4.633  -1.892   8.666  0.00  0.00    +0.031 A 
ATOM      6  C   LIG    1        4.888  -0.725   9.278  0.00  0.00    +0.094 A 
ATOM      7  N   LIG    1        4.480   0.318   8.482  0.00  0.00    -0.301 N 
ATOM      8  C   LIG    1        3.943  -0.164   7.317  0.00  0.00    +0.150 A 
ATOM      9  N   LIG    1        3.419   0.400   6.234  0.00  0.00    -0.196 NA
ENDROOT
BRANCH   7  10
ATOM     10  C   LIG    1        4.596   1.675   8.813  0.00  0.00    +0.048 A 
ATOM     11  C   LIG    1        5.154   2.567   7.908  0.00  0.00    +0.026 A 
ATOM     12  C   LIG    1        5.267   3.903   8.237  0.00  0.00    +0.002 A 
ATOM     13  C   LIG    1        4.824   4.353   9.468  0.00  0.00    +0.004 A 
ATOM     14  C   LIG    1        4.267   3.467  10.371  0.00  0.00    -0.044 A 
ATOM     15  C   LIG    1        4.146   2.131  10.045  0.00  0.00    +0.030 A 
BRANCH  14  16
ATOM     16  C   LIG    1        3.786   3.962  11.711  0.00  0.00    +0.050 C 
BRANCH  16  17
ATOM     17  C   LIG    1        2.317   4.378  11.604  0.00  0.00    +0.123 C 
BRANCH  17  18
ATOM     18  C   LIG    1        1.847   4.861  12.912  0.00  0.00    +0.063 C 
ATOM     19  N   LIG    1        1.485   5.234  13.922  0.00  0.00    -0.197 NA
ENDBRANCH  17  18
ENDBRANCH  16  17
ENDBRANCH  14  16
ENDBRANCH   7  10
BRANCH   1  20
ATOM     20  N   LIG    1        2.421   0.276   4.130  0.00  0.00    -0.283 N 
ATOM     21  H   LIG    1        2.450   1.243   4.054  0.00  0.00    +0.155 HD
BRANCH  20  24
ATOM     22  C   LIG    1        0.568  -2.417   2.435  0.00  0.00    +0.167 A 
ATOM     23  C   LIG    1        1.155  -1.659   3.437  0.00  0.00    +0.073 A 
ATOM     24  C   LIG    1        1.829  -0.488   3.118  0.00  0.00    +0.041 A 
ATOM     25  C   LIG    1        1.916  -0.075   1.795  0.00  0.00    +0.073 A 
ATOM     26  C   LIG    1        1.330  -0.831   0.792  0.00  0.00    +0.167 A 
ATOM     27  C   LIG    1        0.659  -2.006   1.111  0.00  0.00    +0.204 A 
BRANCH  22  29
ATOM     28  C   LIG    1       -0.147  -3.924   4.130  0.00  0.00    +0.277 C 
ATOM     29  O   LIG    1       -0.092  -3.563   2.748  0.00  0.00    -0.491 OA
ENDBRANCH  22  29
BRANCH  26  30
ATOM     30  O   LIG    1        1.414  -0.426  -0.503  0.00  0.00    -0.491 OA
ATOM     31  C   LIG    1        2.123   0.789  -0.757  0.00  0.00    +0.277 C 
ENDBRANCH  26  30
BRANCH  27  32
ATOM     32  O   LIG    1        0.087  -2.752   0.126  0.00  0.00    -0.488 OA
ATOM     33  C   LIG    1       -1.267  -2.449  -0.214  0.00  0.00    +0.277 C 
ENDBRANCH  27  32
ENDBRANCH  20  24
ENDBRANCH   1  20
TORSDOF 9
