REMARK  Name = ZINC19685795
REMARK                            x       y       z     vdW  Elec       q    Type
REMARK                         _______ _______ _______ _____ _____    ______ ____
ROOT
ATOM      1  C   LIG    1       -0.606  -3.777  -0.323  0.00  0.00    +0.338 C 
ATOM      2  O   LIG    1        0.499  -4.250  -0.516  0.00  0.00    -0.245 OA
ENDROOT
BRANCH   1   7
ATOM      3  C   LIG    1       -1.937   1.575   0.959  0.00  0.00    +0.061 C 
ATOM      4  C   LIG    1       -1.386   0.204   0.664  0.00  0.00    +0.016 C 
ATOM      5  C   LIG    1       -1.049  -0.608   1.681  0.00  0.00    +0.065 C 
ATOM      6  C   LIG    1       -0.488  -1.980   1.435  0.00  0.00    +0.096 C 
ATOM      7  C   LIG    1       -0.740  -2.412   0.018  0.00  0.00    +0.065 C 
ATOM      8  C   LIG    1       -1.089  -1.527  -0.932  0.00  0.00    +0.016 C 
ATOM      9  C   LIG    1       -1.322  -2.004  -2.343  0.00  0.00    +0.061 C 
ATOM     10  N   LIG    1       -1.241  -0.202  -0.634  0.00  0.00    -0.321 N 
ATOM     11  H   LIG    1       -1.241   0.455  -1.348  0.00  0.00    +0.152 HD
BRANCH   6  12
ATOM     12  C   LIG    1        0.997  -1.962   1.692  0.00  0.00    -0.033 A 
ATOM     13  C   LIG    1        1.814  -1.122   0.960  0.00  0.00    +0.005 A 
ATOM     14  C   LIG    1        3.176  -1.106   1.195  0.00  0.00    +0.003 A 
ATOM     15  C   LIG    1        3.721  -1.930   2.162  0.00  0.00    +0.032 A 
ATOM     16  C   LIG    1        2.903  -2.769   2.895  0.00  0.00    +0.122 A 
ATOM     17  C   LIG    1        1.540  -2.782   2.663  0.00  0.00    +0.037 A 
BRANCH  16  18
ATOM     18  N   LIG    1        3.486  -3.652   3.930  0.00  0.00    +0.006 N 
ATOM     19  O   LIG    1        4.677  -3.638   4.135  0.00  0.00    -0.130 OA
BRANCH  18  20
ATOM     20  O   LIG    1        2.771  -4.386   4.571  0.00  0.00    -0.396 OA
ATOM     21  H   LIG    1        1.847  -4.397   4.412  0.00  0.00    +0.329 HD
ENDBRANCH  18  20
ENDBRANCH  16  18
ENDBRANCH   6  12
BRANCH   5  22
ATOM     22  C   LIG    1       -1.226  -0.162   3.011  0.00  0.00    +0.337 C 
ATOM     23  O   LIG    1       -1.679   0.947   3.225  0.00  0.00    -0.245 OA
BRANCH  22  24
ATOM     24  O   LIG    1       -0.893  -0.965   4.043  0.00  0.00    -0.465 OA
ATOM     25  C   LIG    1       -1.098  -0.449   5.360  0.00  0.00    +0.280 C 
ENDBRANCH  22  24
ENDBRANCH   5  22
ENDBRANCH   1   7
BRANCH   1  26
ATOM     26  O   LIG    1       -1.702  -4.556  -0.435  0.00  0.00    -0.460 OA
BRANCH  26  27
ATOM     27  C   LIG    1       -1.492  -5.926  -0.783  0.00  0.00    +0.248 C 
BRANCH  27  28
ATOM     28  C   LIG    1       -2.841  -6.644  -0.862  0.00  0.00    +0.125 C 
BRANCH  28  29
ATOM     29  N   LIG    1       -3.642  -6.063  -1.948  0.00  0.00    -0.297 NA
ATOM     30  C   LIG    1       -5.068  -6.374  -1.775  0.00  0.00    +0.100 C 
ATOM     31  C   LIG    1       -5.875  -5.686  -2.879  0.00  0.00    +0.100 C 
ATOM     32  N   LIG    1       -5.395  -6.143  -4.190  0.00  0.00    -0.289 NA
ATOM     33  C   LIG    1       -3.969  -5.832  -4.363  0.00  0.00    +0.100 C 
ATOM     34  C   LIG    1       -3.162  -6.520  -3.260  0.00  0.00    +0.100 C 
BRANCH  32  35
ATOM     35  C   LIG    1       -6.196  -5.562  -5.276  0.00  0.00    +0.117 C 
BRANCH  35  36
ATOM     36  C   LIG    1       -7.635  -5.979  -5.117  0.00  0.00    -0.026 A 
ATOM     37  C   LIG    1       -7.942  -7.266  -4.716  0.00  0.00    +0.005 A 
ATOM     38  C   LIG    1       -9.262  -7.648  -4.570  0.00  0.00    +0.000 A 
ATOM     39  C   LIG    1      -10.276  -6.743  -4.824  0.00  0.00    +0.000 A 
ATOM     40  C   LIG    1       -9.969  -5.456  -5.223  0.00  0.00    +0.000 A 
ATOM     41  C   LIG    1       -8.649  -5.073  -5.365  0.00  0.00    +0.005 A 
ENDBRANCH  35  36
BRANCH  35  42
ATOM     42  C   LIG    1       -5.675  -6.053  -6.603  0.00  0.00    -0.026 A 
ATOM     43  C   LIG    1       -5.279  -7.370  -6.746  0.00  0.00    +0.005 A 
ATOM     44  C   LIG    1       -4.801  -7.819  -7.962  0.00  0.00    +0.000 A 
ATOM     45  C   LIG    1       -4.720  -6.952  -9.036  0.00  0.00    +0.000 A 
ATOM     46  C   LIG    1       -5.116  -5.636  -8.893  0.00  0.00    +0.000 A 
ATOM     47  C   LIG    1       -5.598  -5.187  -7.678  0.00  0.00    +0.005 A 
ENDBRANCH  35  42
ENDBRANCH  32  35
ENDBRANCH  28  29
ENDBRANCH  27  28
ENDBRANCH  26  27
ENDBRANCH   1  26
TORSDOF 13
