REMARK  Name = ZINC15593957
REMARK                            x       y       z     vdW  Elec       q    Type
REMARK                         _______ _______ _______ _____ _____    ______ ____
ROOT
ATOM      1  C   LIG    1       -0.124   7.914  -2.836  0.00  0.00    +0.048 C 
ATOM      2  C   LIG    1        1.178   7.431  -3.478  0.00  0.00    +0.019 C 
ATOM      3  C   LIG    1        1.204   5.901  -3.487  0.00  0.00    -0.009 C 
ATOM      4  C   LIG    1        0.014   5.375  -4.291  0.00  0.00    +0.007 C 
ATOM      5  C   LIG    1       -1.288   5.859  -3.650  0.00  0.00    -0.009 C 
ATOM      6  C   LIG    1       -1.373   5.338  -2.213  0.00  0.00    +0.011 C 
ATOM      7  C   LIG    1       -0.183   5.865  -1.409  0.00  0.00    -0.024 C 
ATOM      8  C   LIG    1        1.119   5.381  -2.050  0.00  0.00    +0.011 C 
ATOM      9  C   LIG    1       -0.210   7.394  -1.400  0.00  0.00    +0.023 C 
ATOM     10  C   LIG    1       -1.315   7.388  -3.641  0.00  0.00    +0.019 C 
ENDROOT
BRANCH   1  16
ATOM     11  N   LIG    1        1.081  11.360  -6.193  0.00  0.00    +0.382 N 
ATOM     12  H   LIG    1        0.096  11.639  -6.596  0.00  0.00    -0.082 HD
ATOM     13  C   LIG    1        1.126   9.894  -6.102  0.00  0.00    -0.060 C 
ATOM     14  C   LIG    1       -0.068   9.400  -5.279  0.00  0.00    +0.089 C 
ATOM     15  N   LIG    1       -0.069  10.103  -3.987  0.00  0.00    -0.305 N 
ATOM     16  C   LIG    1       -0.151   9.421  -2.828  0.00  0.00    +0.222 C 
ATOM     17  O   LIG    1       -0.246  10.020  -1.777  0.00  0.00    -0.275 OA
ATOM     18  C   LIG    1        0.017  11.572  -3.994  0.00  0.00    +0.089 C 
ATOM     19  C   LIG    1        1.214  11.980  -4.868  0.00  0.00    -0.060 C 
BRANCH  11  21
ATOM     20  C   LIG    1        2.199  13.385  -6.997  0.00  0.00    -0.017 C 
ATOM     21  C   LIG    1        2.108  11.862  -7.115  0.00  0.00    -0.082 C 
ENDBRANCH  11  21
ENDBRANCH   1  16
BRANCH   7  22
ATOM     22  C   LIG    1       -0.268   5.345   0.027  0.00  0.00    +0.042 C 
BRANCH  22  23
ATOM     23  C   LIG    1       -0.242   3.838   0.018  0.00  0.00    -0.047 A 
ATOM     24  C   LIG    1        0.965   3.167   0.093  0.00  0.00    +0.003 A 
ATOM     25  C   LIG    1        0.989   1.785   0.085  0.00  0.00    +0.000 A 
ATOM     26  C   LIG    1       -0.193   1.074   0.004  0.00  0.00    +0.000 A 
ATOM     27  C   LIG    1       -1.400   1.744  -0.075  0.00  0.00    +0.000 A 
ATOM     28  C   LIG    1       -1.424   3.126  -0.063  0.00  0.00    +0.003 A 
ENDBRANCH  22  23
ENDBRANCH   7  22
TORSDOF 4
