REMARK  Name = ZINC28465563
REMARK                            x       y       z     vdW  Elec       q    Type
REMARK                         _______ _______ _______ _____ _____    ______ ____
ROOT
ATOM      1  C   LIG    1        0.847  -1.998  -1.206  0.00  0.00    -0.049 A 
ATOM      2  C   LIG    1        1.959  -2.575  -0.620  0.00  0.00    +0.004 A 
ATOM      3  C   LIG    1        2.081  -3.950  -0.572  0.00  0.00    +0.015 A 
ATOM      4  C   LIG    1        1.085  -4.753  -1.112  0.00  0.00    +0.008 A 
ATOM      5  C   LIG    1       -0.032  -4.170  -1.700  0.00  0.00    +0.015 A 
ATOM      6  C   LIG    1       -0.149  -2.795  -1.740  0.00  0.00    +0.004 A 
ENDROOT
BRANCH   1   7
ATOM      7  C   LIG    1        0.718  -0.497  -1.257  0.00  0.00    +0.018 C 
BRANCH   7   9
ATOM      8  C   LIG    1       -0.019   1.526   0.010  0.00  0.00    -0.014 C 
ATOM      9  C   LIG    1        0.002  -0.004   0.002  0.00  0.00    -0.074 C 
BRANCH   9  10
ATOM     10  N   LIG    1       -1.376  -0.512   0.012  0.00  0.00    +0.380 N 
ATOM     11  H   LIG    1       -1.848  -0.187   0.843  0.00  0.00    -0.090 HD
ATOM     12  H   LIG    1       -1.362  -1.521   0.007  0.00  0.00    -0.090 HD
ATOM     13  H   LIG    1       -1.864  -0.178  -0.805  0.00  0.00    -0.090 HD
ENDBRANCH   9  10
ENDBRANCH   7   9
ENDBRANCH   1   7
BRANCH   4  14
ATOM     14  S   LIG    1        1.236  -6.508  -1.054  0.00  0.00    -0.125 S 
BRANCH  14  15
ATOM     15  C   LIG    1       -0.273  -7.106  -1.864  0.00  0.00    +0.077 C 
BRANCH  15  16
ATOM     16  C   LIG    1       -0.270  -8.636  -1.882  0.00  0.00    -0.007 C 
ATOM     17  C   LIG    1       -1.478  -9.139  -2.674  0.00  0.00    +0.008 C 
ATOM     18  C   LIG    1       -0.345  -9.163  -0.448  0.00  0.00    +0.008 C 
ENDBRANCH  15  16
ENDBRANCH  14  15
ENDBRANCH   4  14
TORSDOF 6
