REMARK  Name = ZINC22060168
REMARK                            x       y       z     vdW  Elec       q    Type
REMARK                         _______ _______ _______ _____ _____    ______ ____
ROOT
ATOM      1  C   LIG    1        1.218  -0.672  -0.013  0.00  0.00    +0.045 A 
ATOM      2  C   LIG    1        2.394   0.046  -0.015  0.00  0.00    +0.007 A 
ATOM      3  C   LIG    1        2.377   1.435  -0.003  0.00  0.00    -0.042 A 
ATOM      4  C   LIG    1        1.168   2.101   0.002  0.00  0.00    -0.014 A 
ATOM      5  C   LIG    1        1.093   3.599  -0.016  0.00  0.00    +0.135 C 
ATOM      6  C   LIG    1        2.401   4.198   0.501  0.00  0.00    -0.038 C 
ATOM      7  N   LIG    1        2.336   5.659   0.369  0.00  0.00    +0.384 N 
ATOM      8  H   LIG    1        2.172   5.925  -0.685  0.00  0.00    -0.085 HD
ATOM      9  H   LIG    1        3.281   6.101   0.717  0.00  0.00    -0.085 HD
ATOM     10  C   LIG    1        1.222   6.168   1.187  0.00  0.00    -0.054 C 
ATOM     11  C   LIG    1       -0.091   5.520   0.744  0.00  0.00    +0.141 C 
ATOM     12  C   LIG    1        3.547   3.627  -0.333  0.00  0.00    -0.008 C 
ATOM     13  O   LIG    1        0.026   4.092   0.792  0.00  0.00    -0.375 OA
ATOM     14  C   LIG    1       -0.017   1.381   0.010  0.00  0.00    +0.051 A 
ATOM     15  C   LIG    1        3.704   2.149   0.020  0.00  0.00    +0.034 C 
ATOM     16  C   LIG    1        0.002  -0.004   0.002  0.00  0.00    +0.117 A 
ENDROOT
BRANCH  16  17
ATOM     17  O   LIG    1       -1.163  -0.704   0.010  0.00  0.00    -0.507 OA
ATOM     18  H   LIG    1       -2.125  -0.170   0.022  0.00  0.00    +0.292 HD
ENDBRANCH  16  17
TORSDOF 1
