REMARK  Name = ZINC53151259
REMARK                            x       y       z     vdW  Elec       q    Type
REMARK                         _______ _______ _______ _____ _____    ______ ____
ROOT
ATOM      1  N   LIG    1       -2.317  -6.883   3.884  0.00  0.00    -0.340 N 
ATOM      2  H   LIG    1       -3.090  -6.338   4.099  0.00  0.00    +0.146 HD
ENDROOT
BRANCH   1   3
ATOM      3  C   LIG    1       -1.532  -7.395   4.894  0.00  0.00    +0.079 C 
ATOM      4  C   LIG    1       -0.480  -6.641   5.453  0.00  0.00    +0.026 C 
ATOM      5  C   LIG    1       -0.201  -5.342   4.995  0.00  0.00    +0.007 C 
ATOM      6  C   LIG    1        0.820  -4.637   5.553  0.00  0.00    +0.000 C 
ATOM      7  C   LIG    1        1.595  -5.186   6.574  0.00  0.00    +0.002 C 
ATOM      8  C   LIG    1        1.355  -6.439   7.043  0.00  0.00    +0.019 C 
ATOM      9  C   LIG    1        0.305  -7.204   6.493  0.00  0.00    +0.059 C 
ATOM     10  N   LIG    1        0.059  -8.433   6.944  0.00  0.00    -0.310 NA
ATOM     11  H   LIG    1        0.611  -8.793   7.655  0.00  0.00    +0.122 HD
ATOM     12  C   LIG    1       -0.924  -9.181   6.446  0.00  0.00    +0.059 C 
ATOM     13  C   LIG    1       -1.158 -10.479   6.946  0.00  0.00    +0.019 C 
ATOM     14  C   LIG    1       -2.173 -11.227   6.439  0.00  0.00    +0.002 C 
ATOM     15  C   LIG    1       -2.986 -10.740   5.416  0.00  0.00    +0.000 C 
ATOM     16  C   LIG    1       -2.791  -9.495   4.902  0.00  0.00    +0.007 C 
ATOM     17  C   LIG    1       -1.758  -8.688   5.407  0.00  0.00    +0.026 C 
ENDBRANCH   1   3
BRANCH   1  21
ATOM     18  C   LIG    1       -1.369  -7.675  -0.098  0.00  0.00    +0.030 A 
ATOM     19  C   LIG    1       -2.542  -7.000   0.216  0.00  0.00    +0.025 A 
ATOM     20  C   LIG    1       -2.856  -6.738   1.534  0.00  0.00    +0.025 A 
ATOM     21  C   LIG    1       -1.999  -7.149   2.547  0.00  0.00    +0.027 A 
ATOM     22  C   LIG    1       -0.826  -7.824   2.234  0.00  0.00    +0.025 A 
ATOM     23  C   LIG    1       -0.514  -8.090   0.915  0.00  0.00    +0.025 A 
BRANCH  18  28
ATOM     24  C   LIG    1        0.584  -6.864  -5.147  0.00  0.00    +0.105 C 
ATOM     25  N   LIG    1       -0.057  -7.530  -4.005  0.00  0.00    -0.302 NA
ATOM     26  C   LIG    1       -1.262  -6.804  -3.580  0.00  0.00    +0.103 C 
ATOM     27  C   LIG    1       -1.997  -7.622  -2.513  0.00  0.00    +0.120 C 
ATOM     28  N   LIG    1       -1.051  -7.941  -1.434  0.00  0.00    -0.327 N 
ATOM     29  C   LIG    1        0.240  -8.546  -1.797  0.00  0.00    +0.120 C 
ATOM     30  C   LIG    1        0.887  -7.692  -2.892  0.00  0.00    +0.103 C 
ENDBRANCH  18  28
ENDBRANCH   1  21
TORSDOF 3
