REMARK  Name = ZINC00010251
REMARK                            x       y       z     vdW  Elec       q    Type
REMARK                         _______ _______ _______ _____ _____    ______ ____
ROOT
ATOM      1  C   LIG    1        3.672   2.186  -0.021  0.00  0.00    +0.142 C 
ENDROOT
BRANCH   1   4
ATOM      2  C   LIG    1       -0.017   1.377   0.010  0.00  0.00    +0.003 A 
ATOM      3  C   LIG    1        1.171   2.086   0.002  0.00  0.00    +0.005 A 
ATOM      4  C   LIG    1        2.378   1.413  -0.013  0.00  0.00    -0.027 A 
ATOM      5  C   LIG    1        2.399   0.030  -0.021  0.00  0.00    +0.043 A 
ATOM      6  C   LIG    1        1.211  -0.679  -0.013  0.00  0.00    +0.124 A 
ATOM      7  F   LIG    1        1.230  -2.030  -0.022  0.00  0.00    -0.205 F 
ATOM      8  C   LIG    1        0.002  -0.004   0.002  0.00  0.00    +0.038 A 
ENDBRANCH   1   4
BRANCH   1   9
ATOM      9  N   LIG    1        4.104   2.429   1.357  0.00  0.00    -0.306 N 
ATOM     10  C   LIG    1        3.736   3.595   2.173  0.00  0.00    +0.128 C 
ATOM     11  C   LIG    1        4.447   3.359   3.518  0.00  0.00    +0.133 C 
ATOM     12  N   LIG    1        5.150   2.080   3.339  0.00  0.00    -0.366 N 
ATOM     13  H   LIG    1        5.699   1.642   4.008  0.00  0.00    +0.161 HD
ATOM     14  C   LIG    1        4.904   1.609   2.089  0.00  0.00    +0.128 C 
BRANCH  14  15
ATOM     15  S   LIG    1        5.522   0.181   1.512  0.00  0.00    -0.110 S 
ATOM     16  H   LIG    1        5.097  -0.014   0.234  0.00  0.00    +0.110 HD
ENDBRANCH  14  15
ENDBRANCH   1   9
TORSDOF 3
