REMARK  Name = ZINC53274820
REMARK                            x       y       z     vdW  Elec       q    Type
REMARK                         _______ _______ _______ _____ _____    ______ ____
ROOT
ATOM      1  C   LIG    1        5.736  -3.602  -0.089  0.00  0.00    +0.122 C 
ENDROOT
BRANCH   1   2
ATOM      2  N   LIG    1        5.944  -4.037  -1.477  0.00  0.00    -0.295 NA
ATOM      3  C   LIG    1        4.660  -4.233  -2.164  0.00  0.00    +0.103 C 
ATOM      4  C   LIG    1        4.917  -4.508  -3.650  0.00  0.00    +0.120 C 
ATOM      5  N   LIG    1        5.860  -5.631  -3.761  0.00  0.00    -0.327 N 
ATOM      6  C   LIG    1        7.111  -5.568  -2.990  0.00  0.00    +0.120 C 
ATOM      7  C   LIG    1        6.768  -5.252  -1.530  0.00  0.00    +0.103 C 
BRANCH   5   8
ATOM      8  C   LIG    1        5.575  -6.728  -4.577  0.00  0.00    +0.030 A 
ATOM      9  C   LIG    1        4.342  -6.824  -5.208  0.00  0.00    +0.023 A 
ATOM     10  C   LIG    1        4.064  -7.910  -6.015  0.00  0.00    +0.002 A 
ATOM     11  C   LIG    1        5.011  -8.902  -6.193  0.00  0.00    +0.000 A 
ATOM     12  C   LIG    1        6.240  -8.810  -5.565  0.00  0.00    +0.002 A 
ATOM     13  C   LIG    1        6.527  -7.723  -4.762  0.00  0.00    +0.023 A 
ENDBRANCH   5   8
ENDBRANCH   1   2
BRANCH   1  16
ATOM     14  N   LIG    1        3.624  -0.627  -0.071  0.00  0.00    -0.240 N 
ATOM     15  C   LIG    1        3.776  -1.970  -0.081  0.00  0.00    +0.119 A 
ATOM     16  C   LIG    1        5.104  -2.234  -0.081  0.00  0.00    +0.004 A 
ATOM     17  C   LIG    1        5.785  -1.012  -0.071  0.00  0.00    +0.139 A 
ATOM     18  N   LIG    1        4.899  -0.049  -0.071  0.00  0.00    -0.174 NA
BRANCH  14  22
ATOM     19  C   LIG    1       -0.002   1.430  -0.064  0.00  0.00    +0.000 A 
ATOM     20  C   LIG    1        1.189   2.132  -0.062  0.00  0.00    +0.002 A 
ATOM     21  C   LIG    1        2.392   1.453  -0.065  0.00  0.00    +0.028 A 
ATOM     22  C   LIG    1        2.404   0.065  -0.069  0.00  0.00    +0.065 A 
ATOM     23  C   LIG    1        1.206  -0.637  -0.070  0.00  0.00    +0.028 A 
ATOM     24  C   LIG    1        0.007   0.047  -0.069  0.00  0.00    +0.002 A 
ENDBRANCH  14  22
ENDBRANCH   1  16
TORSDOF 4
