REMARK  Name = ZINC22459427
REMARK                            x       y       z     vdW  Elec       q    Type
REMARK                         _______ _______ _______ _____ _____    ______ ____
ROOT
ATOM      1  C   LIG    1        1.453  -3.974  -0.034  0.00  0.00    +0.092 C 
ATOM      2  C   LIG    1        2.192  -4.406   1.191  0.00  0.00    +0.060 C 
ATOM      3  C   LIG    1        2.038  -5.865   1.473  0.00  0.00    -0.032 A 
ATOM      4  C   LIG    1        1.163  -6.277   2.471  0.00  0.00    +0.005 A 
ATOM      5  C   LIG    1        0.990  -7.626   2.715  0.00  0.00    +0.000 A 
ATOM      6  C   LIG    1        1.676  -8.568   1.970  0.00  0.00    +0.001 A 
ATOM      7  C   LIG    1        2.556  -8.158   0.985  0.00  0.00    +0.015 A 
ATOM      8  C   LIG    1        2.736  -6.797   0.764  0.00  0.00    +0.016 A 
ATOM      9  S   LIG    1        3.914  -6.235  -0.413  0.00  0.00    -0.089 S 
ATOM     10  C   LIG    1        3.014  -5.328  -1.619  0.00  0.00    +0.017 A 
ATOM     11  C   LIG    1        3.368  -5.601  -2.956  0.00  0.00    +0.016 A 
ATOM     12  C   LIG    1        2.779  -4.960  -4.008  0.00  0.00    +0.020 A 
ATOM     13  C   LIG    1        1.796  -4.000  -3.748  0.00  0.00    +0.052 A 
ATOM     14  C   LIG    1        1.438  -3.738  -2.433  0.00  0.00    +0.025 A 
ATOM     15  C   LIG    1        2.030  -4.402  -1.354  0.00  0.00    -0.015 A 
ENDROOT
BRANCH   1  21
ATOM     16  C   LIG    1        1.717   1.547   1.058  0.00  0.00    -0.096 C 
ATOM     17  N   LIG    1        1.817   0.082   1.098  0.00  0.00    +0.379 N 
ATOM     18  H   LIG    1        2.273  -0.200   1.953  0.00  0.00    -0.082 HD
ATOM     19  C   LIG    1        0.470  -0.502   1.046  0.00  0.00    -0.064 C 
ATOM     20  C   LIG    1        0.573  -2.027   1.107  0.00  0.00    +0.066 C 
ATOM     21  N   LIG    1        1.378  -2.507  -0.025  0.00  0.00    -0.299 NA
ATOM     22  C   LIG    1        2.721  -1.911  -0.000  0.00  0.00    +0.066 C 
ATOM     23  C   LIG    1        2.601  -0.386  -0.052  0.00  0.00    -0.064 C 
ENDBRANCH   1  21
BRANCH  13  24
ATOM     24  C   LIG    1        1.166  -3.296  -4.825  0.00  0.00    +0.099 C 
ATOM     25  N   LIG    1        0.666  -2.738  -5.679  0.00  0.00    -0.191 NA
ENDBRANCH  13  24
TORSDOF 2
