REMARK  Name = ZINC43170519
REMARK                            x       y       z     vdW  Elec       q    Type
REMARK                         _______ _______ _______ _____ _____    ______ ____
ROOT
ATOM      1  C   LIG    1        2.970  -2.925  -1.770  0.00  0.00    -0.002 A 
ATOM      2  C   LIG    1        2.651  -4.221  -1.364  0.00  0.00    +0.029 A 
ATOM      3  C   LIG    1        3.584  -5.228  -1.519  0.00  0.00    +0.114 A 
ATOM      4  N   LIG    1        4.771  -4.997  -2.043  0.00  0.00    -0.237 NA
ATOM      5  C   LIG    1        5.137  -3.788  -2.449  0.00  0.00    +0.139 A 
ATOM      6  N   LIG    1        6.292  -3.301  -3.015  0.00  0.00    -0.339 N 
ATOM      7  H   LIG    1        7.084  -3.823  -3.219  0.00  0.00    +0.167 HD
ATOM      8  C   LIG    1        6.136  -1.953  -3.260  0.00  0.00    +0.049 A 
ATOM      9  C   LIG    1        4.904  -1.565  -2.848  0.00  0.00    +0.038 A 
ATOM     10  C   LIG    1        4.245  -2.706  -2.333  0.00  0.00    +0.027 A 
ENDROOT
BRANCH   8  11
ATOM     11  C   LIG    1        7.155  -1.069  -3.864  0.00  0.00    -0.001 A 
ATOM     12  C   LIG    1        6.886   0.289  -4.046  0.00  0.00    +0.010 A 
ATOM     13  C   LIG    1        7.841   1.109  -4.610  0.00  0.00    +0.001 A 
ATOM     14  C   LIG    1        9.064   0.588  -4.995  0.00  0.00    +0.002 A 
ATOM     15  C   LIG    1        9.337  -0.757  -4.818  0.00  0.00    -0.063 A 
ATOM     16  C   LIG    1        8.393  -1.586  -4.249  0.00  0.00    +0.011 A 
BRANCH  15  17
ATOM     17  C   LIG    1       10.671  -1.315  -5.241  0.00  0.00    -0.044 C 
BRANCH  17  18
ATOM     18  N   LIG    1       11.617  -1.227  -4.120  0.00  0.00    +0.379 N 
ATOM     19  H   LIG    1       11.225  -1.688  -3.312  0.00  0.00    -0.082 HD
ATOM     20  C   LIG    1       11.869   0.185  -3.802  0.00  0.00    -0.096 C 
ATOM     21  C   LIG    1       12.880  -1.878  -4.492  0.00  0.00    -0.096 C 
ENDBRANCH  17  18
ENDBRANCH  15  17
ENDBRANCH   8  11
BRANCH   1  24
ATOM     22  N   LIG    1        0.666  -0.316  -0.744  0.00  0.00    -0.271 N 
ATOM     23  C   LIG    1        1.525  -1.310  -0.447  0.00  0.00    +0.117 A 
ATOM     24  C   LIG    1        1.999  -1.817  -1.622  0.00  0.00    +0.028 A 
ATOM     25  C   LIG    1        1.391  -1.087  -2.676  0.00  0.00    +0.100 A 
ATOM     26  N   LIG    1        0.591  -0.194  -2.137  0.00  0.00    -0.171 NA
BRANCH  25  27
ATOM     27  C   LIG    1        1.613  -1.297  -4.127  0.00  0.00    +0.003 A 
ATOM     28  C   LIG    1        1.687  -2.591  -4.642  0.00  0.00    +0.012 A 
ATOM     29  C   LIG    1        1.894  -2.784  -5.991  0.00  0.00    +0.024 A 
ATOM     30  C   LIG    1        2.029  -1.690  -6.838  0.00  0.00    +0.035 A 
ATOM     31  C   LIG    1        1.957  -0.400  -6.327  0.00  0.00    +0.024 A 
ATOM     32  C   LIG    1        1.744  -0.202  -4.979  0.00  0.00    +0.012 A 
BRANCH  30  33
ATOM     33  N   LIG    1        2.239  -1.889  -8.206  0.00  0.00    -0.269 N 
ATOM     34  H   LIG    1        2.750  -2.655  -8.513  0.00  0.00    +0.156 HD
ATOM     35  C   LIG    1        1.732  -1.016  -9.100  0.00  0.00    +0.306 C 
ATOM     36  N   LIG    1        2.020  -1.149 -10.409  0.00  0.00    -0.291 N 
ATOM     37  C   LIG    1        2.884  -2.241 -10.863  0.00  0.00    +0.133 C 
ATOM     38  C   LIG    1        1.468  -0.200 -11.380  0.00  0.00    +0.133 C 
ATOM     39  O   LIG    1        1.014  -0.109  -8.723  0.00  0.00    -0.252 OA
ENDBRANCH  30  33
ENDBRANCH  25  27
BRANCH  22  41
ATOM     40  C   LIG    1        0.206   1.979  -0.034  0.00  0.00    +0.029 C 
ATOM     41  C   LIG    1       -0.071   0.497   0.227  0.00  0.00    +0.140 C 
ENDBRANCH  22  41
ENDBRANCH   1  24
TORSDOF 7
