REMARK  Name = ZINC29221575
REMARK                            x       y       z     vdW  Elec       q    Type
REMARK                         _______ _______ _______ _____ _____    ______ ____
ROOT
ATOM      1  C   LIG    1       -4.710  -2.701   1.060  0.00  0.00    +0.159 C 
ENDROOT
BRANCH   1   2
ATOM      2  C   LIG    1       -5.502  -1.609   1.731  0.00  0.00    +0.234 C 
ATOM      3  N   LIG    1       -6.847  -1.683   1.776  0.00  0.00    -0.302 N 
ATOM      4  H   LIG    1       -7.301  -2.471   1.440  0.00  0.00    +0.150 HD
ATOM      5  O   LIG    1       -4.929  -0.663   2.230  0.00  0.00    -0.274 OA
BRANCH   3   6
ATOM      6  C   LIG    1       -7.623  -0.572   2.332  0.00  0.00    +0.159 C 
BRANCH   6   7
ATOM      7  C   LIG    1       -7.709  -0.719   3.830  0.00  0.00    +0.234 C 
ATOM      8  N   LIG    1       -8.380   0.195   4.559  0.00  0.00    -0.302 N 
ATOM      9  H   LIG    1       -8.807   0.947   4.120  0.00  0.00    +0.150 HD
ATOM     10  O   LIG    1       -7.174  -1.659   4.378  0.00  0.00    -0.274 OA
BRANCH   8  11
ATOM     11  C   LIG    1       -8.463   0.052   6.015  0.00  0.00    +0.167 C 
BRANCH  11  12
ATOM     12  C   LIG    1       -9.611  -0.859   6.365  0.00  0.00    +0.231 C 
ATOM     13  N   LIG    1       -9.880  -1.138   7.656  0.00  0.00    -0.328 N 
ATOM     14  H   LIG    1      -10.620  -1.724   7.882  0.00  0.00    +0.145 HD
ATOM     15  H   LIG    1       -9.335  -0.752   8.360  0.00  0.00    +0.145 HD
ATOM     16  O   LIG    1      -10.293  -1.341   5.486  0.00  0.00    -0.274 OA
ENDBRANCH  11  12
BRANCH  11  17
ATOM     17  C   LIG    1       -8.689   1.425   6.650  0.00  0.00    +0.127 C 
BRANCH  17  18
ATOM     18  C   LIG    1       -7.485   2.297   6.403  0.00  0.00    +0.213 C 
ATOM     19  N   LIG    1       -7.459   3.560   6.875  0.00  0.00    -0.329 N 
ATOM     20  H   LIG    1       -6.684   4.121   6.716  0.00  0.00    +0.145 HD
ATOM     21  H   LIG    1       -8.216   3.907   7.373  0.00  0.00    +0.145 HD
ATOM     22  O   LIG    1       -6.539   1.863   5.781  0.00  0.00    -0.276 OA
ENDBRANCH  17  18
ENDBRANCH  11  17
ENDBRANCH   8  11
ENDBRANCH   6   7
BRANCH   6  23
ATOM     23  C   LIG    1       -9.033  -0.586   1.737  0.00  0.00    +0.035 C 
BRANCH  23  24
ATOM     24  C   LIG    1       -8.954  -0.312   0.234  0.00  0.00    +0.039 C 
BRANCH  24  25
ATOM     25  C   LIG    1      -10.363  -0.326  -0.361  0.00  0.00    +0.196 C 
BRANCH  25  26
ATOM     26  N   LIG    1      -10.288  -0.064  -1.801  0.00  0.00    -0.279 N 
ATOM     27  H   LIG    1       -9.427   0.084  -2.223  0.00  0.00    +0.258 HD
BRANCH  26  28
ATOM     28  C   LIG    1      -11.432  -0.028  -2.550  0.00  0.00    +0.341 C 
ATOM     29  N   LIG    1      -11.364   0.210  -3.859  0.00  0.00    -0.292 N 
ATOM     30  H   LIG    1      -12.175   0.236  -4.390  0.00  0.00    +0.255 HD
ATOM     31  H   LIG    1      -10.503   0.358  -4.280  0.00  0.00    +0.255 HD
BRANCH  28  32
ATOM     32  N   LIG    1      -12.614  -0.232  -1.971  0.00  0.00    -0.292 N 
ATOM     33  H   LIG    1      -13.425  -0.206  -2.502  0.00  0.00    +0.255 HD
ATOM     34  H   LIG    1      -12.664  -0.405  -1.018  0.00  0.00    +0.255 HD
ENDBRANCH  28  32
ENDBRANCH  26  28
ENDBRANCH  25  26
ENDBRANCH  24  25
ENDBRANCH  23  24
ENDBRANCH   6  23
ENDBRANCH   3   6
ENDBRANCH   1   2
BRANCH   1  36
ATOM     35  C   LIG    1       -2.699  -2.712  -0.317  0.00  0.00    +0.234 C 
ATOM     36  N   LIG    1       -3.370  -2.204   0.736  0.00  0.00    -0.302 N 
ATOM     37  H   LIG    1       -2.966  -1.509   1.279  0.00  0.00    +0.150 HD
ATOM     38  O   LIG    1       -3.164  -3.642  -0.941  0.00  0.00    -0.274 OA
BRANCH  35  39
ATOM     39  C   LIG    1       -1.371  -2.124  -0.719  0.00  0.00    +0.159 C 
BRANCH  39  40
ATOM     40  N   LIG    1       -0.850  -2.846  -1.882  0.00  0.00    -0.302 N 
ATOM     41  H   LIG    1       -1.459  -3.305  -2.482  0.00  0.00    +0.150 HD
ATOM     42  C   LIG    1        0.477  -2.872  -2.120  0.00  0.00    +0.234 C 
ATOM     43  O   LIG    1        1.239  -2.299  -1.371  0.00  0.00    -0.274 OA
BRANCH  42  44
ATOM     44  C   LIG    1        1.013  -3.615  -3.317  0.00  0.00    +0.163 C 
BRANCH  44  45
ATOM     45  N   LIG    1        2.473  -3.494  -3.352  0.00  0.00    -0.302 N 
ATOM     46  H   LIG    1        2.966  -3.328  -2.534  0.00  0.00    +0.150 HD
ATOM     47  C   LIG    1        3.130  -3.613  -4.523  0.00  0.00    +0.233 C 
ATOM     48  O   LIG    1        2.514  -3.820  -5.546  0.00  0.00    -0.274 OA
BRANCH  47  49
ATOM     49  CA  LIG    1        4.632  -3.488  -4.559  0.00  0.00    +0.163 C 
BRANCH  49  50
ATOM     50  N   LIG    1        5.145  -4.109  -5.788  0.00  0.00    -0.318 NA
ATOM     51  H1  LIG    1        4.763  -3.660  -6.607  0.00  0.00    +0.119 HD
ATOM     52  H2  LIG    1        4.956  -5.100  -5.798  0.00  0.00    +0.119 HD
ENDBRANCH  49  50
BRANCH  49  53
ATOM     53  C   LIG    1        5.022  -2.009  -4.534  0.00  0.00    +0.183 C 
BRANCH  53  54
ATOM     54  O   LIG    1        6.444  -1.892  -4.452  0.00  0.00    -0.393 OA
ATOM     55  H   LIG    1        6.763  -0.980  -4.431  0.00  0.00    +0.209 HD
ENDBRANCH  53  54
ENDBRANCH  49  53
ENDBRANCH  47  49
ENDBRANCH  44  45
BRANCH  44  56
ATOM     56  C   LIG    1        0.626  -5.092  -3.216  0.00  0.00    +0.067 C 
BRANCH  56  57
ATOM     57  C   LIG    1        1.055  -5.810  -4.469  0.00  0.00    -0.045 A 
ATOM     58  C   LIG    1        0.195  -5.891  -5.548  0.00  0.00    +0.004 A 
ATOM     59  C   LIG    1        0.589  -6.550  -6.698  0.00  0.00    +0.000 A 
ATOM     60  C   LIG    1        1.843  -7.127  -6.769  0.00  0.00    +0.000 A 
ATOM     61  C   LIG    1        2.703  -7.045  -5.690  0.00  0.00    +0.000 A 
ATOM     62  C   LIG    1        2.311  -6.383  -4.542  0.00  0.00    +0.004 A 
ENDBRANCH  56  57
ENDBRANCH  44  56
ENDBRANCH  42  44
ENDBRANCH  39  40
BRANCH  39  63
ATOM     63  C   LIG    1       -1.554  -0.647  -1.075  0.00  0.00    +0.034 C 
BRANCH  63  65
ATOM     64  C   LIG    1       -0.381   1.422  -1.839  0.00  0.00    +0.007 C 
ATOM     65  C   LIG    1       -0.189  -0.019  -1.363  0.00  0.00    -0.015 C 
ATOM     66  C   LIG    1        0.655  -0.026  -0.086  0.00  0.00    +0.007 C 
ENDBRANCH  63  65
ENDBRANCH  39  63
ENDBRANCH  35  39
ENDBRANCH   1  36
BRANCH   1  67
ATOM     67  C   LIG    1       -4.594  -3.900   2.003  0.00  0.00    +0.034 C 
BRANCH  67  68
ATOM     68  C   LIG    1       -5.982  -4.501   2.236  0.00  0.00    -0.015 C 
ATOM     69  C   LIG    1       -5.893  -5.591   3.306  0.00  0.00    +0.007 C 
ATOM     70  C   LIG    1       -6.500  -5.109   0.931  0.00  0.00    +0.007 C 
ENDBRANCH  67  68
ENDBRANCH   1  67
TORSDOF 28
