REMARK  Name = ZINC34677951
REMARK                            x       y       z     vdW  Elec       q    Type
REMARK                         _______ _______ _______ _____ _____    ______ ____
ROOT
ATOM      1  C   LIG    1       -0.017   1.395   0.010  0.00  0.00    +0.018 A 
ATOM      2  C   LIG    1        1.167   2.097   0.002  0.00  0.00    +0.046 A 
ATOM      3  C   LIG    1        2.380   1.418  -0.013  0.00  0.00    +0.121 A 
ATOM      4  C   LIG    1        2.404   0.028  -0.022  0.00  0.00    +0.046 A 
ATOM      5  C   LIG    1        1.225  -0.683  -0.014  0.00  0.00    +0.018 A 
ATOM      6  C   LIG    1        0.002  -0.004   0.002  0.00  0.00    +0.059 A 
ENDROOT
BRANCH   6   7
ATOM      7  C   LIG    1       -1.262  -0.760   0.011  0.00  0.00    +0.337 C 
ATOM      8  O   LIG    1       -2.330  -0.165   0.024  0.00  0.00    -0.245 OA
BRANCH   7   9
ATOM      9  O   LIG    1       -1.243  -1.983   0.004  0.00  0.00    -0.477 OA
ATOM     10  H   LIG    1       -0.424  -2.439  -0.007  0.00  0.00    +0.295 HD
ENDBRANCH   7   9
ENDBRANCH   6   7
BRANCH   3  11
ATOM     11  O   LIG    1        3.545   2.114  -0.021  0.00  0.00    -0.490 OA
BRANCH  11  12
ATOM     12  C   LIG    1        4.755   1.355  -0.037  0.00  0.00    +0.250 C 
BRANCH  12  13
ATOM     13  C   LIG    1        5.954   2.305  -0.044  0.00  0.00    +0.163 C 
BRANCH  13  14
ATOM     14  N   LIG    1        7.194   1.526  -0.061  0.00  0.00    -0.334 N 
ATOM     15  C   LIG    1        7.890   1.084   1.032  0.00  0.00    +0.107 A 
ATOM     16  C   LIG    1        8.961   0.413   0.566  0.00  0.00    +0.130 A 
ATOM     17  N   LIG    1        8.920   0.445  -0.774  0.00  0.00    -0.244 NA
ATOM     18  C   LIG    1        7.862   1.106  -1.157  0.00  0.00    +0.199 A 
ENDBRANCH  13  14
ENDBRANCH  12  13
ENDBRANCH  11  12
ENDBRANCH   3  11
TORSDOF 6
