REMARK  Name = ZINC29056295
REMARK                            x       y       z     vdW  Elec       q    Type
REMARK                         _______ _______ _______ _____ _____    ______ ____
ROOT
ATOM      1  C   LIG    1        1.246  -2.159  -0.023  0.00  0.00    +0.004 A 
ATOM      2  C   LIG    1        0.942  -2.930   1.185  0.00  0.00    +0.028 A 
ATOM      3  C   LIG    1        0.616  -2.286   2.386  0.00  0.00    +0.031 A 
ATOM      4  C   LIG    1        0.336  -3.025   3.497  0.00  0.00    +0.061 A 
ATOM      5 BR   LIG    1       -0.105  -2.156   5.118  0.00  0.00    -0.046 Br
ATOM      6  C   LIG    1        0.373  -4.420   3.445  0.00  0.00    +0.148 A 
ATOM      7  C   LIG    1        0.693  -5.074   2.266  0.00  0.00    +0.103 A 
ATOM      8 BR   LIG    1        0.739  -6.963   2.214  0.00  0.00    -0.043 Br
ATOM      9  C   LIG    1        0.981  -4.339   1.124  0.00  0.00    +0.154 A 
ATOM     10  O   LIG    1        1.293  -4.966  -0.028  0.00  0.00    -0.452 OA
ATOM     11  C   LIG    1        1.579  -4.293  -1.162  0.00  0.00    +0.154 A 
ATOM     12  C   LIG    1        1.892  -4.992  -2.312  0.00  0.00    +0.108 A 
ATOM     13 BR   LIG    1        1.917  -6.883  -2.293  0.00  0.00    -0.042 Br
ATOM     14  C   LIG    1        2.189  -4.298  -3.492  0.00  0.00    +0.210 A 
ATOM     15  C   LIG    1        2.172  -2.887  -3.513  0.00  0.00    +0.066 A 
ATOM     16 BR   LIG    1        2.576  -1.964  -5.113  0.00  0.00    -0.046 Br
ATOM     17  C   LIG    1        1.867  -2.192  -2.389  0.00  0.00    +0.031 A 
ATOM     18  O   LIG    1        2.466  -4.920  -4.511  0.00  0.00    -0.285 OA
ATOM     19  C   LIG    1        1.560  -2.877  -1.197  0.00  0.00    +0.028 A 
ENDROOT
BRANCH   1  24
ATOM     20  C   LIG    1       -0.017   1.377   0.010  0.00  0.00    +0.001 A 
ATOM     21  C   LIG    1        1.167   2.095   0.002  0.00  0.00    +0.001 A 
ATOM     22  C   LIG    1        2.384   1.440  -0.013  0.00  0.00    +0.015 A 
ATOM     23  C   LIG    1        2.425   0.047  -0.022  0.00  0.00    +0.067 A 
ATOM     24  C   LIG    1        1.220  -0.685  -0.014  0.00  0.00    -0.003 A 
ATOM     25  C   LIG    1        0.002  -0.004   0.002  0.00  0.00    +0.009 A 
BRANCH  23  26
ATOM     26  C   LIG    1        3.722  -0.657  -0.039  0.00  0.00    +0.337 C 
ATOM     27  O   LIG    1        4.765  -0.019  -0.047  0.00  0.00    -0.245 OA
BRANCH  26  28
ATOM     28  O   LIG    1        3.753  -1.880  -0.046  0.00  0.00    -0.477 OA
ATOM     29  H   LIG    1        2.954  -2.369  -0.041  0.00  0.00    +0.295 HD
ENDBRANCH  26  28
ENDBRANCH  23  26
ENDBRANCH   1  24
BRANCH   6  30
ATOM     30  O   LIG    1        0.092  -5.142   4.559  0.00  0.00    -0.504 OA
ATOM     31  H   LIG    1       -0.843  -5.365   4.658  0.00  0.00    +0.292 HD
ENDBRANCH   6  30
TORSDOF 4
