REMARK  Name = ZINC16052819
REMARK                            x       y       z     vdW  Elec       q    Type
REMARK                         _______ _______ _______ _____ _____    ______ ____
ROOT
ATOM      1  C   LIG    1        0.657  -2.152   3.304  0.00  0.00    +0.211 C 
ENDROOT
BRANCH   1   3
ATOM      2  C   LIG    1        0.448  -1.110   1.112  0.00  0.00    +0.226 C 
ATOM      3  N   LIG    1        0.751  -0.989   2.420  0.00  0.00    -0.293 N 
ATOM      4  H   LIG    1        1.032  -0.131   2.775  0.00  0.00    +0.151 HD
ATOM      5  O   LIG    1        0.097  -2.182   0.668  0.00  0.00    -0.275 OA
BRANCH   2   6
ATOM      6  C   LIG    1        0.544   0.087   0.202  0.00  0.00    +0.135 C 
BRANCH   6  10
ATOM      7  C   LIG    1        4.557   1.553   0.199  0.00  0.00    +0.000 A 
ATOM      8  C   LIG    1        3.505   2.418   0.440  0.00  0.00    +0.000 A 
ATOM      9  C   LIG    1        2.207   1.943   0.441  0.00  0.00    +0.005 A 
ATOM     10  C   LIG    1        1.960   0.605   0.201  0.00  0.00    -0.031 A 
ATOM     11  C   LIG    1        3.011  -0.261  -0.035  0.00  0.00    +0.005 A 
ATOM     12  C   LIG    1        4.310   0.214  -0.041  0.00  0.00    +0.000 A 
ENDBRANCH   6  10
BRANCH   6  13
ATOM     13  C   LIG    1        0.154  -0.313  -1.198  0.00  0.00    -0.031 A 
ATOM     14  C   LIG    1        0.786  -1.377  -1.813  0.00  0.00    +0.005 A 
ATOM     15  C   LIG    1        0.424  -1.748  -3.095  0.00  0.00    +0.000 A 
ATOM     16  C   LIG    1       -0.560  -1.047  -3.765  0.00  0.00    +0.000 A 
ATOM     17  C   LIG    1       -1.188   0.021  -3.152  0.00  0.00    +0.000 A 
ATOM     18  C   LIG    1       -0.831   0.388  -1.868  0.00  0.00    +0.005 A 
ENDBRANCH   6  13
ENDBRANCH   2   6
ENDBRANCH   1   3
BRANCH   1  19
ATOM     19  C   LIG    1        1.899  -2.217   4.196  0.00  0.00    +0.225 C 
ATOM     20 CL   LIG    1        3.371  -2.363   3.165  0.00  0.00    -0.080 Cl
ATOM     21 CL   LIG    1        1.783  -3.650   5.284  0.00  0.00    -0.080 Cl
ATOM     22 CL   LIG    1        2.006  -0.715   5.187  0.00  0.00    -0.080 Cl
ENDBRANCH   1  19
BRANCH   1  23
ATOM     23  N   LIG    1       -0.539  -2.034   4.142  0.00  0.00    -0.305 N 
ATOM     24  H   LIG    1       -0.550  -1.412   4.886  0.00  0.00    +0.150 HD
BRANCH  23  25
ATOM     25  C   LIG    1       -1.624  -2.788   3.878  0.00  0.00    +0.136 C 
ATOM     26  S   LIG    1       -1.605  -3.885   2.563  0.00  0.00    -0.019 S 
BRANCH  25  27
ATOM     27  N   LIG    1       -2.725  -2.679   4.648  0.00  0.00    -0.297 N 
ATOM     28  H   LIG    1       -2.766  -2.002   5.341  0.00  0.00    +0.154 HD
BRANCH  27  29
ATOM     29  C   LIG    1       -3.808  -3.543   4.447  0.00  0.00    +0.035 A 
ATOM     30  C   LIG    1       -5.107  -3.054   4.505  0.00  0.00    +0.026 A 
ATOM     31  C   LIG    1       -6.174  -3.907   4.301  0.00  0.00    +0.042 A 
ATOM     32  C   LIG    1       -5.950  -5.250   4.050  0.00  0.00    +0.153 A 
ATOM     33  F   LIG    1       -6.995  -6.084   3.855  0.00  0.00    -0.203 F 
ATOM     34  C   LIG    1       -4.656  -5.741   3.998  0.00  0.00    +0.158 A 
ATOM     35  C   LIG    1       -3.586  -4.890   4.196  0.00  0.00    +0.058 A 
BRANCH  34  36
ATOM     36  N   LIG    1       -4.420  -7.177   3.729  0.00  0.00    +0.009 N 
ATOM     37  O   LIG    1       -3.282  -7.609   3.683  0.00  0.00    -0.130 OA
BRANCH  36  38
ATOM     38  O   LIG    1       -5.363  -7.927   3.555  0.00  0.00    -0.396 OA
ATOM     39  H   LIG    1       -6.239  -7.595   3.591  0.00  0.00    +0.329 HD
ENDBRANCH  36  38
ENDBRANCH  34  36
ENDBRANCH  27  29
ENDBRANCH  25  27
ENDBRANCH  23  25
ENDBRANCH   1  23
TORSDOF 11
