REMARK  Name = ZINC48548065
REMARK                            x       y       z     vdW  Elec       q    Type
REMARK                         _______ _______ _______ _____ _____    ______ ____
ROOT
ATOM      1  C   LIG    1        2.512  -3.859   4.335  0.00  0.00    +0.203 C 
ATOM      2  C   LIG    1        3.063  -4.485   5.458  0.00  0.00    +0.151 C 
ENDROOT
BRANCH   1   3
ATOM      3  N   LIG    1        2.540  -2.503   4.231  0.00  0.00    -0.285 N 
ATOM      4  H   LIG    1        3.013  -1.975   4.893  0.00  0.00    +0.155 HD
BRANCH   3   8
ATOM      5  C   LIG    1        0.594  -0.617   1.062  0.00  0.00    +0.120 A 
ATOM      6  C   LIG    1        1.767  -0.080   1.574  0.00  0.00    +0.047 A 
ATOM      7  C   LIG    1        2.412  -0.704   2.623  0.00  0.00    +0.027 A 
ATOM      8  C   LIG    1        1.886  -1.869   3.167  0.00  0.00    +0.034 A 
ATOM      9  C   LIG    1        0.713  -2.406   2.654  0.00  0.00    +0.027 A 
ATOM     10  C   LIG    1        0.066  -1.778   1.608  0.00  0.00    +0.047 A 
BRANCH   5  12
ATOM     11  C   LIG    1        0.560   1.189  -0.484  0.00  0.00    +0.277 C 
ATOM     12  O   LIG    1       -0.040  -0.002   0.029  0.00  0.00    -0.495 OA
ENDBRANCH   5  12
ENDBRANCH   3   8
ENDBRANCH   1   3
BRANCH   2  13
ATOM     13  C   LIG    1        3.034  -5.889   5.566  0.00  0.00    +0.181 C 
ATOM     14  O   LIG    1        2.530  -6.557   4.684  0.00  0.00    -0.291 OA
BRANCH  13  15
ATOM     15  C   LIG    1        3.628  -6.564   6.776  0.00  0.00    +0.061 C 
ATOM     16  C   LIG    1        4.487  -7.808   6.540  0.00  0.00    +0.012 C 
ATOM     17  C   LIG    1        3.090  -7.947   7.149  0.00  0.00    +0.012 C 
ENDBRANCH  13  15
ENDBRANCH   2  13
BRANCH   2  18
ATOM     18  C   LIG    1        3.657  -3.699   6.497  0.00  0.00    +0.108 C 
ATOM     19  N   LIG    1        4.128  -3.075   7.321  0.00  0.00    -0.191 NA
ENDBRANCH   2  18
BRANCH   1  20
ATOM     20  O   LIG    1        1.954  -4.598   3.359  0.00  0.00    -0.494 OA
ATOM     21  H   LIG    1        1.584  -4.179   2.607  0.00  0.00    +0.294 HD
ENDBRANCH   1  20
TORSDOF 7
