REMARK  Name = ZINC40393647
REMARK                            x       y       z     vdW  Elec       q    Type
REMARK                         _______ _______ _______ _____ _____    ______ ____
ROOT
ATOM      1  C   LIG    1       -0.526  -0.371   2.561  0.00  0.00    +0.263 C 
ATOM      2  N   LIG    1       -0.392   0.954   2.768  0.00  0.00    -0.299 N 
ATOM      3  C   LIG    1       -0.611   1.893   1.665  0.00  0.00    +0.132 C 
ATOM      4  O   LIG    1       -0.492  -1.141   3.502  0.00  0.00    -0.268 OA
ENDROOT
BRANCH   1  14
ATOM      5  C   LIG    1       -0.310  -3.332   1.715  0.00  0.00    +0.149 C 
ATOM      6  N   LIG    1       -0.617  -2.213   0.821  0.00  0.00    -0.339 N 
ATOM      7  C   LIG    1       -0.861  -2.310  -0.529  0.00  0.00    +0.049 A 
ATOM      8  C   LIG    1       -0.898  -3.383  -1.415  0.00  0.00    +0.026 A 
ATOM      9  C   LIG    1       -1.178  -3.163  -2.745  0.00  0.00    +0.002 A 
ATOM     10  C   LIG    1       -1.424  -1.878  -3.213  0.00  0.00    +0.001 A 
ATOM     11  C   LIG    1       -1.393  -0.811  -2.364  0.00  0.00    +0.010 A 
ATOM     12  C   LIG    1       -1.111  -1.009  -1.006  0.00  0.00    +0.001 A 
ATOM     13  C   LIG    1       -1.008  -0.135   0.103  0.00  0.00    +0.041 A 
ATOM     14  C   LIG    1       -0.714  -0.887   1.196  0.00  0.00    +0.105 A 
ENDBRANCH   1  14
BRANCH   2  15
ATOM     15  C   LIG    1       -0.027   1.454   4.095  0.00  0.00    +0.108 C 
BRANCH  15  16
ATOM     16  C   LIG    1        1.496   1.542   4.207  0.00  0.00    +0.024 C 
BRANCH  16  17
ATOM     17  C   LIG    1        1.877   2.065   5.593  0.00  0.00    +0.036 C 
BRANCH  17  18
ATOM     18  C   LIG    1        3.378   2.151   5.703  0.00  0.00    -0.047 A 
ATOM     19  C   LIG    1        4.101   1.066   6.162  0.00  0.00    +0.003 A 
ATOM     20  C   LIG    1        5.477   1.145   6.262  0.00  0.00    +0.000 A 
ATOM     21  C   LIG    1        6.130   2.310   5.903  0.00  0.00    +0.000 A 
ATOM     22  C   LIG    1        5.407   3.394   5.443  0.00  0.00    +0.000 A 
ATOM     23  C   LIG    1        4.031   3.314   5.339  0.00  0.00    +0.003 A 
ENDBRANCH  17  18
ENDBRANCH  16  17
ENDBRANCH  15  16
ENDBRANCH   2  15
TORSDOF 5
