REMARK  Name = ZINC29395371
REMARK                            x       y       z     vdW  Elec       q    Type
REMARK                         _______ _______ _______ _____ _____    ______ ____
ROOT
ATOM      1  C   LIG    1        1.170   2.088   0.002  0.00  0.00    +0.009 A 
ATOM      2  C   LIG    1        2.377   1.417  -0.013  0.00  0.00    +0.046 A 
ATOM      3  C   LIG    1        2.399   0.030  -0.020  0.00  0.00    +0.121 A 
ATOM      4  C   LIG    1        1.207  -0.680  -0.013  0.00  0.00    +0.046 A 
ATOM      5  C   LIG    1        0.002  -0.004   0.002  0.00  0.00    +0.009 A 
ATOM      6  C   LIG    1       -0.017   1.378   0.010  0.00  0.00    -0.028 A 
ENDROOT
BRANCH   3   7
ATOM      7  O   LIG    1        3.586  -0.632  -0.035  0.00  0.00    -0.481 OA
BRANCH   7   8
ATOM      8  C   LIG    1        4.772   0.164  -0.042  0.00  0.00    +0.349 C 
BRANCH   8   9
ATOM      9  C   LIG    1        5.981  -0.737  -0.059  0.00  0.00    +0.343 C 
ATOM     10  O   LIG    1        5.840  -1.937  -0.064  0.00  0.00    -0.247 OA
BRANCH   9  11
ATOM     11  O   LIG    1        7.213  -0.206  -0.068  0.00  0.00    -0.478 OA
ATOM     12  H   LIG    1        7.323   0.725  -0.064  0.00  0.00    +0.295 HD
ENDBRANCH   9  11
ENDBRANCH   8   9
ENDBRANCH   7   8
ENDBRANCH   3   7
BRANCH   6  13
ATOM     13  C   LIG    1       -1.333   2.113   0.020  0.00  0.00    +0.157 C 
BRANCH  13  14
ATOM     14  N   LIG    1       -1.752   2.343   1.404  0.00  0.00    -0.332 N 
ATOM     15  C   LIG    1       -1.448   3.433   2.175  0.00  0.00    +0.107 A 
ATOM     16  C   LIG    1       -2.032   3.239   3.373  0.00  0.00    +0.130 A 
ATOM     17  N   LIG    1       -2.675   2.062   3.335  0.00  0.00    -0.244 NA
ATOM     18  C   LIG    1       -2.517   1.523   2.157  0.00  0.00    +0.199 A 
ENDBRANCH  13  14
ENDBRANCH   6  13
TORSDOF 6
