REMARK  Name = ZINC18096411
REMARK                            x       y       z     vdW  Elec       q    Type
REMARK                         _______ _______ _______ _____ _____    ______ ____
ROOT
ATOM      1  C   LIG    1        0.035  -0.655   2.369  0.00  0.00    +0.401 C 
ATOM      2  N   LIG    1        0.649  -1.163   3.413  0.00  0.00    -0.072 NA
ENDROOT
BRANCH   2   3
ATOM      3  C   LIG    1        1.978  -1.471   3.342  0.00  0.00    +0.145 A 
ATOM      4  C   LIG    1        2.924  -0.500   2.985  0.00  0.00    +0.065 A 
ATOM      5  C   LIG    1        4.254  -0.854   2.926  0.00  0.00    +0.114 A 
ATOM      6  N   LIG    1        4.640  -2.087   3.199  0.00  0.00    -0.263 NA
ATOM      7  C   LIG    1        3.783  -3.032   3.539  0.00  0.00    +0.114 A 
ATOM      8  C   LIG    1        2.434  -2.765   3.629  0.00  0.00    +0.065 A 
ENDBRANCH   2   3
BRANCH   1   9
ATOM      9  N   LIG    1        0.694  -0.548   1.171  0.00  0.00    -0.272 N 
ATOM     10  H   LIG    1        1.629  -0.799   1.109  0.00  0.00    +0.258 HD
BRANCH   9  12
ATOM     11  C   LIG    1        0.018   1.474  -0.026  0.00  0.00    +0.048 C 
ATOM     12  C   LIG    1       -0.013  -0.055  -0.013  0.00  0.00    +0.147 C 
BRANCH  12  13
ATOM     13  C   LIG    1        0.668  -0.591  -1.274  0.00  0.00    -0.005 C 
ATOM     14  C   LIG    1       -0.071  -0.076  -2.510  0.00  0.00    +0.014 C 
ATOM     15  C   LIG    1        0.636  -2.120  -1.260  0.00  0.00    +0.014 C 
ATOM     16  C   LIG    1        2.121  -0.111  -1.311  0.00  0.00    +0.014 C 
ENDBRANCH  12  13
ENDBRANCH   9  12
ENDBRANCH   1   9
BRANCH   1  17
ATOM     17  N   LIG    1       -1.269  -0.230   2.476  0.00  0.00    -0.177 N 
ATOM     18  H   LIG    1       -1.722   0.145   1.705  0.00  0.00    +0.278 HD
BRANCH  17  19
ATOM     19  C   LIG    1       -1.920  -0.335   3.660  0.00  0.00    +0.255 C 
ATOM     20  N   LIG    1       -2.466  -0.424   4.652  0.00  0.00    -0.154 NA
ENDBRANCH  17  19
ENDBRANCH   1  17
TORSDOF 6
