REMARK  Name = ZINC20983598
REMARK                            x       y       z     vdW  Elec       q    Type
REMARK                         _______ _______ _______ _____ _____    ______ ____
ROOT
ATOM      1  N   LIG    1       -1.238   2.075   0.019  0.00  0.00    -0.278 N 
ATOM      2  H   LIG    1       -2.182   1.518  -0.071  0.00  0.00    +0.155 HD
ATOM      3  C   LIG    1       -1.256   3.418   0.128  0.00  0.00    +0.252 C 
ATOM      4  O   LIG    1       -0.212   4.042   0.127  0.00  0.00    -0.270 OA
ENDROOT
BRANCH   1  10
ATOM      5  C   LIG    1        3.511   1.889   1.278  0.00  0.00    +0.044 C 
ATOM      6  C   LIG    1        2.302   1.275   0.621  0.00  0.00    -0.048 A 
ATOM      7  C   LIG    1        2.401   0.036   0.015  0.00  0.00    +0.007 A 
ATOM      8  C   LIG    1        1.295  -0.532  -0.590  0.00  0.00    +0.047 A 
ATOM      9  C   LIG    1        0.083   0.140  -0.590  0.00  0.00    +0.138 A 
ATOM     10  C   LIG    1       -0.017   1.388   0.021  0.00  0.00    +0.076 A 
ATOM     11  C   LIG    1        1.097   1.952   0.626  0.00  0.00    +0.030 A 
BRANCH   9  12
ATOM     12  O   LIG    1       -1.005  -0.417  -1.185  0.00  0.00    -0.505 OA
ATOM     13  H   LIG    1       -1.967   0.117  -1.184  0.00  0.00    +0.292 HD
ENDBRANCH   9  12
ENDBRANCH   1  10
BRANCH   3  14
ATOM     14  C   LIG    1       -2.542   4.131   0.249  0.00  0.00    +0.080 A 
ATOM     15  C   LIG    1       -3.743   3.418   0.246  0.00  0.00    +0.036 A 
ATOM     16  C   LIG    1       -4.941   4.091   0.364  0.00  0.00    +0.042 A 
ATOM     17 CL   LIG    1       -6.434   3.204   0.366  0.00  0.00    -0.084 Cl
ATOM     18  C   LIG    1       -4.959   5.472   0.476  0.00  0.00    +0.023 A 
ATOM     19  C   LIG    1       -3.779   6.188   0.476  0.00  0.00    +0.048 A 
ATOM     20  C   LIG    1       -2.565   5.527   0.363  0.00  0.00    +0.132 A 
BRANCH  20  21
ATOM     21  O   LIG    1       -1.404   6.230   0.362  0.00  0.00    -0.494 OA
ATOM     22  C   LIG    1       -1.506   7.651   0.482  0.00  0.00    +0.277 C 
ENDBRANCH  20  21
ENDBRANCH   3  14
TORSDOF 4
