REMARK  Name = ZINC34638188
REMARK                            x       y       z     vdW  Elec       q    Type
REMARK                         _______ _______ _______ _____ _____    ______ ____
ROOT
ATOM      1  C   LIG    1       -1.879   3.070   2.781  0.00  0.00    +0.136 A 
ATOM      2  C   LIG    1       -3.210   3.486   2.852  0.00  0.00    +0.113 A 
ATOM      3  C   LIG    1       -3.474   4.837   2.954  0.00  0.00    +0.130 A 
ATOM      4  N   LIG    1       -2.463   5.694   2.981  0.00  0.00    -0.222 NA
ATOM      5  C   LIG    1       -1.210   5.272   2.912  0.00  0.00    +0.221 A 
ATOM      6  N   LIG    1       -0.915   3.984   2.819  0.00  0.00    -0.199 NA
ENDROOT
BRANCH   2   7
ATOM      7  C   LIG    1       -4.334   2.482   2.817  0.00  0.00    +0.422 C 
ATOM      8  F   LIG    1       -4.207   1.602   3.897  0.00  0.00    -0.166 F 
ATOM      9  F   LIG    1       -4.279   1.761   1.619  0.00  0.00    -0.166 F 
ATOM     10  F   LIG    1       -5.560   3.151   2.902  0.00  0.00    -0.166 F 
ENDBRANCH   2   7
BRANCH   1  11
ATOM     11  N   LIG    1       -1.567   1.724   2.677  0.00  0.00    -0.324 N 
ATOM     12  H   LIG    1       -2.276   1.063   2.650  0.00  0.00    +0.148 HD
BRANCH  11  13
ATOM     13  C   LIG    1       -0.167   1.299   2.610  0.00  0.00    +0.141 C 
BRANCH  13  15
ATOM     14  C   LIG    1       -0.257  -0.829   1.269  0.00  0.00    +0.144 A 
ATOM     15  C   LIG    1       -0.102  -0.203   2.502  0.00  0.00    +0.011 A 
ATOM     16  C   LIG    1        0.113  -0.977   3.627  0.00  0.00    +0.010 A 
ATOM     17  C   LIG    1        0.166  -2.358   3.482  0.00  0.00    +0.020 A 
ATOM     18  C   LIG    1        0.004  -2.912   2.228  0.00  0.00    +0.113 A 
ATOM     19  N   LIG    1       -0.206  -2.148   1.172  0.00  0.00    -0.239 NA
BRANCH  14  21
ATOM     20  C   LIG    1        0.656   0.576  -0.550  0.00  0.00    +0.159 C 
ATOM     21  N   LIG    1       -0.474  -0.062   0.130  0.00  0.00    -0.193 N 
BRANCH  21  22
ATOM     22  S   LIG    1       -2.010   0.130  -0.458  0.00  0.00    +0.044 S 
ATOM     23  C   LIG    1       -2.239  -1.242  -1.623  0.00  0.00    +0.218 C 
ATOM     24  O   LIG    1       -1.978   1.366  -1.159  0.00  0.00    -0.155 OA
ATOM     25  O   LIG    1       -2.855  -0.041   0.671  0.00  0.00    -0.155 OA
ENDBRANCH  21  22
ENDBRANCH  14  21
ENDBRANCH  13  15
ENDBRANCH  11  13
ENDBRANCH   1  11
BRANCH   5  26
ATOM     26  N   LIG    1       -0.182   6.199   2.944  0.00  0.00    -0.284 N 
ATOM     27  H   LIG    1        0.740   5.901   2.976  0.00  0.00    +0.155 HD
BRANCH  26  28
ATOM     28  C   LIG    1       -0.474   7.569   2.929  0.00  0.00    +0.034 A 
ATOM     29  C   LIG    1        0.356   8.466   3.589  0.00  0.00    +0.025 A 
ATOM     30  C   LIG    1        0.071   9.815   3.576  0.00  0.00    +0.025 A 
ATOM     31  C   LIG    1       -1.053  10.289   2.900  0.00  0.00    +0.037 A 
ATOM     32  C   LIG    1       -1.876   9.384   2.243  0.00  0.00    -0.016 A 
ATOM     33  C   LIG    1       -2.988  10.195   1.618  0.00  0.00    +0.133 C 
ATOM     34  C   LIG    1       -2.669  11.622   2.012  0.00  0.00    +0.222 C 
ATOM     35  O   LIG    1       -3.309  12.610   1.720  0.00  0.00    -0.275 OA
ATOM     36  N   LIG    1       -1.544  11.588   2.746  0.00  0.00    -0.285 N 
ATOM     37  H   LIG    1       -1.122  12.374   3.125  0.00  0.00    +0.155 HD
ATOM     38  C   LIG    1       -1.592   8.037   2.249  0.00  0.00    +0.029 A 
ENDBRANCH  26  28
ENDBRANCH   5  26
TORSDOF 8
