REMARK  Name = ZINC22032760
REMARK                            x       y       z     vdW  Elec       q    Type
REMARK                         _______ _______ _______ _____ _____    ______ ____
ROOT
ATOM      1  C   LIG    1        1.453  -3.974  -0.034  0.00  0.00    +0.092 C 
ATOM      2  C   LIG    1        2.193  -4.407   1.191  0.00  0.00    +0.060 C 
ATOM      3  C   LIG    1        2.040  -5.865   1.472  0.00  0.00    -0.032 A 
ATOM      4  C   LIG    1        1.166  -6.278   2.471  0.00  0.00    +0.005 A 
ATOM      5  C   LIG    1        0.993  -7.628   2.714  0.00  0.00    +0.000 A 
ATOM      6  C   LIG    1        1.679  -8.569   1.968  0.00  0.00    +0.001 A 
ATOM      7  C   LIG    1        2.558  -8.158   0.983  0.00  0.00    +0.015 A 
ATOM      8  C   LIG    1        2.737  -6.797   0.762  0.00  0.00    +0.016 A 
ATOM      9  S   LIG    1        3.914  -6.233  -0.416  0.00  0.00    -0.089 S 
ATOM     10  C   LIG    1        3.012  -5.326  -1.618  0.00  0.00    +0.018 A 
ATOM     11  C   LIG    1        3.361  -5.595  -2.954  0.00  0.00    +0.017 A 
ATOM     12  C   LIG    1        2.764  -4.947  -4.004  0.00  0.00    +0.021 A 
ATOM     13  C   LIG    1        1.792  -3.997  -3.740  0.00  0.00    +0.041 A 
ATOM     14 CL   LIG    1        1.026  -3.142  -5.042  0.00  0.00    -0.084 Cl
ATOM     15  C   LIG    1        1.438  -3.737  -2.438  0.00  0.00    +0.026 A 
ATOM     16  C   LIG    1        2.031  -4.403  -1.354  0.00  0.00    -0.015 A 
ENDROOT
BRANCH   1  22
ATOM     17  C   LIG    1        1.717   1.547   1.058  0.00  0.00    -0.096 C 
ATOM     18  N   LIG    1        1.817   0.082   1.098  0.00  0.00    +0.379 N 
ATOM     19  H   LIG    1        2.273  -0.200   1.953  0.00  0.00    -0.082 HD
ATOM     20  C   LIG    1        0.470  -0.502   1.046  0.00  0.00    -0.064 C 
ATOM     21  C   LIG    1        0.573  -2.027   1.107  0.00  0.00    +0.066 C 
ATOM     22  N   LIG    1        1.378  -2.507  -0.025  0.00  0.00    -0.299 NA
ATOM     23  C   LIG    1        2.721  -1.911  -0.000  0.00  0.00    +0.066 C 
ATOM     24  C   LIG    1        2.601  -0.386  -0.052  0.00  0.00    -0.064 C 
ENDBRANCH   1  22
TORSDOF 1
