REMARK  Name = ZINC15280332
REMARK                            x       y       z     vdW  Elec       q    Type
REMARK                         _______ _______ _______ _____ _____    ______ ____
ROOT
ATOM      1  C   LIG    1       -1.167  -0.886   0.009  0.00  0.00    +0.253 C 
ATOM      2  C   LIG    1       -1.530  -1.287   1.456  0.00  0.00    +0.195 C 
ATOM      3  C   LIG    1       -3.075  -1.315   1.462  0.00  0.00    +0.178 C 
ATOM      4  C   LIG    1       -3.463  -0.928   0.017  0.00  0.00    +0.178 C 
ATOM      5  O   LIG    1       -2.329  -0.185  -0.485  0.00  0.00    -0.346 OA
ENDROOT
BRANCH   1  16
ATOM      6  C   LIG    1       -0.016   1.361   0.009  0.00  0.00    +0.203 A 
ATOM      7  N   LIG    1        1.201   1.818   0.000  0.00  0.00    -0.229 NA
ATOM      8  C   LIG    1        2.071   0.779  -0.013  0.00  0.00    +0.172 A 
ATOM      9  C   LIG    1        3.482   0.675  -0.028  0.00  0.00    +0.280 A 
ATOM     10  N   LIG    1        4.034  -0.558  -0.040  0.00  0.00    -0.293 N 
ATOM     11  C   LIG    1        3.242  -1.668  -0.038  0.00  0.00    +0.195 A 
ATOM     12  N   LIG    1        1.931  -1.584  -0.025  0.00  0.00    -0.196 NA
ATOM     13  H   LIG    1        4.999  -0.655  -0.049  0.00  0.00    +0.172 HD
ATOM     14  O   LIG    1        4.182   1.673  -0.029  0.00  0.00    -0.265 OA
ATOM     15  C   LIG    1        1.313  -0.398  -0.013  0.00  0.00    +0.171 A 
ATOM     16  N   LIG    1        0.002  -0.004   0.002  0.00  0.00    -0.285 N 
BRANCH  11  17
ATOM     17  N   LIG    1        3.831  -2.907  -0.050  0.00  0.00    -0.329 N 
ATOM     18  H   LIG    1        3.280  -3.706  -0.049  0.00  0.00    +0.145 HD
ATOM     19  H   LIG    1        4.798  -2.985  -0.060  0.00  0.00    +0.145 HD
ENDBRANCH  11  17
ENDBRANCH   1  16
BRANCH   2  20
ATOM     20  O   LIG    1       -1.002  -2.579   1.765  0.00  0.00    -0.385 OA
ATOM     21  H   LIG    1       -1.200  -2.880   2.662  0.00  0.00    +0.210 HD
ENDBRANCH   2  20
BRANCH   3  22
ATOM     22  O   LIG    1       -3.551  -2.625   1.777  0.00  0.00    -0.386 OA
ATOM     23  H   LIG    1       -3.284  -2.941   2.651  0.00  0.00    +0.210 HD
ENDBRANCH   3  22
BRANCH   4  24
ATOM     24  C   LIG    1       -4.718  -0.053   0.019  0.00  0.00    +0.206 C 
BRANCH  24  25
ATOM     25  O   LIG    1       -5.127   0.197  -1.327  0.00  0.00    -0.284 OA
BRANCH  25  26
ATOM     26  P   LIG    1       -6.416   1.085  -1.702  0.00  0.00    +0.483 P 
ATOM     27  O   LIG    1       -7.660   0.515  -0.985  0.00  0.00    -0.227 OA
BRANCH  26  28
ATOM     28  O   LIG    1       -6.184   2.545  -1.251  0.00  0.00    -0.302 OA
ATOM     29  H   LIG    1       -6.043   2.568  -0.291  0.00  0.00    +0.222 HD
ENDBRANCH  26  28
BRANCH  26  30
ATOM     30  O   LIG    1       -6.650   1.046  -3.294  0.00  0.00    -0.186 OA
BRANCH  30  31
ATOM     31  P   LIG    1       -7.880   1.443  -4.254  0.00  0.00    +0.491 P 
ATOM     32  O   LIG    1       -9.208   1.001  -3.598  0.00  0.00    -0.226 OA
BRANCH  31  33
ATOM     33  O   LIG    1       -7.896   2.973  -4.467  0.00  0.00    -0.302 OA
ATOM     34  H   LIG    1       -7.997   3.417  -3.610  0.00  0.00    +0.222 HD
ENDBRANCH  31  33
BRANCH  31  35
ATOM     35  O   LIG    1       -7.712   0.705  -5.675  0.00  0.00    -0.200 OA
BRANCH  35  36
ATOM     36  P   LIG    1       -8.699   0.431  -6.917  0.00  0.00    +0.394 P 
ATOM     37  O   LIG    1       -9.909  -0.402  -6.439  0.00  0.00    -0.246 OA
BRANCH  36  38
ATOM     38  S   LIG    1       -7.659  -0.634  -8.426  0.00  0.00    -0.058 S 
ATOM     39  H   LIG    1       -8.574  -0.801  -9.397  0.00  0.00    +0.114 HD
ENDBRANCH  36  38
BRANCH  36  40
ATOM     40  O   LIG    1       -9.195   1.779  -7.487  0.00  0.00    -0.316 OA
ATOM     41  H   LIG    1       -9.671   2.267  -6.797  0.00  0.00    +0.221 HD
ENDBRANCH  36  40
ENDBRANCH  35  36
ENDBRANCH  31  35
ENDBRANCH  30  31
ENDBRANCH  26  30
ENDBRANCH  25  26
ENDBRANCH  24  25
ENDBRANCH   4  24
TORSDOF 15
