REMARK  Name = ZINC28951701
REMARK                            x       y       z     vdW  Elec       q    Type
REMARK                         _______ _______ _______ _____ _____    ______ ____
ROOT
ATOM      1  C   LIG    1        0.002  -0.004   0.002  0.00  0.00    +0.080 A 
ATOM      2  C   LIG    1        1.202  -0.659  -0.013  0.00  0.00    +0.077 A 
ATOM      3  S   LIG    1        2.335   0.725  -0.016  0.00  0.00    -0.059 S 
ATOM      4  C   LIG    1        1.104   2.021   0.002  0.00  0.00    +0.178 A 
ATOM      5  N   LIG    1       -0.016   1.321   0.009  0.00  0.00    -0.224 NA
ENDROOT
BRANCH   1  12
ATOM      6  C   LIG    1       -1.245  -2.163  -0.004  0.00  0.00    +0.011 A 
ATOM      7  C   LIG    1       -2.429  -2.871   0.007  0.00  0.00    +0.020 A 
ATOM      8  C   LIG    1       -3.640  -2.199   0.022  0.00  0.00    +0.041 A 
ATOM      9 CL   LIG    1       -5.126  -3.095   0.029  0.00  0.00    -0.084 Cl
ATOM     10  C   LIG    1       -3.668  -0.815   0.031  0.00  0.00    +0.020 A 
ATOM     11  C   LIG    1       -2.490  -0.098   0.025  0.00  0.00    +0.011 A 
ATOM     12  C   LIG    1       -1.268  -0.770   0.009  0.00  0.00    +0.001 A 
ENDBRANCH   1  12
BRANCH   4  13
ATOM     13  N   LIG    1        1.279   3.396   0.007  0.00  0.00    -0.215 N 
ATOM     14  H   LIG    1        0.403   4.061   0.018  0.00  0.00    +0.176 HD
BRANCH  13  15
ATOM     15  N   LIG    1        2.571   3.938  -0.002  0.00  0.00    -0.190 NA
ATOM     16  C   LIG    1        2.732   5.207   0.003  0.00  0.00    +0.037 C 
ATOM     17  C   LIG    1        1.635   6.252   0.011  0.00  0.00    +0.052 C 
ATOM     18  C   LIG    1        2.329   7.630   0.007  0.00  0.00    +0.006 C 
ATOM     19  C   LIG    1        3.723   7.336  -0.602  0.00  0.00    +0.006 C 
ATOM     20  C   LIG    1        4.059   5.946  -0.006  0.00  0.00    +0.052 C 
ENDBRANCH  13  15
ENDBRANCH   4  13
TORSDOF 3
