REMARK  Name = ZINC26580090
REMARK                            x       y       z     vdW  Elec       q    Type
REMARK                         _______ _______ _______ _____ _____    ______ ____
ROOT
ATOM      1  C   LIG    1        0.764   7.085  -0.957  0.00  0.00    +0.027 A 
ATOM      2  C   LIG    1        0.716   7.533  -2.265  0.00  0.00    +0.017 A 
ATOM      3  C   LIG    1        0.584   8.879  -2.496  0.00  0.00    +0.017 A 
ATOM      4  C   LIG    1        0.516   9.735  -1.411  0.00  0.00    +0.027 A 
ATOM      5  S   LIG    1        0.633   8.607  -0.033  0.00  0.00    -0.087 S 
ENDROOT
BRANCH   1   8
ATOM      6  C   LIG    1        1.073   3.904   1.070  0.00  0.00    +0.014 A 
ATOM      7  C   LIG    1        0.951   5.258   0.850  0.00  0.00    +0.017 A 
ATOM      8  C   LIG    1        0.897   5.709  -0.456  0.00  0.00    +0.026 A 
ATOM      9  S   LIG    1        1.030   4.184  -1.376  0.00  0.00    -0.090 S 
ATOM     10  C   LIG    1        1.147   3.062   0.008  0.00  0.00    +0.016 A 
BRANCH  10  11
ATOM     11  C   LIG    1        1.286   1.562  -0.002  0.00  0.00    +0.198 C 
BRANCH  11  12
ATOM     12  O   LIG    1       -0.011   0.963   0.007  0.00  0.00    -0.390 OA
ATOM     13  H   LIG    1       -0.111  -0.133   0.002  0.00  0.00    +0.210 HD
ENDBRANCH  11  12
ENDBRANCH  10  11
ENDBRANCH   1   8
BRANCH   4  14
ATOM     14  C   LIG    1        0.380  11.200  -1.397  0.00  0.00    +0.026 A 
ATOM     15  C   LIG    1        0.311  12.059  -0.316  0.00  0.00    +0.017 A 
ATOM     16  C   LIG    1        0.184  13.408  -0.559  0.00  0.00    +0.014 A 
ATOM     17  C   LIG    1        0.131  13.850  -1.841  0.00  0.00    +0.016 A 
ATOM     18  S   LIG    1        0.270  12.333  -2.772  0.00  0.00    -0.090 S 
BRANCH  17  19
ATOM     19  C   LIG    1       -0.005  15.262  -2.349  0.00  0.00    +0.198 C 
BRANCH  19  20
ATOM     20  O   LIG    1        1.294  15.832  -2.523  0.00  0.00    -0.390 OA
ATOM     21  H   LIG    1        1.396  16.864  -2.890  0.00  0.00    +0.210 HD
ENDBRANCH  19  20
ENDBRANCH  17  19
ENDBRANCH   4  14
TORSDOF 6
