REMARK  Name = ZINC34417080
REMARK                            x       y       z     vdW  Elec       q    Type
REMARK                         _______ _______ _______ _____ _____    ______ ____
ROOT
ATOM      1  C   LIG    1        0.287   1.284   0.297  0.00  0.00    +0.238 C 
ATOM      2  N   LIG    1        0.259  -0.172   0.138  0.00  0.00    -0.165 N 
ATOM      3  C   LIG    1       -0.855  -0.931   0.212  0.00  0.00    +0.317 C 
ATOM      4  C   LIG    1       -0.379  -2.353  -0.016  0.00  0.00    +0.177 C 
ATOM      5  N   LIG    1        1.073  -2.213  -0.208  0.00  0.00    -0.266 N 
ATOM      6  H   LIG    1        1.700  -2.933  -0.379  0.00  0.00    +0.259 HD
ATOM      7  O   LIG    1       -1.990  -0.557   0.416  0.00  0.00    -0.253 OA
ATOM      8  C   LIG    1        1.361  -0.952  -0.114  0.00  0.00    +0.337 C 
ENDROOT
BRANCH   8   9
ATOM      9  N   LIG    1        2.633  -0.450  -0.247  0.00  0.00    -0.254 N 
ATOM     10  H   LIG    1        3.375  -1.050  -0.425  0.00  0.00    +0.241 HD
ATOM     11  H   LIG    1        2.790   0.503  -0.164  0.00  0.00    +0.241 HD
ENDBRANCH   8   9
BRANCH   4  12
ATOM     12  C   LIG    1       -1.032  -2.943  -1.267  0.00  0.00    +0.058 C 
BRANCH  12  13
ATOM     13  C   LIG    1       -0.525  -2.201  -2.505  0.00  0.00    -0.007 C 
ATOM     14  C   LIG    1       -1.085  -0.777  -2.511  0.00  0.00    +0.004 C 
ATOM     15  C   LIG    1       -0.578  -0.036  -3.750  0.00  0.00    +0.000 C 
ATOM     16  C   LIG    1       -1.040  -0.771  -5.010  0.00  0.00    +0.000 C 
ATOM     17  C   LIG    1       -0.480  -2.195  -5.003  0.00  0.00    +0.000 C 
ATOM     18  C   LIG    1       -0.988  -2.937  -3.765  0.00  0.00    +0.004 C 
ENDBRANCH  12  13
ENDBRANCH   4  12
BRANCH   4  19
ATOM     19  C   LIG    1       -0.678  -3.221   1.208  0.00  0.00    +0.055 C 
BRANCH  19  20
ATOM     20  C   LIG    1        0.028  -2.636   2.433  0.00  0.00    +0.008 C 
BRANCH  20  21
ATOM     21  C   LIG    1       -0.271  -3.504   3.657  0.00  0.00    -0.011 C 
ATOM     22  C   LIG    1       -1.765  -3.434   3.979  0.00  0.00    +0.003 C 
ATOM     23  C   LIG    1       -2.063  -4.303   5.203  0.00  0.00    +0.000 C 
ATOM     24  C   LIG    1       -1.259  -3.791   6.400  0.00  0.00    +0.000 C 
ATOM     25  C   LIG    1        0.235  -3.861   6.077  0.00  0.00    +0.000 C 
ATOM     26  C   LIG    1        0.534  -2.993   4.854  0.00  0.00    +0.003 C 
ENDBRANCH  20  21
ENDBRANCH  19  20
ENDBRANCH   4  19
TORSDOF 6
