REMARK  Name = ZINC26259661
REMARK                            x       y       z     vdW  Elec       q    Type
REMARK                         _______ _______ _______ _____ _____    ______ ____
ROOT
ATOM      1  C   LIG    1       -0.017   1.379   0.010  0.00  0.00    +0.017 A 
ATOM      2  C   LIG    1        1.169   2.088   0.002  0.00  0.00    +0.041 A 
ATOM      3  C   LIG    1        2.378   1.409  -0.012  0.00  0.00    +0.098 A 
ATOM      4  C   LIG    1        2.394   0.018  -0.013  0.00  0.00    +0.022 A 
ATOM      5  C   LIG    1        3.716  -0.721  -0.003  0.00  0.00    +0.227 C 
ATOM      6  N   LIG    1        4.695   0.122  -0.690  0.00  0.00    -0.212 N 
ATOM      7  C   LIG    1        5.873  -0.238  -1.473  0.00  0.00    +0.305 C 
ATOM      8  C   LIG    1        6.444   1.113  -1.870  0.00  0.00    +0.341 C 
ATOM      9  N   LIG    1        5.628   2.028  -1.346  0.00  0.00    -0.005 NA
ATOM     10  O   LIG    1        7.443   1.318  -2.531  0.00  0.00    -0.251 OA
ATOM     11  C   LIG    1        4.633   1.495  -0.684  0.00  0.00    +0.370 C 
ATOM     12  C   LIG    1        1.208  -0.684  -0.010  0.00  0.00    +0.024 A 
ATOM     13  N   LIG    1        3.592   2.123  -0.034  0.00  0.00    -0.207 N 
ATOM     14  H   LIG    1        3.688   2.996   0.379  0.00  0.00    +0.251 HD
ATOM     15  C   LIG    1        0.002  -0.004   0.002  0.00  0.00    +0.014 A 
ATOM     16  I   LIG    1       -1.800  -1.073   0.009  0.00  0.00    -0.044 I 
ENDROOT
TORSDOF 0
