REMARK  Name = ZINC71318229
REMARK                            x       y       z     vdW  Elec       q    Type
REMARK                         _______ _______ _______ _____ _____    ______ ____
ROOT
ATOM      1  C   LIG    1       -0.018   1.503   0.010  0.00  0.00    +0.066 C 
ATOM      2  C   LIG    1        0.002  -0.004   0.002  0.00  0.00    +0.042 A 
ATOM      3  C   LIG    1       -1.205  -0.719   0.004  0.00  0.00    +0.046 A 
ATOM      4  C   LIG    1       -1.177  -2.074  -0.004  0.00  0.00    +0.044 A 
ATOM      5  C   LIG    1       -2.460  -2.864  -0.002  0.00  0.00    +0.066 C 
ATOM      6  N   LIG    1        0.029  -2.713  -0.014  0.00  0.00    -0.217 N 
ATOM      7  C   LIG    1        1.189  -1.981  -0.015  0.00  0.00    +0.182 A 
ATOM      8  C   LIG    1        2.240  -2.889  -0.026  0.00  0.00    +0.160 A 
ATOM      9  C   LIG    1        1.693  -4.164  -0.030  0.00  0.00    +0.088 A 
ATOM     10  C   LIG    1        2.476  -5.451  -0.042  0.00  0.00    +0.069 C 
ATOM     11  N   LIG    1        0.383  -4.067  -0.023  0.00  0.00    -0.168 NA
ATOM     12  N   LIG    1        1.149  -0.642  -0.012  0.00  0.00    -0.231 NA
ENDROOT
BRANCH   8  13
ATOM     13  S   LIG    1        3.957  -2.493  -0.033  0.00  0.00    +0.030 S 
ATOM     14  O   LIG    1        4.070  -1.186  -0.577  0.00  0.00    -0.164 OA
ATOM     15  O   LIG    1        4.629  -3.613  -0.593  0.00  0.00    -0.164 OA
BRANCH  13  16
ATOM     16  C   LIG    1        4.473  -2.385   1.648  0.00  0.00    +0.094 A 
ATOM     17  C   LIG    1        4.402  -1.178   2.317  0.00  0.00    +0.027 A 
ATOM     18  C   LIG    1        4.807  -1.093   3.636  0.00  0.00    +0.002 A 
ATOM     19  C   LIG    1        5.284  -2.216   4.286  0.00  0.00    +0.000 A 
ATOM     20  C   LIG    1        5.354  -3.424   3.618  0.00  0.00    +0.002 A 
ATOM     21  C   LIG    1        4.945  -3.510   2.300  0.00  0.00    +0.027 A 
ENDBRANCH  13  16
ENDBRANCH   8  13
TORSDOF 2
