REMARK  Name = ZINC00018377
REMARK                            x       y       z     vdW  Elec       q    Type
REMARK                         _______ _______ _______ _____ _____    ______ ____
ROOT
ATOM      1  O   LIG    1        1.144   3.397   0.009  0.00  0.00    -0.492 OA
ENDROOT
BRANCH   1   4
ATOM      2  C   LIG    1        2.351  -0.032  -0.020  0.00  0.00    +0.023 A 
ATOM      3  C   LIG    1        2.378   1.353  -0.013  0.00  0.00    +0.048 A 
ATOM      4  C   LIG    1        1.168   2.038   0.002  0.00  0.00    +0.138 A 
ATOM      5  C   LIG    1       -0.016   1.314   0.009  0.00  0.00    +0.156 A 
ATOM      6  N   LIG    1        0.002  -0.004   0.002  0.00  0.00    -0.260 NA
ATOM      7  C   LIG    1        1.132  -0.683  -0.012  0.00  0.00    +0.111 A 
ENDBRANCH   1   4
BRANCH   1   8
ATOM      8  C   LIG    1       -0.140   4.024   0.024  0.00  0.00    +0.213 C 
BRANCH   8   9
ATOM      9  C   LIG    1        0.035   5.544   0.030  0.00  0.00    -0.035 C 
ATOM     10  N   LIG    1        0.174   6.144   1.261  0.00  0.00    +0.383 N 
ATOM     11  H   LIG    1       -0.218   5.580   2.025  0.00  0.00    -0.085 HD
ATOM     12  H   LIG    1        1.148   6.384   1.478  0.00  0.00    -0.085 HD
ATOM     13  C   LIG    1       -0.593   7.250   0.968  0.00  0.00    -0.084 C 
ATOM     14  C   LIG    1       -1.294   6.312  -0.025  0.00  0.00    -0.032 C 
ENDBRANCH   8   9
ENDBRANCH   1   8
TORSDOF 3
