REMARK  Name = ZINC14960724
REMARK                            x       y       z     vdW  Elec       q    Type
REMARK                         _______ _______ _______ _____ _____    ______ ____
ROOT
ATOM      1  C   LIG    1       -0.459  -5.286   0.901  0.00  0.00    +0.106 A 
ATOM      2  C   LIG    1       -1.304  -5.855  -0.047  0.00  0.00    +0.029 A 
ATOM      3  C   LIG    1       -0.972  -7.017  -0.677  0.00  0.00    +0.012 A 
ATOM      4  C   LIG    1        0.241  -7.646  -0.366  0.00  0.00    +0.007 A 
ATOM      5  C   LIG    1        1.101  -7.065   0.599  0.00  0.00    +0.047 A 
ATOM      6  C   LIG    1        2.359  -7.747   0.900  0.00  0.00    +0.240 A 
ATOM      7  N   LIG    1        2.646  -8.876   0.264  0.00  0.00    -0.220 NA
ATOM      8  C   LIG    1        1.835  -9.410  -0.636  0.00  0.00    +0.135 A 
ATOM      9  C   LIG    1        0.645  -8.848  -0.982  0.00  0.00    +0.067 A 
ATOM     10 CL   LIG    1       -0.368  -9.606  -2.171  0.00  0.00    -0.081 Cl
ATOM     11  C   LIG    1        0.731  -5.871   1.223  0.00  0.00    +0.042 A 
ENDROOT
BRANCH   1  12
ATOM     12  S   LIG    1       -0.928  -3.783   1.693  0.00  0.00    +0.061 S 
ATOM     13  O   LIG    1       -2.346  -3.712   1.620  0.00  0.00    -0.153 OA
ATOM     14  O   LIG    1       -0.226  -3.738   2.927  0.00  0.00    -0.153 OA
BRANCH  12  19
ATOM     15  C   LIG    1        0.209   1.540  -0.047  0.00  0.00    +0.105 C 
ATOM     16  N   LIG    1        0.191   0.071  -0.046  0.00  0.00    -0.303 NA
ATOM     17  C   LIG    1       -1.185  -0.438  -0.136  0.00  0.00    +0.101 C 
ATOM     18  C   LIG    1       -1.152  -1.960  -0.314  0.00  0.00    +0.125 C 
ATOM     19  N   LIG    1       -0.344  -2.539   0.769  0.00  0.00    -0.174 NA
ATOM     20  C   LIG    1        0.997  -1.986   1.010  0.00  0.00    +0.125 C 
ATOM     21  C   LIG    1        0.880  -0.463   1.136  0.00  0.00    +0.101 C 
ENDBRANCH  12  19
ENDBRANCH   1  12
BRANCH   6  22
ATOM     22  N   LIG    1        3.221  -7.232   1.818  0.00  0.00    -0.052 NA
ATOM     23  C   LIG    1        3.070  -7.517   3.095  0.00  0.00    +0.384 C 
BRANCH  23  24
ATOM     24  N   LIG    1        3.863  -6.908   4.030  0.00  0.00    -0.289 N 
ATOM     25  H   LIG    1        3.753  -7.118   4.971  0.00  0.00    +0.255 HD
ATOM     26  H   LIG    1        4.536  -6.266   3.752  0.00  0.00    +0.255 HD
ENDBRANCH  23  24
BRANCH  23  27
ATOM     27  N   LIG    1        2.121  -8.423   3.487  0.00  0.00    -0.289 N 
ATOM     28  H   LIG    1        1.957  -8.576   4.431  0.00  0.00    +0.255 HD
ATOM     29  H   LIG    1        1.612  -8.911   2.821  0.00  0.00    +0.255 HD
ENDBRANCH  23  27
ENDBRANCH   6  22
TORSDOF 5
