REMARK  Name = ZINC29056295
REMARK                            x       y       z     vdW  Elec       q    Type
REMARK                         _______ _______ _______ _____ _____    ______ ____
ROOT
ATOM      1  C   LIG    1        1.246  -2.159  -0.023  0.00  0.00    +0.004 A 
ATOM      2  C   LIG    1        1.580  -2.888   1.145  0.00  0.00    +0.028 A 
ATOM      3  C   LIG    1        1.893  -2.217   2.339  0.00  0.00    +0.031 A 
ATOM      4  C   LIG    1        2.212  -2.929   3.454  0.00  0.00    +0.061 A 
ATOM      5 BR   LIG    1        2.634  -2.024   5.060  0.00  0.00    -0.046 Br
ATOM      6  C   LIG    1        2.229  -4.331   3.418  0.00  0.00    +0.148 A 
ATOM      7  C   LIG    1        1.922  -5.011   2.245  0.00  0.00    +0.103 A 
ATOM      8 BR   LIG    1        1.950  -6.901   2.210  0.00  0.00    -0.043 Br
ATOM      9  C   LIG    1        1.595  -4.300   1.101  0.00  0.00    +0.154 A 
ATOM     10  O   LIG    1        1.295  -4.955  -0.040  0.00  0.00    -0.452 OA
ATOM     11  C   LIG    1        0.972  -4.297  -1.173  0.00  0.00    +0.154 A 
ATOM     12  C   LIG    1        0.669  -5.005  -2.325  0.00  0.00    +0.108 A 
ATOM     13 BR   LIG    1        0.710  -6.895  -2.314  0.00  0.00    -0.042 Br
ATOM     14  C   LIG    1        0.336  -4.322  -3.490  0.00  0.00    +0.210 A 
ATOM     15  C   LIG    1        0.303  -2.920  -3.508  0.00  0.00    +0.066 A 
ATOM     16 BR   LIG    1       -0.153  -2.011  -5.102  0.00  0.00    -0.046 Br
ATOM     17  C   LIG    1        0.598  -2.211  -2.385  0.00  0.00    +0.031 A 
ATOM     18  O   LIG    1        0.041  -5.012  -4.608  0.00  0.00    -0.285 OA
ATOM     19  C   LIG    1        0.932  -2.885  -1.198  0.00  0.00    +0.028 A 
ENDROOT
BRANCH   1  24
ATOM     20  C   LIG    1       -0.017   1.377   0.010  0.00  0.00    +0.001 A 
ATOM     21  C   LIG    1        1.167   2.095   0.002  0.00  0.00    +0.001 A 
ATOM     22  C   LIG    1        2.384   1.440  -0.013  0.00  0.00    +0.015 A 
ATOM     23  C   LIG    1        2.425   0.047  -0.022  0.00  0.00    +0.067 A 
ATOM     24  C   LIG    1        1.220  -0.685  -0.014  0.00  0.00    -0.003 A 
ATOM     25  C   LIG    1        0.002  -0.004   0.002  0.00  0.00    +0.009 A 
BRANCH  23  26
ATOM     26  C   LIG    1        3.722  -0.657  -0.040  0.00  0.00    +0.337 C 
ATOM     27  O   LIG    1        4.765  -0.019  -0.047  0.00  0.00    -0.245 OA
BRANCH  26  28
ATOM     28  O   LIG    1        3.754  -1.880  -0.047  0.00  0.00    -0.477 OA
ATOM     29  H   LIG    1        2.955  -2.369  -0.041  0.00  0.00    +0.295 HD
ENDBRANCH  26  28
ENDBRANCH  23  26
ENDBRANCH   1  24
BRANCH   6  30
ATOM     30  O   LIG    1        2.547  -5.024   4.529  0.00  0.00    -0.504 OA
ATOM     31  H   LIG    1        2.755  -4.569   5.321  0.00  0.00    +0.292 HD
ENDBRANCH   6  30
TORSDOF 4
