REMARK  Name = ZINC22454208
REMARK                            x       y       z     vdW  Elec       q    Type
REMARK                         _______ _______ _______ _____ _____    ______ ____
ROOT
ATOM      1  N   LIG    1       -3.292  -2.274  -1.790  0.00  0.00    -0.299 N 
ATOM      2  H   LIG    1       -2.777  -1.709  -2.388  0.00  0.00    +0.150 HD
ATOM      3  C   LIG    1       -4.554  -2.620  -2.110  0.00  0.00    +0.321 C 
ATOM      4  N   LIG    1       -5.103  -2.181  -3.260  0.00  0.00    -0.246 N 
ATOM      5  C   LIG    1       -6.410  -2.528  -3.597  0.00  0.00    +0.065 A 
ATOM      6  C   LIG    1       -6.757  -3.863  -3.746  0.00  0.00    +0.027 A 
ATOM      7  C   LIG    1       -8.042  -4.207  -4.118  0.00  0.00    +0.002 A 
ATOM      8  C   LIG    1       -8.989  -3.223  -4.348  0.00  0.00    +0.001 A 
ATOM      9  C   LIG    1       -8.665  -1.893  -4.191  0.00  0.00    +0.015 A 
ATOM     10  C   LIG    1       -7.373  -1.530  -3.796  0.00  0.00    +0.063 A 
ATOM     11  C   LIG    1       -7.057  -0.119  -3.543  0.00  0.00    +0.258 A 
ATOM     12  N   LIG    1       -5.911   0.483  -3.826  0.00  0.00    -0.319 N 
ATOM     13  H   LIG    1       -5.842   1.419  -3.581  0.00  0.00    +0.169 HD
ATOM     14  C   LIG    1       -4.796  -0.083  -4.438  0.00  0.00    +0.085 A 
ATOM     15  C   LIG    1       -4.080   0.660  -5.371  0.00  0.00    +0.031 A 
ATOM     16  C   LIG    1       -2.947   0.115  -5.926  0.00  0.00    +0.022 A 
ATOM     17  C   LIG    1       -2.554  -1.151  -5.542  0.00  0.00    +0.113 A 
ATOM     18  N   LIG    1       -3.261  -1.846  -4.673  0.00  0.00    -0.235 NA
ATOM     19  O   LIG    1       -7.925   0.558  -3.028  0.00  0.00    -0.267 OA
ATOM     20  C   LIG    1       -4.372  -1.367  -4.129  0.00  0.00    +0.165 A 
ATOM     21  O   LIG    1       -5.199  -3.328  -1.360  0.00  0.00    -0.249 OA
ENDROOT
BRANCH   1  22
ATOM     22  C   LIG    1       -2.695  -2.751  -0.540  0.00  0.00    +0.087 C 
BRANCH  22  23
ATOM     23  C   LIG    1       -1.266  -2.218  -0.420  0.00  0.00    -0.059 C 
BRANCH  23  29
ATOM     24  C   LIG    1        0.746  -2.306   0.879  0.00  0.00    -0.054 C 
ATOM     25  C   LIG    1        1.394  -2.872   2.145  0.00  0.00    -0.014 C 
ATOM     26  C   LIG    1        0.669  -2.317   3.374  0.00  0.00    -0.003 C 
ATOM     27  C   LIG    1       -0.819  -2.665   3.278  0.00  0.00    -0.019 C 
ATOM     28  C   LIG    1       -1.385  -2.107   1.971  0.00  0.00    -0.078 C 
ATOM     29  N   LIG    1       -0.668  -2.696   0.833  0.00  0.00    +0.383 N 
ATOM     30  H   LIG    1       -0.740  -3.702   0.876  0.00  0.00    -0.081 HD
BRANCH  24  31
ATOM     31  C   LIG    1        1.467  -2.858  -0.352  0.00  0.00    +0.069 C 
BRANCH  31  32
ATOM     32  N   LIG    1        2.867  -2.414  -0.340  0.00  0.00    -0.304 NA
BRANCH  32  33
ATOM     33  C   LIG    1        3.679  -3.206  -1.274  0.00  0.00    +0.084 C 
BRANCH  33  35
ATOM     34  C   LIG    1        4.747  -5.430  -1.668  0.00  0.00    +0.005 C 
ATOM     35  C   LIG    1        3.892  -4.608  -0.701  0.00  0.00    +0.012 C 
ENDBRANCH  33  35
ENDBRANCH  32  33
BRANCH  32  36
ATOM     36  C   LIG    1        2.967  -0.979  -0.642  0.00  0.00    +0.084 C 
BRANCH  36  37
ATOM     37  C   LIG    1        4.396  -0.501  -0.378  0.00  0.00    +0.012 C 
ATOM     38  C   LIG    1        4.500   0.993  -0.692  0.00  0.00    +0.005 C 
ENDBRANCH  36  37
ENDBRANCH  32  36
ENDBRANCH  31  32
ENDBRANCH  24  31
ENDBRANCH  23  29
ENDBRANCH  22  23
ENDBRANCH   1  22
TORSDOF 9
