REMARK  Name = ZINC35323259
REMARK                            x       y       z     vdW  Elec       q    Type
REMARK                         _______ _______ _______ _____ _____    ______ ____
ROOT
ATOM      1  C   LIG    1       -0.103  -0.639   6.005  0.00  0.00    +0.035 A 
ATOM      2  C   LIG    1       -0.076  -2.029   6.001  0.00  0.00    +0.024 A 
ATOM      3  C   LIG    1       -0.051  -2.723   7.192  0.00  0.00    +0.010 A 
ATOM      4  C   LIG    1       -0.053  -2.028   8.402  0.00  0.00    -0.017 A 
ATOM      5  C   LIG    1       -0.080  -0.633   8.403  0.00  0.00    +0.010 A 
ATOM      6  C   LIG    1       -0.099   0.055   7.209  0.00  0.00    +0.024 A 
ENDROOT
BRANCH   4   7
ATOM      7  C   LIG    1       -0.026  -2.770   9.683  0.00  0.00    -0.005 A 
ATOM      8  C   LIG    1       -0.911  -3.806   9.917  0.00  0.00    +0.009 A 
ATOM      9  C   LIG    1       -0.897  -4.512  11.117  0.00  0.00    +0.003 A 
ATOM     10  C   LIG    1       -0.027  -4.233  12.118  0.00  0.00    +0.028 A 
ATOM     11  C   LIG    1        0.918  -3.194  11.979  0.00  0.00    +0.066 A 
ATOM     12  N   LIG    1        1.869  -2.694  12.747  0.00  0.00    -0.298 N 
ATOM     13  H   LIG    1        2.092  -3.004  13.639  0.00  0.00    +0.187 HD
ATOM     14  N   LIG    1        2.513  -1.656  12.065  0.00  0.00    -0.286 N 
ATOM     15  H   LIG    1        3.248  -1.130  12.416  0.00  0.00    +0.188 HD
ATOM     16  C   LIG    1        1.954  -1.489  10.853  0.00  0.00    +0.118 A 
ATOM     17  C   LIG    1        0.940  -2.427  10.724  0.00  0.00    +0.046 A 
BRANCH  16  18
ATOM     18  N   LIG    1        2.324  -0.548   9.904  0.00  0.00    -0.343 N 
ATOM     19  H   LIG    1        3.050   0.068  10.089  0.00  0.00    +0.144 HD
ATOM     20  H   LIG    1        1.857  -0.506   9.055  0.00  0.00    +0.144 HD
ENDBRANCH  16  18
ENDBRANCH   4   7
BRANCH   1  24
ATOM     21  N   LIG    1       -0.721   0.172   2.540  0.00  0.00    -0.269 N 
ATOM     22  H   LIG    1       -0.153   0.951   2.428  0.00  0.00    +0.156 HD
ATOM     23  C   LIG    1       -0.782  -0.450   3.734  0.00  0.00    +0.308 C 
ATOM     24  N   LIG    1       -0.129   0.061   4.795  0.00  0.00    -0.269 N 
ATOM     25  H   LIG    1        0.324   0.916   4.720  0.00  0.00    +0.156 HD
ATOM     26  O   LIG    1       -1.428  -1.474   3.853  0.00  0.00    -0.252 OA
BRANCH  21  33
ATOM     27  C   LIG    1       -1.718   2.060   0.659  0.00  0.00    +0.045 C 
ATOM     28  C   LIG    1       -1.982   0.583   0.521  0.00  0.00    -0.029 A 
ATOM     29  C   LIG    1       -2.722   0.108  -0.544  0.00  0.00    +0.005 A 
ATOM     30  C   LIG    1       -2.964  -1.247  -0.671  0.00  0.00    +0.000 A 
ATOM     31  C   LIG    1       -2.466  -2.132   0.268  0.00  0.00    +0.002 A 
ATOM     32  C   LIG    1       -1.725  -1.665   1.335  0.00  0.00    +0.023 A 
ATOM     33  C   LIG    1       -1.476  -0.304   1.463  0.00  0.00    +0.038 A 
ENDBRANCH  21  33
ENDBRANCH   1  24
TORSDOF 4
