REMARK  Name = ZINC19632696
REMARK                            x       y       z     vdW  Elec       q    Type
REMARK                         _______ _______ _______ _____ _____    ______ ____
ROOT
ATOM      1  C   LIG    1        4.108  -3.119  -0.047  0.00  0.00    +0.119 C 
ENDROOT
BRANCH   1   5
ATOM      2  N   LIG    1       -0.068  -3.179  -0.464  0.00  0.00    -0.325 N 
ATOM      3  C   LIG    1        0.471  -3.370   0.891  0.00  0.00    +0.120 C 
ATOM      4  C   LIG    1        1.907  -2.838   0.924  0.00  0.00    +0.103 C 
ATOM      5  N   LIG    1        2.685  -3.471  -0.150  0.00  0.00    -0.297 NA
ATOM      6  C   LIG    1        2.151  -3.122  -1.473  0.00  0.00    +0.103 C 
ATOM      7  C   LIG    1        0.721  -3.671  -1.603  0.00  0.00    +0.120 C 
BRANCH   2  13
ATOM      8  C   LIG    1       -1.361  -1.168  -0.840  0.00  0.00    +0.141 A 
ATOM      9  C   LIG    1       -2.584  -0.551  -1.043  0.00  0.00    +0.047 A 
ATOM     10  C   LIG    1       -3.744  -1.304  -1.066  0.00  0.00    +0.004 A 
ATOM     11  C   LIG    1       -3.687  -2.674  -0.886  0.00  0.00    +0.002 A 
ATOM     12  C   LIG    1       -2.470  -3.297  -0.683  0.00  0.00    +0.027 A 
ATOM     13  C   LIG    1       -1.302  -2.549  -0.664  0.00  0.00    +0.072 A 
BRANCH   8  15
ATOM     14  C   LIG    1       -0.357   0.982  -1.004  0.00  0.00    +0.277 C 
ATOM     15  O   LIG    1       -0.220  -0.428  -0.817  0.00  0.00    -0.493 OA
ENDBRANCH   8  15
ENDBRANCH   2  13
ENDBRANCH   1   5
BRANCH   1  16
ATOM     16  C   LIG    1        4.750  -3.916   1.091  0.00  0.00    +0.166 C 
BRANCH  16  17
ATOM     17  O   LIG    1        4.678  -5.311   0.794  0.00  0.00    -0.387 OA
ATOM     18  H   LIG    1        5.131  -5.564  -0.022  0.00  0.00    +0.210 HD
ENDBRANCH  16  17
BRANCH  16  19
ATOM     19  C   LIG    1        6.214  -3.500   1.241  0.00  0.00    +0.261 C 
BRANCH  19  20
ATOM     20  O   LIG    1        6.782  -4.158   2.376  0.00  0.00    -0.489 OA
BRANCH  20  21
ATOM     21  C   LIG    1        8.086  -3.896   2.652  0.00  0.00    +0.128 A 
ATOM     22  C   LIG    1        8.796  -3.034   1.865  0.00  0.00    +0.046 A 
ATOM     23  C   LIG    1       10.133  -2.756   2.134  0.00  0.00    +0.004 A 
ATOM     24  C   LIG    1       10.772  -3.333   3.189  0.00  0.00    +0.009 A 
ATOM     25  C   LIG    1       10.076  -4.225   4.023  0.00  0.00    -0.014 A 
ATOM     26  C   LIG    1       10.705  -4.839   5.120  0.00  0.00    +0.008 A 
ATOM     27  C   LIG    1        9.996  -5.687   5.914  0.00  0.00    +0.001 A 
ATOM     28  C   LIG    1        8.657  -5.968   5.648  0.00  0.00    +0.001 A 
ATOM     29  C   LIG    1        8.018  -5.396   4.591  0.00  0.00    +0.012 A 
ATOM     30  C   LIG    1        8.714  -4.508   3.756  0.00  0.00    +0.024 A 
ENDBRANCH  20  21
ENDBRANCH  19  20
ENDBRANCH  16  19
ENDBRANCH   1  16
TORSDOF 8
