REMARK  Name = ZINC55760827
REMARK                            x       y       z     vdW  Elec       q    Type
REMARK                         _______ _______ _______ _____ _____    ______ ____
ROOT
ATOM      1  N   LIG    1        1.086  -6.456  -3.775  0.00  0.00    -0.281 N 
ATOM      2  H   LIG    1        1.025  -6.834  -2.884  0.00  0.00    +0.155 HD
ENDROOT
BRANCH   1   8
ATOM      3  C   LIG    1       -0.861  -3.499  -3.365  0.00  0.00    +0.147 A 
ATOM      4  C   LIG    1       -0.884  -3.012  -4.675  0.00  0.00    +0.099 A 
ATOM      5 CL   LIG    1       -1.725  -1.543  -5.061  0.00  0.00    -0.078 Cl
ATOM      6  C   LIG    1       -0.224  -3.728  -5.655  0.00  0.00    +0.137 A 
ATOM      7  N   LIG    1        0.408  -4.846  -5.327  0.00  0.00    -0.221 NA
ATOM      8  C   LIG    1        0.414  -5.283  -4.077  0.00  0.00    +0.221 A 
ATOM      9  N   LIG    1       -0.203  -4.624  -3.107  0.00  0.00    -0.198 NA
BRANCH   3  10
ATOM     10  N   LIG    1       -1.510  -2.815  -2.348  0.00  0.00    -0.297 N 
ATOM     11  H   LIG    1       -2.043  -2.031  -2.554  0.00  0.00    +0.154 HD
BRANCH  10  17
ATOM     12  C   LIG    1       -1.362  -2.334   0.013  0.00  0.00    +0.110 A 
ATOM     13  C   LIG    1       -1.255  -2.772   1.319  0.00  0.00    +0.029 A 
ATOM     14  C   LIG    1       -1.177  -4.126   1.591  0.00  0.00    +0.002 A 
ATOM     15  C   LIG    1       -1.206  -5.045   0.558  0.00  0.00    +0.002 A 
ATOM     16  C   LIG    1       -1.312  -4.614  -0.749  0.00  0.00    +0.025 A 
ATOM     17  C   LIG    1       -1.396  -3.255  -1.026  0.00  0.00    +0.058 A 
BRANCH  12  18
ATOM     18  S   LIG    1       -1.462  -0.609  -0.332  0.00  0.00    +0.001 S 
ATOM     19  O   LIG    1       -2.600  -0.473  -1.172  0.00  0.00    -0.169 OA
ATOM     20  O   LIG    1       -1.423   0.019   0.942  0.00  0.00    -0.169 OA
BRANCH  18  22
ATOM     21  C   LIG    1        0.131   1.276  -1.511  0.00  0.00    +0.032 C 
ATOM     22  C   LIG    1        0.049  -0.232  -1.262  0.00  0.00    +0.130 C 
ATOM     23  C   LIG    1        1.269  -0.682  -0.456  0.00  0.00    +0.032 C 
ENDBRANCH  18  22
ENDBRANCH  12  18
ENDBRANCH  10  17
ENDBRANCH   3  10
ENDBRANCH   1   8
BRANCH   1  24
ATOM     24  C   LIG    1        1.854  -7.097  -4.759  0.00  0.00    +0.076 A 
ATOM     25  C   LIG    1        2.374  -6.368  -5.818  0.00  0.00    +0.029 A 
ATOM     26  C   LIG    1        3.131  -6.998  -6.787  0.00  0.00    +0.025 A 
ATOM     27  C   LIG    1        3.373  -8.363  -6.703  0.00  0.00    +0.033 A 
ATOM     28  C   LIG    1        2.854  -9.097  -5.644  0.00  0.00    +0.070 A 
ATOM     29  C   LIG    1        2.100  -8.465  -4.669  0.00  0.00    +0.143 A 
BRANCH  27  30
ATOM     30  N   LIG    1        4.139  -9.000  -7.686  0.00  0.00    -0.330 N 
ATOM     31  C   LIG    1        4.797  -8.220  -8.743  0.00  0.00    +0.106 C 
ATOM     32  C   LIG    1        4.388  -8.792 -10.104  0.00  0.00    +0.038 C 
ATOM     33  C   LIG    1        4.702 -10.290 -10.139  0.00  0.00    +0.059 C 
ATOM     34  C   LIG    1        3.898 -11.007  -9.053  0.00  0.00    +0.038 C 
ATOM     35  C   LIG    1        4.306 -10.460  -7.676  0.00  0.00    +0.106 C 
BRANCH  33  36
ATOM     36  N   LIG    1        4.342 -10.835 -11.455  0.00  0.00    -0.303 NA
ATOM     37  C   LIG    1        5.032 -10.111 -12.532  0.00  0.00    +0.066 C 
ATOM     38  C   LIG    1        4.585 -10.668 -13.885  0.00  0.00    -0.064 C 
ATOM     39  N   LIG    1        4.902 -12.101 -13.953  0.00  0.00    +0.379 N 
ATOM     40  H   LIG    1        5.896 -12.231 -13.837  0.00  0.00    -0.082 HD
ATOM     41  C   LIG    1        4.490 -12.632 -15.259  0.00  0.00    -0.096 C 
ATOM     42  C   LIG    1        4.187 -12.814 -12.887  0.00  0.00    -0.064 C 
ATOM     43  C   LIG    1        4.630 -12.274 -11.526  0.00  0.00    +0.066 C 
ENDBRANCH  33  36
ENDBRANCH  27  30
BRANCH  29  44
ATOM     44  O   LIG    1        1.596  -9.181  -3.628  0.00  0.00    -0.493 OA
ATOM     45  C   LIG    1        1.888 -10.579  -3.601  0.00  0.00    +0.277 C 
ENDBRANCH  29  44
ENDBRANCH   1  24
TORSDOF 9
