REMARK  Name = ZINC35018256
REMARK                            x       y       z     vdW  Elec       q    Type
REMARK                         _______ _______ _______ _____ _____    ______ ____
ROOT
ATOM      1  C   LIG    1       -1.433  -0.534   0.013  0.00  0.00    +0.188 C 
ATOM      2  C   LIG    1       -1.416  -2.042  -0.013  0.00  0.00    +0.008 C 
ATOM      3  C   LIG    1       -1.102  -2.730   1.170  0.00  0.00    +0.031 C 
ATOM      4  C   LIG    1       -1.069  -4.087   1.170  0.00  0.00    +0.046 C 
ATOM      5  N   LIG    1       -1.094  -4.748  -0.071  0.00  0.00    -0.337 NA
ATOM      6  H   LIG    1       -0.138  -4.983  -0.293  0.00  0.00    +0.135 HD
ATOM      7  C   LIG    1       -1.768  -6.029   0.183  0.00  0.00    +0.130 C 
ATOM      8  C   LIG    1       -1.384  -6.347   1.617  0.00  0.00    -0.004 A 
ATOM      9  C   LIG    1       -1.385  -7.498   2.329  0.00  0.00    +0.017 A 
ATOM     10  C   LIG    1       -0.963  -7.447   3.675  0.00  0.00    +0.006 A 
ATOM     11  C   LIG    1       -0.929  -8.584   4.482  0.00  0.00    -0.008 C 
ATOM     12  C   LIG    1       -0.505  -8.467   5.803  0.00  0.00    +0.181 C 
ATOM     13  O   LIG    1       -0.470  -9.553   6.581  0.00  0.00    -0.288 OA
ATOM     14  C   LIG    1       -0.113  -7.221   6.332  0.00  0.00    +0.053 C 
ATOM     15  C   LIG    1       -0.132  -6.095   5.581  0.00  0.00    +0.032 C 
ATOM     16  C   LIG    1       -0.550  -6.154   4.233  0.00  0.00    +0.072 A 
ATOM     17  N   LIG    1       -0.577  -5.070   3.468  0.00  0.00    -0.245 NA
ATOM     18  C   LIG    1       -1.619  -4.113  -1.185  0.00  0.00    +0.175 C 
ATOM     19  C   LIG    1       -0.967  -5.125   2.200  0.00  0.00    +0.089 A 
ATOM     20  C   LIG    1       -1.746  -2.745  -1.165  0.00  0.00    +0.052 C 
ATOM     21  C   LIG    1       -2.254  -2.055  -2.403  0.00  0.00    +0.273 C 
ATOM     22  O   LIG    1       -1.918  -0.667  -2.379  0.00  0.00    -0.457 OA
ATOM     23  C   LIG    1       -2.167  -0.034  -1.211  0.00  0.00    +0.344 C 
ATOM     24  O   LIG    1       -2.942   0.890  -1.147  0.00  0.00    -0.247 OA
ENDROOT
BRANCH   1  26
ATOM     25  C   LIG    1       -0.019   1.526   0.010  0.00  0.00    +0.007 C 
ATOM     26  C   LIG    1        0.002  -0.004   0.002  0.00  0.00    +0.048 C 
ENDBRANCH   1  26
BRANCH   1  27
ATOM     27  O   LIG    1       -2.103  -0.080   1.191  0.00  0.00    -0.373 OA
ATOM     28  H   LIG    1       -2.154   0.883   1.268  0.00  0.00    +0.211 HD
ENDBRANCH   1  27
BRANCH  18  29
ATOM     29  O   LIG    1       -1.996  -4.820  -2.263  0.00  0.00    -0.496 OA
ATOM     30  H   LIG    1       -1.905  -5.753  -2.267  0.00  0.00    +0.293 HD
ENDBRANCH  18  29
BRANCH  11  31
ATOM     31  C   LIG    1       -1.346  -9.923   3.931  0.00  0.00    -0.039 C 
BRANCH  31  32
ATOM     32  N   LIG    1       -2.786 -10.115   4.149  0.00  0.00    +0.379 N 
ATOM     33  H   LIG    1       -2.996 -10.000   5.129  0.00  0.00    -0.082 HD
ATOM     34  C   LIG    1       -3.170 -11.467   3.720  0.00  0.00    -0.096 C 
ATOM     35  C   LIG    1       -3.536  -9.122   3.368  0.00  0.00    -0.096 C 
ENDBRANCH  31  32
ENDBRANCH  11  31
TORSDOF 5
