REMARK  Name = ZINC13827852
REMARK                            x       y       z     vdW  Elec       q    Type
REMARK                         _______ _______ _______ _____ _____    ______ ____
ROOT
ATOM      1  N   LIG    1       -4.497   1.280   0.742  0.00  0.00    -0.299 N 
ATOM      2  H   LIG    1       -5.228   1.779   0.344  0.00  0.00    +0.150 HD
ATOM      3  C   LIG    1       -3.347   1.907   1.058  0.00  0.00    +0.304 C 
ATOM      4  N   LIG    1       -3.211   3.226   0.822  0.00  0.00    -0.269 N 
ATOM      5  H   LIG    1       -3.956   3.734   0.464  0.00  0.00    +0.156 HD
ATOM      6  O   LIG    1       -2.431   1.281   1.557  0.00  0.00    -0.253 OA
ENDROOT
BRANCH   4   7
ATOM      7  C   LIG    1       -1.996   3.865   1.093  0.00  0.00    +0.042 A 
ATOM      8  C   LIG    1       -1.965   4.984   1.915  0.00  0.00    -0.023 A 
ATOM      9  C   LIG    1       -0.764   5.611   2.181  0.00  0.00    +0.006 A 
ATOM     10  C   LIG    1        0.408   5.126   1.630  0.00  0.00    +0.001 A 
ATOM     11  C   LIG    1        0.382   4.008   0.816  0.00  0.00    +0.006 A 
ATOM     12  C   LIG    1       -0.817   3.380   0.542  0.00  0.00    -0.023 A 
BRANCH   8  13
ATOM     13  C   LIG    1       -3.242   5.513   2.516  0.00  0.00    +0.015 C 
ATOM     14  C   LIG    1       -3.501   6.929   1.998  0.00  0.00    +0.012 C 
ATOM     15  C   LIG    1       -3.114   5.543   4.040  0.00  0.00    +0.012 C 
ENDBRANCH   8  13
BRANCH  12  16
ATOM     16  C   LIG    1       -0.845   2.165  -0.350  0.00  0.00    +0.015 C 
ATOM     17  C   LIG    1        0.169   1.137   0.156  0.00  0.00    +0.012 C 
ATOM     18  C   LIG    1       -0.487   2.574  -1.780  0.00  0.00    +0.012 C 
ENDBRANCH  12  16
ENDBRANCH   4   7
BRANCH   1  19
ATOM     19  C   LIG    1       -4.644  -0.155   0.999  0.00  0.00    +0.106 C 
BRANCH  19  20
ATOM     20  C   LIG    1       -6.034  -0.613   0.551  0.00  0.00    +0.019 C 
BRANCH  20  21
ATOM     21  C   LIG    1       -6.188  -2.111   0.819  0.00  0.00    +0.002 C 
BRANCH  21  22
ATOM     22  C   LIG    1       -7.577  -2.570   0.371  0.00  0.00    -0.000 C 
BRANCH  22  24
ATOM     23  C   LIG    1       -9.120  -4.526   0.192  0.00  0.00    +0.004 C 
ATOM     24  C   LIG    1       -7.731  -4.068   0.639  0.00  0.00    -0.003 C 
ENDBRANCH  22  24
ENDBRANCH  21  22
ENDBRANCH  20  21
ENDBRANCH  19  20
ENDBRANCH   1  19
TORSDOF 8
