REMARK  Name = ZINC53074512
REMARK                            x       y       z     vdW  Elec       q    Type
REMARK                         _______ _______ _______ _____ _____    ______ ____
ROOT
ATOM      1  C   LIG    1       -3.630  -0.713  -0.978  0.00  0.00    +0.163 C 
ENDROOT
BRANCH   1   3
ATOM      2  C   LIG    1       -1.412  -0.526   0.013  0.00  0.00    +0.234 C 
ATOM      3  N   LIG    1       -2.256  -0.206  -0.988  0.00  0.00    -0.302 N 
ATOM      4  H   LIG    1       -1.953   0.360  -1.716  0.00  0.00    +0.150 HD
ATOM      5  O   LIG    1       -1.790  -1.233   0.922  0.00  0.00    -0.274 OA
BRANCH   2   7
ATOM      6  C   LIG    1       -0.019   1.526   0.010  0.00  0.00    +0.038 C 
ATOM      7  C   LIG    1        0.002  -0.004   0.002  0.00  0.00    +0.156 C 
BRANCH   7   8
ATOM      8  N   LIG    1        0.711  -0.489   1.189  0.00  0.00    -0.303 N 
ATOM      9  H   LIG    1        0.213  -0.731   1.986  0.00  0.00    +0.149 HD
ATOM     10  C   LIG    1        2.054  -0.600   1.174  0.00  0.00    +0.231 C 
ATOM     11  O   LIG    1        2.676  -0.297   0.177  0.00  0.00    -0.274 OA
BRANCH  10  12
ATOM     12  C   LIG    1        2.783  -1.099   2.395  0.00  0.00    +0.142 C 
BRANCH  12  13
ATOM     13  N   LIG    1        4.192  -0.691   2.325  0.00  0.00    -0.320 NA
ATOM     14  H   LIG    1        4.279   0.314   2.351  0.00  0.00    +0.119 HD
ATOM     15  H   LIG    1        4.638  -1.071   1.503  0.00  0.00    +0.119 HD
ENDBRANCH  12  13
BRANCH  12  16
ATOM     16  C   LIG    1        2.696  -2.626   2.452  0.00  0.00    +0.063 C 
BRANCH  16  17
ATOM     17  C   LIG    1        3.317  -3.116   3.734  0.00  0.00    -0.045 A 
ATOM     18  C   LIG    1        4.666  -3.417   3.776  0.00  0.00    +0.007 A 
ATOM     19  C   LIG    1        5.238  -3.867   4.950  0.00  0.00    +0.045 A 
ATOM     20  C   LIG    1        4.458  -4.018   6.087  0.00  0.00    +0.117 A 
ATOM     21  C   LIG    1        3.105  -3.716   6.042  0.00  0.00    +0.045 A 
ATOM     22  C   LIG    1        2.539  -3.260   4.867  0.00  0.00    +0.007 A 
BRANCH  20  23
ATOM     23  O   LIG    1        5.018  -4.461   7.243  0.00  0.00    -0.507 OA
ATOM     24  H   LIG    1        5.359  -3.756   7.811  0.00  0.00    +0.292 HD
ENDBRANCH  20  23
ENDBRANCH  16  17
ENDBRANCH  12  16
ENDBRANCH  10  12
ENDBRANCH   7   8
ENDBRANCH   2   7
ENDBRANCH   1   3
BRANCH   1  25
ATOM     25  C   LIG    1       -4.158  -0.763  -2.389  0.00  0.00    +0.234 C 
ATOM     26  N   LIG    1       -5.410  -1.200  -2.624  0.00  0.00    -0.302 N 
ATOM     27  H   LIG    1       -5.973  -1.483  -1.886  0.00  0.00    +0.150 HD
ATOM     28  O   LIG    1       -3.455  -0.410  -3.312  0.00  0.00    -0.274 OA
BRANCH  26  29
ATOM     29  C   LIG    1       -5.923  -1.249  -3.996  0.00  0.00    +0.163 C 
BRANCH  29  30
ATOM     30  C   LIG    1       -6.478   0.100  -4.373  0.00  0.00    +0.231 C 
ATOM     31  N   LIG    1       -7.008   0.293  -5.597  0.00  0.00    -0.328 N 
ATOM     32  H   LIG    1       -7.365   1.162  -5.840  0.00  0.00    +0.145 HD
ATOM     33  H   LIG    1       -7.032  -0.437  -6.236  0.00  0.00    +0.145 HD
ATOM     34  O   LIG    1       -6.448   1.013  -3.575  0.00  0.00    -0.274 OA
ENDBRANCH  29  30
BRANCH  29  35
ATOM     35  C   LIG    1       -7.031  -2.300  -4.089  0.00  0.00    +0.067 C 
BRANCH  35  36
ATOM     36  C   LIG    1       -6.450  -3.667  -3.832  0.00  0.00    -0.045 A 
ATOM     37  C   LIG    1       -5.960  -4.418  -4.883  0.00  0.00    +0.004 A 
ATOM     38  C   LIG    1       -5.427  -5.672  -4.647  0.00  0.00    +0.000 A 
ATOM     39  C   LIG    1       -5.384  -6.173  -3.360  0.00  0.00    +0.000 A 
ATOM     40  C   LIG    1       -5.874  -5.421  -2.308  0.00  0.00    +0.000 A 
ATOM     41  C   LIG    1       -6.403  -4.166  -2.544  0.00  0.00    +0.004 A 
ENDBRANCH  35  36
ENDBRANCH  29  35
ENDBRANCH  26  29
ENDBRANCH   1  25
BRANCH   1  42
ATOM     42  C   LIG    1       -4.509   0.214  -0.137  0.00  0.00    +0.067 C 
BRANCH  42  43
ATOM     43  C   LIG    1       -4.057   0.170   1.300  0.00  0.00    -0.045 A 
ATOM     44  C   LIG    1       -4.600  -0.760   2.167  0.00  0.00    +0.004 A 
ATOM     45  C   LIG    1       -4.185  -0.801   3.485  0.00  0.00    +0.000 A 
ATOM     46  C   LIG    1       -3.227   0.087   3.935  0.00  0.00    +0.000 A 
ATOM     47  C   LIG    1       -2.683   1.016   3.068  0.00  0.00    +0.000 A 
ATOM     48  C   LIG    1       -3.095   1.054   1.749  0.00  0.00    +0.004 A 
ENDBRANCH  42  43
ENDBRANCH   1  42
TORSDOF 15
