REMARK  Name = ZINC00047961
REMARK                            x       y       z     vdW  Elec       q    Type
REMARK                         _______ _______ _______ _____ _____    ______ ____
ROOT
ATOM      1  C   LIG    1       -0.013   1.076   0.008  0.00  0.00    +0.001 A 
ATOM      2  C   LIG    1       -1.222   1.751   0.017  0.00  0.00    +0.002 A 
ATOM      3  C   LIG    1       -1.258   3.132   0.030  0.00  0.00    +0.024 A 
ATOM      4  C   LIG    1       -0.076   3.861   0.024  0.00  0.00    +0.042 A 
ATOM      5  C   LIG    1        1.148   3.175   0.008  0.00  0.00    +0.010 A 
ATOM      6  C   LIG    1        2.205   4.203   0.004  0.00  0.00    +0.074 C 
ATOM      7  C   LIG    1        1.482   5.497   0.018  0.00  0.00    +0.251 C 
ATOM      8  O   LIG    1        1.989   6.602   0.020  0.00  0.00    -0.270 OA
ATOM      9  C   LIG    1        3.576   4.004  -0.010  0.00  0.00    +0.141 C 
ATOM     10  N   LIG    1        0.164   5.231   0.029  0.00  0.00    -0.281 N 
ATOM     11  H   LIG    1       -0.530   5.908   0.039  0.00  0.00    +0.155 HD
ATOM     12  C   LIG    1        1.173   1.781   0.000  0.00  0.00    +0.010 A 
ENDROOT
BRANCH   9  13
ATOM     13  C   LIG    1        4.106   2.673  -0.022  0.00  0.00    +0.111 C 
ATOM     14  N   LIG    1        4.526   1.618  -0.032  0.00  0.00    -0.190 NA
ENDBRANCH   9  13
BRANCH   9  15
ATOM     15  C   LIG    1        4.463   5.128  -0.012  0.00  0.00    +0.111 C 
ATOM     16  N   LIG    1        5.167   6.019  -0.013  0.00  0.00    -0.190 NA
ENDBRANCH   9  15
TORSDOF 2
