REMARK  Name = ZINC22011868
REMARK                            x       y       z     vdW  Elec       q    Type
REMARK                         _______ _______ _______ _____ _____    ______ ____
ROOT
ATOM      1  C   LIG    1        5.418  -0.538  -1.490  0.00  0.00    +0.272 C 
ENDROOT
BRANCH   1   2
ATOM      2  P   LIG    1        5.152  -2.186  -2.222  0.00  0.00    +0.371 P 
ATOM      3  O   LIG    1        5.919  -3.245  -1.400  0.00  0.00    -0.255 OA
BRANCH   2   4
ATOM      4  O   LIG    1        5.690  -2.192  -3.740  0.00  0.00    -0.322 OA
ATOM      5  H   LIG    1        5.580  -3.039  -4.193  0.00  0.00    +0.220 HD
ENDBRANCH   2   4
BRANCH   2   6
ATOM      6  O   LIG    1        3.643  -2.518  -2.210  0.00  0.00    -0.322 OA
ATOM      7  H   LIG    1        3.319  -2.514  -1.295  0.00  0.00    +0.220 HD
ENDBRANCH   2   6
ENDBRANCH   1   2
BRANCH   1   8
ATOM      8  P   LIG    1        7.198  -0.146  -1.504  0.00  0.00    +0.371 P 
ATOM      9  O   LIG    1        7.979  -1.272  -0.790  0.00  0.00    -0.255 OA
BRANCH   8  10
ATOM     10  O   LIG    1        7.437   1.193  -0.771  0.00  0.00    -0.322 OA
ATOM     11  H   LIG    1        7.130   1.118   0.146  0.00  0.00    +0.220 HD
ENDBRANCH   8  10
BRANCH   8  12
ATOM     12  O   LIG    1        7.708  -0.023  -3.027  0.00  0.00    -0.322 OA
ATOM     13  H   LIG    1        8.648   0.185  -3.111  0.00  0.00    +0.220 HD
ENDBRANCH   8  12
ENDBRANCH   1   8
BRANCH   1  14
ATOM     14  O   LIG    1        4.708   0.442  -2.250  0.00  0.00    -0.367 OA
ATOM     15  H   LIG    1        4.804   1.344  -1.917  0.00  0.00    +0.212 HD
ENDBRANCH   1  14
BRANCH   1  16
ATOM     16  C   LIG    1        4.906  -0.532  -0.048  0.00  0.00    +0.115 C 
BRANCH  16  24
ATOM     17  C   LIG    1       -0.016   1.356   0.009  0.00  0.00    +0.005 A 
ATOM     18  C   LIG    1        1.194   2.068   0.002  0.00  0.00    +0.018 A 
ATOM     19  C   LIG    1        2.372   1.409  -0.013  0.00  0.00    +0.093 A 
ATOM     20  N   LIG    1        2.405   0.045  -0.021  0.00  0.00    -0.303 N 
ATOM     21  C   LIG    1        1.240  -0.678  -0.013  0.00  0.00    +0.138 A 
ATOM     22  N   LIG    1        1.556  -1.965  -0.023  0.00  0.00    -0.236 NA
ATOM     23  C   LIG    1        2.885  -2.090  -0.037  0.00  0.00    +0.135 A 
ATOM     24  C   LIG    1        3.434  -0.856  -0.035  0.00  0.00    +0.047 A 
ATOM     25  C   LIG    1        0.002  -0.004   0.002  0.00  0.00    +0.047 A 
ENDBRANCH  16  24
ENDBRANCH   1  16
TORSDOF 9
