REMARK  Name = ZINC19632891
REMARK                            x       y       z     vdW  Elec       q    Type
REMARK                         _______ _______ _______ _____ _____    ______ ____
ROOT
ATOM      1  N   LIG    1        4.912  -3.452   1.550  0.00  0.00    +0.384 N 
ATOM      2  H   LIG    1        4.624  -3.099   2.450  0.00  0.00    -0.081 HD
ATOM      3  C   LIG    1        4.011  -4.536   1.138  0.00  0.00    -0.063 C 
ATOM      4  C   LIG    1        4.053  -5.657   2.179  0.00  0.00    +0.067 C 
ATOM      5  N   LIG    1        5.429  -6.159   2.298  0.00  0.00    -0.295 NA
ATOM      6  C   LIG    1        6.347  -5.079   2.685  0.00  0.00    +0.067 C 
ATOM      7  C   LIG    1        6.286  -3.962   1.641  0.00  0.00    -0.063 C 
ENDROOT
BRANCH   1   8
ATOM      8  C   LIG    1        4.857  -2.368   0.560  0.00  0.00    -0.051 C 
BRANCH   8  10
ATOM      9  C   LIG    1        3.325  -0.458   0.742  0.00  0.00    +0.002 C 
ATOM     10  C   LIG    1        3.478  -1.761   0.555  0.00  0.00    -0.045 C 
BRANCH   9  14
ATOM     11  C   LIG    1       -0.563   1.251   0.725  0.00  0.00    +0.000 A 
ATOM     12  C   LIG    1        0.543   2.058   0.926  0.00  0.00    +0.001 A 
ATOM     13  C   LIG    1        1.809   1.509   0.933  0.00  0.00    +0.008 A 
ATOM     14  C   LIG    1        1.972   0.137   0.736  0.00  0.00    -0.025 A 
ATOM     15  C   LIG    1        0.853  -0.671   0.534  0.00  0.00    +0.008 A 
ATOM     16  C   LIG    1       -0.408  -0.110   0.530  0.00  0.00    +0.001 A 
ENDBRANCH   9  14
ENDBRANCH   8  10
ENDBRANCH   1   8
BRANCH   5  17
ATOM     17  C   LIG    1        5.501  -7.277   3.248  0.00  0.00    +0.117 C 
BRANCH  17  18
ATOM     18  C   LIG    1        6.911  -7.809   3.292  0.00  0.00    -0.026 A 
ATOM     19  C   LIG    1        7.613  -8.005   2.118  0.00  0.00    +0.005 A 
ATOM     20  C   LIG    1        8.906  -8.492   2.159  0.00  0.00    +0.000 A 
ATOM     21  C   LIG    1        9.497  -8.783   3.374  0.00  0.00    +0.000 A 
ATOM     22  C   LIG    1        8.795  -8.587   4.548  0.00  0.00    +0.000 A 
ATOM     23  C   LIG    1        7.504  -8.095   4.508  0.00  0.00    +0.005 A 
ENDBRANCH  17  18
BRANCH  17  24
ATOM     24  C   LIG    1        4.565  -8.373   2.807  0.00  0.00    -0.026 A 
ATOM     25  C   LIG    1        4.513  -8.743   1.476  0.00  0.00    +0.005 A 
ATOM     26  C   LIG    1        3.655  -9.748   1.071  0.00  0.00    +0.000 A 
ATOM     27  C   LIG    1        2.848 -10.383   1.997  0.00  0.00    +0.000 A 
ATOM     28  C   LIG    1        2.901 -10.013   3.328  0.00  0.00    +0.000 A 
ATOM     29  C   LIG    1        3.763  -9.011   3.733  0.00  0.00    +0.005 A 
ENDBRANCH  17  24
ENDBRANCH   5  17
TORSDOF 6
