REMARK  Name = ZINC13757089
REMARK                            x       y       z     vdW  Elec       q    Type
REMARK                         _______ _______ _______ _____ _____    ______ ____
ROOT
ATOM      1  C   LIG    1        1.182   2.086   0.002  0.00  0.00    -0.018 A 
ATOM      2  C   LIG    1       -0.014   1.377  -0.083  0.00  0.00    +0.009 A 
ATOM      3  C   LIG    1        0.005  -0.004  -0.091  0.00  0.00    +0.004 A 
ATOM      4  C   LIG    1        1.208  -0.682  -0.013  0.00  0.00    -0.046 A 
ATOM      5  C   LIG    1        2.398   0.018   0.072  0.00  0.00    +0.004 A 
ATOM      6  C   LIG    1        2.391   1.398   0.080  0.00  0.00    +0.009 A 
ENDROOT
BRANCH   4   7
ATOM      7  C   LIG    1        1.222  -2.189  -0.021  0.00  0.00    +0.005 C 
ATOM      8  C   LIG    1        2.401  -2.686  -0.862  0.00  0.00    -0.070 C 
ATOM      9  N   LIG    1        3.315  -3.505  -0.037  0.00  0.00    +0.380 N 
ATOM     10  H   LIG    1        4.095  -3.826  -0.622  0.00  0.00    -0.082 HD
ATOM     11  C   LIG    1        2.598  -4.683   0.496  0.00  0.00    -0.079 C 
ATOM     12  C   LIG    1        1.425  -4.242   1.375  0.00  0.00    -0.015 C 
ATOM     13  C   LIG    1        3.853  -2.695   1.077  0.00  0.00    -0.079 C 
ATOM     14  C   LIG    1        2.710  -2.196   1.977  0.00  0.00    -0.015 C 
ATOM     15  C   LIG    1        1.379  -2.709   1.413  0.00  0.00    -0.009 C 
ENDBRANCH   4   7
BRANCH   1  19
ATOM     16  C   LIG    1        1.142   6.339   0.024  0.00  0.00    +0.000 A 
ATOM     17  C   LIG    1        2.345   5.660   0.102  0.00  0.00    +0.001 A 
ATOM     18  C   LIG    1        2.364   4.280   0.095  0.00  0.00    +0.008 A 
ATOM     19  C   LIG    1        1.168   3.570   0.010  0.00  0.00    -0.018 A 
ATOM     20  C   LIG    1       -0.040   4.259  -0.074  0.00  0.00    +0.008 A 
ATOM     21  C   LIG    1       -0.048   5.639  -0.061  0.00  0.00    +0.001 A 
ENDBRANCH   1  19
TORSDOF 2
