REMARK  Name = ZINC28458227
REMARK                            x       y       z     vdW  Elec       q    Type
REMARK                         _______ _______ _______ _____ _____    ______ ____
ROOT
ATOM      1  N   LIG    1       -0.739   1.587   1.175  0.00  0.00    -0.322 N 
ATOM      2  C   LIG    1       -1.750   0.939   1.844  0.00  0.00    +0.072 A 
ATOM      3  C   LIG    1       -2.449  -0.249   1.659  0.00  0.00    +0.047 A 
ATOM      4  C   LIG    1       -3.433  -0.589   2.563  0.00  0.00    +0.113 A 
ATOM      5  N   LIG    1       -3.718   0.191   3.593  0.00  0.00    -0.261 NA
ATOM      6  C   LIG    1       -3.088   1.325   3.815  0.00  0.00    +0.140 A 
ATOM      7  C   LIG    1       -2.076   1.749   2.950  0.00  0.00    +0.108 A 
ATOM      8  N   LIG    1       -1.265   2.831   2.905  0.00  0.00    -0.224 NA
ATOM      9  C   LIG    1       -0.470   2.740   1.865  0.00  0.00    +0.164 A 
ENDROOT
BRANCH   9  10
ATOM     10  C   LIG    1        0.558   3.733   1.493  0.00  0.00    +0.145 A 
ATOM     11  C   LIG    1        0.662   4.942   2.202  0.00  0.00    +0.145 A 
ATOM     12  N   LIG    1        1.593   5.825   1.862  0.00  0.00    -0.237 NA
ATOM     13  C   LIG    1        2.410   5.569   0.855  0.00  0.00    +0.132 A 
ATOM     14  C   LIG    1        2.304   4.381   0.152  0.00  0.00    +0.131 A 
ATOM     15  N   LIG    1        1.387   3.491   0.482  0.00  0.00    -0.247 NA
BRANCH  11  16
ATOM     16  N   LIG    1       -0.200   5.209   3.253  0.00  0.00    -0.341 N 
ATOM     17  H   LIG    1       -0.967   4.473   3.536  0.00  0.00    +0.144 HD
ATOM     18  H   LIG    1       -0.116   6.156   3.806  0.00  0.00    +0.144 HD
ENDBRANCH  11  16
ENDBRANCH   9  10
BRANCH   1  20
ATOM     19  C   LIG    1       -0.812   1.667  -1.268  0.00  0.00    +0.027 C 
ATOM     20  C   LIG    1       -0.069   1.128  -0.044  0.00  0.00    +0.120 C 
ENDBRANCH   1  20
TORSDOF 3
