REMARK  Name = ZINC28385299
REMARK                            x       y       z     vdW  Elec       q    Type
REMARK                         _______ _______ _______ _____ _____    ______ ____
ROOT
ATOM      1  C   LIG    1        1.296   1.471  -4.181  0.00  0.00    +0.014 A 
ATOM      2  C   LIG    1        0.967   2.349  -3.194  0.00  0.00    +0.095 A 
ATOM      3  N   LIG    1       -0.033   1.829  -2.430  0.00  0.00    -0.346 N 
ATOM      4  C   LIG    1       -0.399   0.586  -2.904  0.00  0.00    +0.050 A 
ATOM      5  C   LIG    1       -1.349  -0.345  -2.498  0.00  0.00    +0.026 A 
ATOM      6  C   LIG    1       -1.488  -1.530  -3.187  0.00  0.00    +0.002 A 
ATOM      7  C   LIG    1       -0.688  -1.807  -4.286  0.00  0.00    +0.001 A 
ATOM      8  C   LIG    1        0.259  -0.898  -4.704  0.00  0.00    +0.010 A 
ATOM      9  C   LIG    1        0.411   0.304  -4.017  0.00  0.00    +0.008 A 
ENDROOT
BRANCH   1  11
ATOM     10  C   LIG    1        3.699   1.561  -5.046  0.00  0.00    +0.107 C 
ATOM     11  C   LIG    1        2.331   1.654  -5.216  0.00  0.00    +0.072 C 
ATOM     12  C   LIG    1        2.113   1.979  -6.641  0.00  0.00    +0.253 C 
ATOM     13  N   LIG    1        3.309   2.060  -7.249  0.00  0.00    -0.247 N 
ATOM     14  H   LIG    1        3.366   2.295  -8.322  0.00  0.00    +0.158 HD
ATOM     15  O   LIG    1        1.034   2.145  -7.174  0.00  0.00    -0.270 OA
ATOM     16  C   LIG    1        4.298   1.821  -6.370  0.00  0.00    +0.265 C 
ATOM     17  O   LIG    1        5.486   1.823  -6.622  0.00  0.00    -0.268 OA
BRANCH  10  18
ATOM     18  N   LIG    1        4.374   1.278  -3.869  0.00  0.00    -0.310 N 
ATOM     19  H   LIG    1        4.168   0.342  -3.328  0.00  0.00    +0.152 HD
BRANCH  18  23
ATOM     20  C   LIG    1        7.178   3.969  -2.378  0.00  0.00    +0.000 A 
ATOM     21  C   LIG    1        6.401   4.315  -3.469  0.00  0.00    +0.002 A 
ATOM     22  C   LIG    1        5.470   3.425  -3.966  0.00  0.00    +0.023 A 
ATOM     23  C   LIG    1        5.314   2.180  -3.369  0.00  0.00    +0.031 A 
ATOM     24  C   LIG    1        6.093   1.837  -2.270  0.00  0.00    +0.023 A 
ATOM     25  C   LIG    1        7.025   2.731  -1.782  0.00  0.00    +0.002 A 
ENDBRANCH  18  23
ENDBRANCH  10  18
ENDBRANCH   1  11
BRANCH   3  26
ATOM     26  C   LIG    1       -0.638   2.495  -1.274  0.00  0.00    +0.123 C 
BRANCH  26  27
ATOM     27  C   LIG    1        0.045   2.014   0.007  0.00  0.00    +0.043 C 
BRANCH  27  28
ATOM     28  C   LIG    1       -0.587   2.711   1.214  0.00  0.00    +0.124 C 
BRANCH  28  29
ATOM     29  N   LIG    1        0.067   2.250   2.442  0.00  0.00    -0.338 N 
ATOM     30  C   LIG    1       -0.309   1.182   3.211  0.00  0.00    +0.104 A 
ATOM     31  C   LIG    1        0.562   1.114   4.236  0.00  0.00    +0.101 A 
ATOM     32  N   LIG    1        1.440   2.119   4.101  0.00  0.00    -0.352 N 
ATOM     33  H   LIG    1        2.243   2.251   4.841  0.00  0.00    +0.166 HD
ATOM     34  C   LIG    1        1.150   2.804   3.029  0.00  0.00    +0.173 A 
ENDBRANCH  28  29
ENDBRANCH  27  28
ENDBRANCH  26  27
ENDBRANCH   3  26
TORSDOF 7
