REMARK  Name = ZINC72112659
REMARK                            x       y       z     vdW  Elec       q    Type
REMARK                         _______ _______ _______ _____ _____    ______ ____
ROOT
ATOM      1  C   LIG    1       -6.952  -8.990   0.020  0.00  0.00    +0.170 C 
ENDROOT
BRANCH   1   2
ATOM      2  C   LIG    1       -6.656 -10.468   0.009  0.00  0.00    +0.221 C 
ATOM      3  N   LIG    1       -7.668 -11.357   0.014  0.00  0.00    -0.305 N 
ATOM      4  H   LIG    1       -8.587 -11.046   0.025  0.00  0.00    +0.149 HD
ATOM      5  O   LIG    1       -5.507 -10.856  -0.004  0.00  0.00    -0.275 OA
BRANCH   3   6
ATOM      6  C   LIG    1       -7.381 -12.794   0.004  0.00  0.00    +0.139 C 
ATOM      7  C   LIG    1       -8.561 -13.559   0.612  0.00  0.00    +0.030 C 
ATOM      8  C   LIG    1       -8.319 -15.063   0.471  0.00  0.00    +0.003 C 
ATOM      9  C   LIG    1       -8.275 -15.444  -1.010  0.00  0.00    +0.008 C 
ATOM     10  C   LIG    1       -7.084 -14.750  -1.679  0.00  0.00    +0.076 C 
ATOM     11  C   LIG    1       -7.183 -13.262  -1.421  0.00  0.00    +0.153 C 
ATOM     12  O   LIG    1       -7.109 -12.469  -2.329  0.00  0.00    -0.295 OA
ENDBRANCH   3   6
ENDBRANCH   1   2
BRANCH   1  13
ATOM     13  C   LIG    1       -5.657  -8.219   0.012  0.00  0.00    +0.142 C 
ATOM     14  O   LIG    1       -4.603  -8.808  -0.001  0.00  0.00    -0.297 OA
BRANCH  13  15
ATOM     15  C   LIG    1       -5.677  -6.712   0.020  0.00  0.00    +0.075 C 
BRANCH  15  16
ATOM     16  C   LIG    1       -4.242  -6.182   0.009  0.00  0.00    +0.007 C 
BRANCH  16  17
ATOM     17  C   LIG    1       -4.263  -4.652   0.018  0.00  0.00    +0.000 C 
BRANCH  17  18
ATOM     18  C   LIG    1       -2.827  -4.123   0.007  0.00  0.00    +0.000 C 
BRANCH  18  19
ATOM     19  C   LIG    1       -2.848  -2.593   0.015  0.00  0.00    +0.000 C 
BRANCH  19  20
ATOM     20  C   LIG    1       -1.413  -2.063   0.004  0.00  0.00    -0.000 C 
BRANCH  20  21
ATOM     21  C   LIG    1       -1.433  -0.534   0.013  0.00  0.00    -0.000 C 
BRANCH  21  23
ATOM     22  C   LIG    1       -0.019   1.526   0.010  0.00  0.00    +0.004 C 
ATOM     23  C   LIG    1        0.002  -0.004   0.002  0.00  0.00    -0.003 C 
ENDBRANCH  21  23
ENDBRANCH  20  21
ENDBRANCH  19  20
ENDBRANCH  18  19
ENDBRANCH  17  18
ENDBRANCH  16  17
ENDBRANCH  15  16
ENDBRANCH  13  15
ENDBRANCH   1  13
TORSDOF 11
