REMARK  Name = ZINC28896396
REMARK                            x       y       z     vdW  Elec       q    Type
REMARK                         _______ _______ _______ _____ _____    ______ ____
ROOT
ATOM      1  C   LIG    1       -0.106   7.305  -2.899  0.00  0.00    -0.003 C 
ATOM      2  C   LIG    1        0.760   7.814  -1.745  0.00  0.00    +0.015 C 
ATOM      3  C   LIG    1        0.335   7.125  -0.446  0.00  0.00    -0.009 C 
ATOM      4  C   LIG    1       -1.134   7.440  -0.159  0.00  0.00    +0.007 C 
ATOM      5  C   LIG    1       -2.000   6.931  -1.313  0.00  0.00    -0.009 C 
ATOM      6  C   LIG    1       -1.821   5.418  -1.456  0.00  0.00    +0.019 C 
ATOM      7  C   LIG    1       -0.352   5.103  -1.743  0.00  0.00    +0.048 C 
ATOM      8  C   LIG    1        0.514   5.612  -0.589  0.00  0.00    +0.019 C 
ATOM      9  C   LIG    1        0.073   5.792  -3.042  0.00  0.00    +0.027 C 
ATOM     10  C   LIG    1       -1.576   7.620  -2.611  0.00  0.00    +0.015 C 
ENDROOT
BRANCH   7  11
ATOM     11  C   LIG    1       -0.175   3.613  -1.884  0.00  0.00    +0.222 C 
ATOM     12  N   LIG    1       -0.634   2.786  -0.924  0.00  0.00    -0.299 N 
ATOM     13  C   LIG    1       -0.571   1.327  -1.091  0.00  0.00    +0.123 C 
ATOM     14  C   LIG    1        0.090   0.722   0.152  0.00  0.00    +0.103 C 
ATOM     15  N   LIG    1       -0.621   1.180   1.353  0.00  0.00    -0.297 NA
ATOM     16  C   LIG    1       -0.525   2.638   1.507  0.00  0.00    +0.103 C 
ATOM     17  C   LIG    1       -1.211   3.320   0.319  0.00  0.00    +0.123 C 
ATOM     18  O   LIG    1        0.379   3.158  -2.862  0.00  0.00    -0.275 OA
BRANCH  15  19
ATOM     19  C   LIG    1       -0.128   0.490   2.553  0.00  0.00    +0.112 C 
BRANCH  19  20
ATOM     20  C   LIG    1       -0.827   1.055   3.791  0.00  0.00    +0.171 C 
BRANCH  20  21
ATOM     21  O   LIG    1       -2.232   0.815   3.695  0.00  0.00    -0.394 OA
ATOM     22  H   LIG    1       -2.904   1.153   4.498  0.00  0.00    +0.209 HD
ENDBRANCH  20  21
ENDBRANCH  19  20
ENDBRANCH  15  19
ENDBRANCH   7  11
BRANCH   1  27
ATOM     23  C   LIG    1        1.495   9.908  -7.803  0.00  0.00    +0.044 C 
ATOM     24  C   LIG    1        1.078   9.229  -6.524  0.00  0.00    -0.050 A 
ATOM     25  C   LIG    1        0.051   8.304  -6.536  0.00  0.00    +0.003 A 
ATOM     26  C   LIG    1       -0.333   7.681  -5.363  0.00  0.00    +0.004 A 
ATOM     27  C   LIG    1        0.312   7.983  -4.178  0.00  0.00    -0.041 A 
ATOM     28  C   LIG    1        1.336   8.912  -4.165  0.00  0.00    +0.004 A 
ATOM     29  C   LIG    1        1.722   9.531  -5.339  0.00  0.00    +0.003 A 
ENDBRANCH   1  27
TORSDOF 5
