REMARK  Name = ZINC28571048
REMARK                            x       y       z     vdW  Elec       q    Type
REMARK                         _______ _______ _______ _____ _____    ______ ____
ROOT
ATOM      1  O   LIG    1       -0.088   5.831  -1.314  0.00  0.00    -0.472 OA
ENDROOT
BRANCH   1   2
ATOM      2  C   LIG    1       -0.107   7.177  -1.485  0.00  0.00    +0.218 A 
ATOM      3  C   LIG    1       -0.120   7.705  -2.768  0.00  0.00    +0.086 A 
ATOM      4  C   LIG    1       -0.144   9.093  -2.928  0.00  0.00    +0.060 A 
ATOM      5  C   LIG    1       -0.144   9.892  -1.779  0.00  0.00    +0.059 A 
ATOM      6  C   LIG    1       -0.125   9.285  -0.539  0.00  0.00    +0.134 A 
ATOM      7 CL   LIG    1       -0.124  10.266   0.894  0.00  0.00    -0.062 Cl
ATOM      8  N   LIG    1       -0.107   7.970  -0.427  0.00  0.00    -0.201 NA
BRANCH   4   9
ATOM      9  C   LIG    1       -0.164   9.682  -4.233  0.00  0.00    +0.099 C 
ATOM     10  N   LIG    1       -0.180  10.149  -5.269  0.00  0.00    -0.191 NA
ENDBRANCH   4   9
ENDBRANCH   1   2
BRANCH   1  11
ATOM     11  C   LIG    1       -0.069   5.348   0.031  0.00  0.00    +0.266 C 
BRANCH  11  14
ATOM     12  C   LIG    1        1.175   1.783   0.000  0.00  0.00    +0.002 A 
ATOM     13  C   LIG    1        1.156   3.166   0.008  0.00  0.00    +0.007 A 
ATOM     14  C   LIG    1       -0.050   3.841   0.023  0.00  0.00    -0.009 A 
ATOM     15  C   LIG    1       -1.238   3.135   0.030  0.00  0.00    +0.027 A 
ATOM     16  C   LIG    1       -1.220   1.752   0.017  0.00  0.00    +0.041 A 
ATOM     17 CL   LIG    1       -2.712   0.864   0.019  0.00  0.00    -0.084 Cl
ATOM     18  C   LIG    1       -0.013   1.076   0.008  0.00  0.00    +0.020 A 
ENDBRANCH  11  14
ENDBRANCH   1  11
TORSDOF 4
