REMARK  Name = ZINC34633957
REMARK                            x       y       z     vdW  Elec       q    Type
REMARK                         _______ _______ _______ _____ _____    ______ ____
ROOT
ATOM      1  C   LIG    1       -0.014   1.378  -0.048  0.00  0.00    +0.001 A 
ATOM      2  C   LIG    1        1.168   2.082   0.108  0.00  0.00    +0.002 A 
ATOM      3  C   LIG    1        2.377   1.420   0.165  0.00  0.00    +0.024 A 
ATOM      4  C   LIG    1        2.419   0.032   0.066  0.00  0.00    +0.041 A 
ATOM      5  C   LIG    1        1.222  -0.675  -0.091  0.00  0.00    +0.026 A 
ATOM      6  C   LIG    1        1.579  -2.112  -0.166  0.00  0.00    +0.133 C 
ATOM      7  C   LIG    1        3.052  -2.149  -0.039  0.00  0.00    +0.074 C 
ATOM      8  C   LIG    1        3.849  -3.286  -0.053  0.00  0.00    +0.069 C 
ATOM      9  C   LIG    1        3.408  -4.694   0.040  0.00  0.00    +0.013 A 
ATOM     10  C   LIG    1        2.159  -5.297   0.162  0.00  0.00    +0.049 A 
ATOM     11  C   LIG    1        2.067  -6.674   0.226  0.00  0.00    +0.124 A 
ATOM     12  F   LIG    1        0.857  -7.265   0.344  0.00  0.00    -0.205 F 
ATOM     13  C   LIG    1        3.215  -7.450   0.170  0.00  0.00    +0.040 A 
ATOM     14  C   LIG    1        4.457  -6.861   0.050  0.00  0.00    +0.027 A 
ATOM     15  C   LIG    1        4.569  -5.477  -0.017  0.00  0.00    +0.042 A 
ATOM     16  N   LIG    1        5.675  -4.642  -0.137  0.00  0.00    -0.281 N 
ATOM     17  H   LIG    1        6.592  -4.954  -0.195  0.00  0.00    +0.155 HD
ATOM     18  C   LIG    1        5.310  -3.349  -0.169  0.00  0.00    +0.251 C 
ATOM     19  O   LIG    1        6.062  -2.396  -0.272  0.00  0.00    -0.270 OA
ATOM     20  N   LIG    1        0.768  -3.125  -0.312  0.00  0.00    -0.085 NA
ATOM     21  N   LIG    1        3.486  -0.858   0.095  0.00  0.00    -0.312 N 
ATOM     22  H   LIG    1        4.415  -0.598   0.195  0.00  0.00    +0.152 HD
ATOM     23  C   LIG    1        0.008   0.002  -0.148  0.00  0.00    +0.012 A 
ENDROOT
BRANCH  20  24
ATOM     24  O   LIG    1       -0.627  -2.907  -0.418  0.00  0.00    -0.409 OA
ATOM     25  H   LIG    1       -1.145  -3.716  -0.524  0.00  0.00    +0.328 HD
ENDBRANCH  20  24
TORSDOF 1
