REMARK  Name = ZINC14980227
REMARK                            x       y       z     vdW  Elec       q    Type
REMARK                         _______ _______ _______ _____ _____    ______ ____
ROOT
ATOM      1  C   LIG    1       -0.017   1.384   0.010  0.00  0.00    +0.019 A 
ATOM      2  C   LIG    1        1.160   2.101   0.002  0.00  0.00    +0.051 A 
ATOM      3  C   LIG    1        2.379   1.434  -0.013  0.00  0.00    +0.171 A 
ATOM      4  C   LIG    1        2.399   0.030  -0.021  0.00  0.00    +0.085 A 
ATOM      5  C   LIG    1        3.815  -0.364  -0.036  0.00  0.00    +0.260 A 
ATOM      6  N   LIG    1        4.521   0.730  -0.037  0.00  0.00    -0.039 NA
ATOM      7  C   LIG    1        1.201  -0.683  -0.013  0.00  0.00    +0.032 A 
ATOM      8  O   LIG    1        3.661   1.852  -0.023  0.00  0.00    -0.351 OA
ATOM      9  C   LIG    1        0.002  -0.004   0.002  0.00  0.00    +0.019 A 
ATOM     10 BR   LIG    1       -1.625  -0.967   0.012  0.00  0.00    -0.050 Br
ENDROOT
BRANCH   5  11
ATOM     11  O   LIG    1        4.297  -1.631  -0.048  0.00  0.00    -0.490 OA
ATOM     12  H   LIG    1        3.704  -2.358  -0.046  0.00  0.00    +0.294 HD
ENDBRANCH   5  11
TORSDOF 1
