REMARK  Name = ZINC27993222
REMARK                            x       y       z     vdW  Elec       q    Type
REMARK                         _______ _______ _______ _____ _____    ______ ____
ROOT
ATOM      1  C   LIG    1       -2.083   7.249  -3.235  0.00  0.00    +0.002 C 
ATOM      2  C   LIG    1       -1.873   5.907  -3.352  0.00  0.00    +0.007 C 
ATOM      3  C   LIG    1       -1.543   5.155  -2.217  0.00  0.00    +0.024 C 
ATOM      4  C   LIG    1       -1.317   3.763  -2.289  0.00  0.00    +0.060 C 
ATOM      5  C   LIG    1       -0.994   3.082  -1.120  0.00  0.00    +0.023 C 
ATOM      6  C   LIG    1       -0.898   3.776   0.073  0.00  0.00    +0.059 C 
ATOM      7  C   LIG    1       -0.535   3.094   1.370  0.00  0.00    +0.019 C 
ATOM      8  C   LIG    1       -0.741   1.586   1.261  0.00  0.00    +0.002 C 
ATOM      9  C   LIG    1       -0.013   1.086   0.008  0.00  0.00    +0.000 C 
ATOM     10  N   LIG    1       -1.116   5.079   0.122  0.00  0.00    -0.309 NA
ATOM     11  H   LIG    1       -1.041   5.614   1.080  0.00  0.00    +0.123 HD
ATOM     12  C   LIG    1       -0.762   1.597  -1.221  0.00  0.00    +0.006 C 
ATOM     13  C   LIG    1       -1.431   5.795  -0.959  0.00  0.00    +0.076 C 
ATOM     14  C   LIG    1       -1.655   7.181  -0.876  0.00  0.00    +0.098 C 
ATOM     15 CL   LIG    1       -1.527   7.994   0.652  0.00  0.00    -0.120 Cl
ATOM     16  C   LIG    1       -1.975   7.882  -2.000  0.00  0.00    +0.021 C 
ENDROOT
BRANCH   4  17
ATOM     17  N   LIG    1       -1.417   3.090  -3.498  0.00  0.00    -0.327 NA
ATOM     18  H   LIG    1       -1.674   3.641  -4.415  0.00  0.00    +0.118 HD
ATOM     19  H   LIG    1       -1.239   2.005  -3.540  0.00  0.00    +0.118 HD
ENDBRANCH   4  17
TORSDOF 1
