REMARK  Name = ZINC28570309
REMARK                            x       y       z     vdW  Elec       q    Type
REMARK                         _______ _______ _______ _____ _____    ______ ____
ROOT
ATOM      1  C   UNK    1        1.133   5.997   1.560  0.00  0.00    +0.068 C 
ENDROOT
BRANCH   1   2
ATOM      2  S   UNK    1        1.159   4.190   1.723  0.00  0.00    -0.156 S 
BRANCH   2   3
ATOM      3  C   UNK    1        1.152   3.594   0.010  0.00  0.00    +0.105 C 
BRANCH   3   8
ATOM      4  C   UNK    1        1.208  -0.679  -0.013  0.00  0.00    +0.021 A 
ATOM      5  C   UNK    1        0.002  -0.004   0.002  0.00  0.00    +0.022 A 
ATOM      6  C   UNK    1       -0.017   1.379   0.010  0.00  0.00    +0.045 A 
ATOM      7 CL   UNK    1       -1.532   2.227   0.021  0.00  0.00    -0.083 Cl
ATOM      8  C   UNK    1        1.172   2.087   0.002  0.00  0.00    -0.018 A 
ATOM      9  C   UNK    1        2.378   1.413  -0.013  0.00  0.00    +0.026 A 
ATOM     10  C   UNK    1        2.397   0.029  -0.021  0.00  0.00    +0.041 A 
ATOM     11 CL   UNK    1        3.912  -0.818  -0.039  0.00  0.00    -0.084 Cl
ENDBRANCH   3   8
ENDBRANCH   2   3
ENDBRANCH   1   2
BRANCH   1  12
ATOM     12  C   UNK    1        1.138   6.635   2.950  0.00  0.00    +0.005 C 
BRANCH  12  13
ATOM     13  C   UNK    1        1.116   8.158   2.812  0.00  0.00    +0.036 C 
BRANCH  13  14
ATOM     14  N   UNK    1        2.359   8.610   2.173  0.00  0.00    +0.387 N 
ATOM     15  H   UNK    1        3.218   8.310   2.791  0.00  0.00    -0.089 HD
ATOM     16  H   UNK    1        2.446   8.153   1.177  0.00  0.00    -0.089 HD
ATOM     17  H   UNK    1        2.343   9.706   2.074  0.00  0.00    -0.089 HD
ENDBRANCH  13  14
BRANCH  13  18
ATOM     18  C   UNK    1        0.996   8.785   4.177  0.00  0.00    +0.290 C 
ATOM     19  O   UNK    1        1.977   9.223   4.729  0.00  0.00    -0.253 OA
BRANCH  18  20
ATOM     20  O   UNK    1       -0.201   8.856   4.781  0.00  0.00    -0.482 OA
ATOM     21  H   UNK    1       -0.962   8.516   4.353  0.00  0.00    +0.295 HD
ENDBRANCH  18  20
ENDBRANCH  13  18
ENDBRANCH  12  13
ENDBRANCH   1  12
TORSDOF 8
