REMARK  Name = ZINC13835089
REMARK                            x       y       z     vdW  Elec       q    Type
REMARK                         _______ _______ _______ _____ _____    ______ ____
ROOT
ATOM      1  C   LIG    1       -5.180   3.161   0.391  0.00  0.00    +0.000 A 
ATOM      2  C   LIG    1       -5.139   3.038  -0.986  0.00  0.00    +0.002 A 
ATOM      3  C   LIG    1       -4.119   2.329  -1.591  0.00  0.00    +0.024 A 
ATOM      4  C   LIG    1       -3.135   1.738  -0.809  0.00  0.00    +0.040 A 
ATOM      5  C   LIG    1       -3.195   1.843   0.570  0.00  0.00    -0.026 A 
ATOM      6  C   LIG    1       -2.166   1.121   1.420  0.00  0.00    +0.037 C 
ATOM      7  C   LIG    1       -0.807   1.782   1.227  0.00  0.00    +0.006 C 
ATOM      8  C   LIG    1       -0.088   1.221   0.007  0.00  0.00    +0.020 C 
ATOM      9  C   LIG    1       -0.728   1.615  -1.303  0.00  0.00    +0.114 C 
ATOM     10  N   LIG    1       -2.079   1.043  -1.409  0.00  0.00    -0.267 N 
ATOM     11  C   LIG    1       -2.294  -0.115  -2.065  0.00  0.00    +0.251 C 
ATOM     12  O   LIG    1       -1.383  -0.651  -2.665  0.00  0.00    -0.270 OA
ATOM     13  C   LIG    1       -4.205   2.563   1.172  0.00  0.00    +0.005 A 
ENDROOT
BRANCH  11  14
ATOM     14  C   LIG    1       -3.634  -0.731  -2.054  0.00  0.00    +0.037 A 
ATOM     15  C   LIG    1       -4.485  -0.538  -0.961  0.00  0.00    +0.015 A 
ATOM     16  C   LIG    1       -5.737  -1.110  -0.957  0.00  0.00    +0.023 A 
ATOM     17  C   LIG    1       -6.152  -1.888  -2.034  0.00  0.00    +0.025 A 
ATOM     18  C   LIG    1       -5.305  -2.086  -3.121  0.00  0.00    +0.023 A 
ATOM     19  C   LIG    1       -4.054  -1.512  -3.134  0.00  0.00    +0.015 A 
BRANCH  17  20
ATOM     20  N   LIG    1       -7.415  -2.469  -2.023  0.00  0.00    -0.358 N 
ATOM     21  H   LIG    1       -8.006  -2.332  -1.266  0.00  0.00    +0.142 HD
ATOM     22  H   LIG    1       -7.706  -3.011  -2.773  0.00  0.00    +0.142 HD
ENDBRANCH  17  20
ENDBRANCH  11  14
TORSDOF 2
