REMARK  Name = ZINC38148052
REMARK                            x       y       z     vdW  Elec       q    Type
REMARK                         _______ _______ _______ _____ _____    ______ ____
ROOT
ATOM      1  C   LIG    1        1.388  -1.478   7.567  0.00  0.00    +0.102 C 
ENDROOT
BRANCH   1   2
ATOM      2  N   LIG    1        2.644  -0.733   7.683  0.00  0.00    -0.308 N 
ATOM      3  H   LIG    1        2.633   0.237   7.707  0.00  0.00    +0.149 HD
ATOM      4  C   LIG    1        3.816  -1.395   7.755  0.00  0.00    +0.234 C 
ATOM      5  O   LIG    1        3.838  -2.603   7.644  0.00  0.00    -0.274 OA
BRANCH   4   6
ATOM      6  C   LIG    1        5.099  -0.635   7.973  0.00  0.00    +0.161 C 
BRANCH   6   7
ATOM      7  N   LIG    1        6.179  -1.577   8.276  0.00  0.00    -0.302 N 
ATOM      8  H   LIG    1        6.122  -2.495   7.970  0.00  0.00    +0.150 HD
ATOM      9  C   LIG    1        7.252  -1.167   8.981  0.00  0.00    +0.234 C 
ATOM     10  O   LIG    1        7.366   0.001   9.288  0.00  0.00    -0.274 OA
BRANCH   9  11
ATOM     11  C   LIG    1        8.310  -2.160   9.389  0.00  0.00    +0.161 C 
BRANCH  11  12
ATOM     12  N   LIG    1        9.591  -1.469   9.553  0.00  0.00    -0.304 N 
ATOM     13  H   LIG    1        9.608  -0.521   9.761  0.00  0.00    +0.149 HD
ATOM     14  C   LIG    1       10.747  -2.149   9.415  0.00  0.00    +0.214 C 
ATOM     15  O   LIG    1       10.726  -3.333   9.155  0.00  0.00    -0.276 OA
BRANCH  14  16
ATOM     16  C   LIG    1       12.065  -1.438   9.584  0.00  0.00    +0.098 C 
BRANCH  16  17
ATOM     17  C   LIG    1       13.210  -2.431   9.377  0.00  0.00    -0.008 C 
ATOM     18  C   LIG    1       13.175  -3.487  10.484  0.00  0.00    +0.008 C 
ATOM     19  C   LIG    1       14.546  -1.686   9.425  0.00  0.00    +0.008 C 
ENDBRANCH  16  17
ENDBRANCH  14  16
ENDBRANCH  11  12
BRANCH  11  20
ATOM     20  C   LIG    1        7.911  -2.816  10.712  0.00  0.00    +0.012 C 
ATOM     21  C   LIG    1        6.589  -3.564  10.532  0.00  0.00    +0.009 C 
ATOM     22  C   LIG    1        7.746  -1.739  11.786  0.00  0.00    +0.009 C 
ENDBRANCH  11  20
ENDBRANCH   9  11
ENDBRANCH   6   7
BRANCH   6  23
ATOM     23  C   LIG    1        5.448   0.150   6.707  0.00  0.00    +0.012 C 
ATOM     24  C   LIG    1        6.747   0.926   6.929  0.00  0.00    +0.009 C 
ATOM     25  C   LIG    1        4.317   1.130   6.386  0.00  0.00    +0.009 C 
ENDBRANCH   6  23
ENDBRANCH   4   6
ENDBRANCH   1   2
BRANCH   1  26
ATOM     26  C   LIG    1        0.867  -1.818   8.965  0.00  0.00    +0.028 C 
BRANCH  26  27
ATOM     27  C   LIG    1       -0.351  -2.736   8.845  0.00  0.00    -0.015 C 
ATOM     28  C   LIG    1       -0.971  -2.944  10.229  0.00  0.00    +0.007 C 
ATOM     29  C   LIG    1        0.082  -4.086   8.272  0.00  0.00    +0.007 C 
ENDBRANCH  26  27
ENDBRANCH   1  26
BRANCH   1  30
ATOM     30  C   LIG    1        0.354  -0.623   6.831  0.00  0.00    +0.143 C 
BRANCH  30  31
ATOM     31  O   LIG    1        0.127   0.584   7.562  0.00  0.00    -0.389 OA
ATOM     32  H   LIG    1        0.918   1.129   7.677  0.00  0.00    +0.210 HD
ENDBRANCH  30  31
BRANCH  30  33
ATOM     33  C   LIG    1        0.876  -0.282   5.434  0.00  0.00    +0.129 C 
BRANCH  33  36
ATOM     34  N   LIG    1        0.046   0.857   3.401  0.00  0.00    -0.304 N 
ATOM     35  H   LIG    1        0.903   0.673   2.986  0.00  0.00    +0.149 HD
ATOM     36  C   LIG    1       -0.191   0.454   4.665  0.00  0.00    +0.216 C 
ATOM     37  O   LIG    1       -1.263   0.684   5.184  0.00  0.00    -0.276 OA
BRANCH  34  39
ATOM     38  C   LIG    1       -0.921   3.065   2.987  0.00  0.00    +0.038 C 
ATOM     39  C   LIG    1       -0.991   1.573   2.654  0.00  0.00    +0.156 C 
BRANCH  39  40
ATOM     40  C   LIG    1       -0.771   1.377   1.176  0.00  0.00    +0.233 C 
ATOM     41  N   LIG    1       -1.609   1.948   0.289  0.00  0.00    -0.308 N 
ATOM     42  H   LIG    1       -2.395   2.425   0.600  0.00  0.00    +0.149 HD
ATOM     43  O   LIG    1        0.160   0.706   0.785  0.00  0.00    -0.274 OA
BRANCH  41  44
ATOM     44  C   LIG    1       -1.334   1.851  -1.147  0.00  0.00    +0.102 C 
BRANCH  44  45
ATOM     45  C   LIG    1       -1.914   3.072  -1.862  0.00  0.00    +0.145 C 
BRANCH  45  46
ATOM     46  O   LIG    1       -3.327   3.121  -1.650  0.00  0.00    -0.389 OA
ATOM     47  H   LIG    1       -3.583   3.187  -0.720  0.00  0.00    +0.210 HD
ENDBRANCH  45  46
BRANCH  45  48
ATOM     48  C   LIG    1       -1.270   4.343  -1.305  0.00  0.00    +0.153 C 
BRANCH  48  49
ATOM     49  C   LIG    1       -1.750   5.536  -2.092  0.00  0.00    +0.307 C 
ATOM     50  O   LIG    1       -2.534   5.383  -3.013  0.00  0.00    -0.251 OA
BRANCH  49  51
ATOM     51  O   LIG    1       -1.354   6.653  -1.807  0.00  0.00    -0.481 OA
ATOM     52  H   LIG    1       -0.751   6.771  -1.100  0.00  0.00    +0.295 HD
ENDBRANCH  49  51
ENDBRANCH  48  49
ENDBRANCH  45  48
ENDBRANCH  44  45
BRANCH  44  53
ATOM     53  C   LIG    1       -1.978   0.579  -1.704  0.00  0.00    +0.028 C 
BRANCH  53  54
ATOM     54  C   LIG    1       -1.551   0.388  -3.161  0.00  0.00    -0.015 C 
ATOM     55  C   LIG    1       -2.303  -0.802  -3.760  0.00  0.00    +0.007 C 
ATOM     56  C   LIG    1       -0.046   0.123  -3.221  0.00  0.00    +0.007 C 
ENDBRANCH  53  54
ENDBRANCH  44  53
ENDBRANCH  41  44
ENDBRANCH  39  40
ENDBRANCH  34  39
ENDBRANCH  33  36
ENDBRANCH  30  33
ENDBRANCH   1  30
TORSDOF 25
