REMARK  Name = ZINC13831229
REMARK                            x       y       z     vdW  Elec       q    Type
REMARK                         _______ _______ _______ _____ _____    ______ ____
ROOT
ATOM      1  C   LIG    1        2.238  -8.599  -0.026  0.00  0.00    +0.034 A 
ATOM      2  C   LIG    1        3.595  -8.880  -0.162  0.00  0.00    +0.024 A 
ATOM      3  C   LIG    1        4.042 -10.179  -0.073  0.00  0.00    +0.015 A 
ATOM      4  C   LIG    1        3.133 -11.216   0.155  0.00  0.00    +0.037 A 
ATOM      5  C   LIG    1        1.771 -10.930   0.292  0.00  0.00    +0.015 A 
ATOM      6  C   LIG    1        1.331  -9.629   0.207  0.00  0.00    +0.024 A 
ENDROOT
BRANCH   4   7
ATOM      7  C   LIG    1        3.609 -12.609   0.251  0.00  0.00    +0.247 C 
ATOM      8  N   LIG    1        4.691 -12.901   0.999  0.00  0.00    -0.298 N 
ATOM      9  C   LIG    1        5.127 -14.293   1.174  0.00  0.00    +0.106 C 
ATOM     10  C   LIG    1        5.248 -14.587   2.672  0.00  0.00    +0.004 C 
ATOM     11  C   LIG    1        6.174 -13.554   3.318  0.00  0.00    -0.066 C 
ATOM     12  C   LIG    1        5.577 -12.155   3.147  0.00  0.00    +0.004 C 
ATOM     13  C   LIG    1        5.463 -11.833   1.649  0.00  0.00    +0.106 C 
ATOM     14  O   LIG    1        3.024 -13.493  -0.344  0.00  0.00    -0.270 OA
BRANCH  11  15
ATOM     15  N   LIG    1        6.319 -13.852   4.749  0.00  0.00    +0.382 N 
ATOM     16  H   LIG    1        5.415 -13.848   5.199  0.00  0.00    -0.081 HD
ATOM     17  C   LIG    1        6.978 -15.170   4.933  0.00  0.00    -0.079 C 
ATOM     18  C   LIG    1        7.553 -15.081   6.369  0.00  0.00    -0.020 C 
ATOM     19  C   LIG    1        8.020 -13.611   6.464  0.00  0.00    -0.020 C 
ATOM     20  C   LIG    1        7.211 -12.861   5.388  0.00  0.00    -0.079 C 
ENDBRANCH  11  15
ENDBRANCH   4   7
BRANCH   1  21
ATOM     21  N   LIG    1        1.789  -7.284  -0.117  0.00  0.00    -0.284 N 
ATOM     22  H   LIG    1        2.194  -6.676  -0.755  0.00  0.00    +0.155 HD
BRANCH  21  27
ATOM     23  C   LIG    1       -0.716  -5.176   1.298  0.00  0.00    +0.083 A 
ATOM     24  C   LIG    1       -1.226  -6.008   2.302  0.00  0.00    +0.049 A 
ATOM     25  C   LIG    1       -0.682  -7.270   2.450  0.00  0.00    +0.116 A 
ATOM     26  N   LIG    1        0.298  -7.652   1.645  0.00  0.00    -0.223 NA
ATOM     27  C   LIG    1        0.762  -6.844   0.703  0.00  0.00    +0.220 A 
ATOM     28  N   LIG    1        0.268  -5.630   0.522  0.00  0.00    -0.214 NA
BRANCH  23  35
ATOM     29  C   LIG    1       -2.093   0.631  -0.569  0.00  0.00    +0.001 A 
ATOM     30  C   LIG    1       -3.080   0.752   0.401  0.00  0.00    +0.001 A 
ATOM     31  C   LIG    1       -3.324  -0.302   1.259  0.00  0.00    +0.015 A 
ATOM     32  C   LIG    1       -2.584  -1.460   1.141  0.00  0.00    +0.020 A 
ATOM     33  C   LIG    1       -1.574  -1.608   0.164  0.00  0.00    -0.010 A 
ATOM     34  C   LIG    1       -0.895  -2.891   0.181  0.00  0.00    +0.026 A 
ATOM     35  C   LIG    1       -1.263  -3.818   1.099  0.00  0.00    +0.039 A 
ATOM     36  S   LIG    1       -2.565  -3.008   2.007  0.00  0.00    -0.087 S 
ATOM     37  C   LIG    1       -1.356  -0.503  -0.696  0.00  0.00    +0.009 A 
ENDBRANCH  23  35
ENDBRANCH  21  27
ENDBRANCH   1  21
TORSDOF 5
