REMARK  Name = ZINC38334038
REMARK                            x       y       z     vdW  Elec       q    Type
REMARK                         _______ _______ _______ _____ _____    ______ ____
ROOT
ATOM      1  C   LIG    1        4.179  -1.731  -1.256  0.00  0.00    +0.055 C 
ATOM      2  C   LIG    1        5.605  -2.256  -1.067  0.00  0.00    -0.050 C 
ATOM      3  C   LIG    1        6.407  -1.982  -2.346  0.00  0.00    -0.021 C 
ATOM      4  C   LIG    1        5.711  -2.683  -3.519  0.00  0.00    +0.017 C 
ATOM      5  C   LIG    1        4.282  -2.146  -3.640  0.00  0.00    +0.085 C 
ATOM      6  C   LIG    1        6.406  -0.471  -2.609  0.00  0.00    +0.017 C 
ATOM      7  C   LIG    1        4.957   0.005  -2.756  0.00  0.00    +0.085 C 
ATOM      8  N   LIG    1        4.050  -1.140  -2.594  0.00  0.00    -0.300 NA
ENDROOT
BRANCH   2   9
ATOM      9  N   LIG    1        6.236  -1.571   0.069  0.00  0.00    +0.385 N 
ATOM     10  H   LIG    1        5.709  -1.757   0.909  0.00  0.00    -0.085 HD
ATOM     11  H   LIG    1        6.253  -0.577  -0.105  0.00  0.00    -0.085 HD
BRANCH   9  12
ATOM     12  C   LIG    1        7.611  -2.062   0.234  0.00  0.00    -0.045 C 
BRANCH  12  13
ATOM     13  C   LIG    1        8.213  -1.459   1.477  0.00  0.00    -0.046 A 
ATOM     14  C   LIG    1        9.048  -0.362   1.378  0.00  0.00    +0.003 A 
ATOM     15  C   LIG    1        9.601   0.191   2.518  0.00  0.00    +0.000 A 
ATOM     16  C   LIG    1        9.319  -0.352   3.758  0.00  0.00    +0.001 A 
ATOM     17  C   LIG    1        8.484  -1.449   3.858  0.00  0.00    +0.020 A 
ATOM     18  C   LIG    1        7.926  -2.000   2.718  0.00  0.00    +0.042 A 
ATOM     19 CL   LIG    1        6.872  -3.373   2.843  0.00  0.00    -0.083 Cl
ENDBRANCH  12  13
ENDBRANCH   9  12
ENDBRANCH   2   9
BRANCH   1  20
ATOM     20  C   LIG    1        3.883  -0.667  -0.197  0.00  0.00    +0.064 C 
BRANCH  20  24
ATOM     21  C   LIG    1        0.134   1.191  -1.057  0.00  0.00    +0.000 A 
ATOM     22  C   LIG    1        1.268   1.964  -0.899  0.00  0.00    +0.000 A 
ATOM     23  C   LIG    1        2.482   1.363  -0.621  0.00  0.00    +0.004 A 
ATOM     24  C   LIG    1        2.560  -0.011  -0.499  0.00  0.00    -0.039 A 
ATOM     25  C   LIG    1        1.426  -0.785  -0.656  0.00  0.00    +0.004 A 
ATOM     26  C   LIG    1        0.213  -0.184  -0.936  0.00  0.00    +0.000 A 
ENDBRANCH  20  24
BRANCH  20  27
ATOM     27  C   LIG    1        3.824  -1.314   1.163  0.00  0.00    -0.039 A 
ATOM     28  C   LIG    1        4.399  -0.686   2.252  0.00  0.00    +0.004 A 
ATOM     29  C   LIG    1        4.344  -1.280   3.500  0.00  0.00    +0.000 A 
ATOM     30  C   LIG    1        3.715  -2.500   3.658  0.00  0.00    +0.000 A 
ATOM     31  C   LIG    1        3.139  -3.127   2.568  0.00  0.00    +0.000 A 
ATOM     32  C   LIG    1        3.190  -2.532   1.322  0.00  0.00    +0.004 A 
ENDBRANCH  20  27
ENDBRANCH   1  20
TORSDOF 6
