REMARK  Name = ZINC26496111
REMARK                            x       y       z     vdW  Elec       q    Type
REMARK                         _______ _______ _______ _____ _____    ______ ____
ROOT
ATOM      1  C   LIG    1       -1.464   2.274   3.489  0.00  0.00    +0.120 A 
ATOM      2  C   LIG    1       -2.258   3.345   3.105  0.00  0.00    +0.046 A 
ATOM      3  C   LIG    1       -2.286   3.740   1.784  0.00  0.00    +0.007 A 
ATOM      4  C   LIG    1       -1.525   3.073   0.838  0.00  0.00    -0.041 A 
ATOM      5  C   LIG    1       -0.733   2.002   1.217  0.00  0.00    -0.009 A 
ATOM      6  C   LIG    1       -0.018   1.459   0.010  0.00  0.00    +0.138 C 
ATOM      7  C   LIG    1        1.435   1.859  -0.002  0.00  0.00    +0.248 C 
ATOM      8  N   LIG    1        2.123   0.696  -0.015  0.00  0.00    -0.238 N 
ATOM      9  H   LIG    1        3.223   0.709  -0.025  0.00  0.00    +0.159 HD
ATOM     10  C   LIG    1        1.302  -0.362  -0.012  0.00  0.00    +0.307 C 
ATOM     11  O   LIG    1        1.686  -1.515  -0.022  0.00  0.00    -0.252 OA
ATOM     12  O   LIG    1        1.889   2.983  -0.000  0.00  0.00    -0.273 OA
ATOM     13  C   LIG    1       -0.757   2.016  -1.213  0.00  0.00    +0.045 C 
ATOM     14  N   LIG    1        0.002  -0.004   0.002  0.00  0.00    -0.281 N 
ATOM     15  H   LIG    1       -0.943  -0.567   0.008  0.00  0.00    +0.152 HD
ATOM     16  C   LIG    1       -1.384   3.312  -0.652  0.00  0.00    +0.038 C 
ATOM     17  C   LIG    1       -0.704   1.605   2.543  0.00  0.00    +0.052 A 
ENDROOT
BRANCH   1  19
ATOM     18  C   LIG    1       -2.244   2.616   5.709  0.00  0.00    +0.277 C 
ATOM     19  O   LIG    1       -1.434   1.881   4.790  0.00  0.00    -0.495 OA
ENDBRANCH   1  19
TORSDOF 1
