REMARK  Name = ZINC36126813
REMARK                            x       y       z     vdW  Elec       q    Type
REMARK                         _______ _______ _______ _____ _____    ______ ____
ROOT
ATOM      1  N   LIG    1        0.713  -0.491   1.192  0.00  0.00    +0.388 N 
ATOM      2  H   LIG    1        1.632  -0.076   1.228  0.00  0.00    -0.084 HD
ATOM      3  H   LIG    1        0.798  -1.495   1.145  0.00  0.00    -0.084 HD
ENDROOT
BRANCH   1   5
ATOM      4  C   LIG    1       -0.019   1.526   0.010  0.00  0.00    -0.013 C 
ATOM      5  C   LIG    1        0.002  -0.004   0.002  0.00  0.00    -0.069 C 
BRANCH   5   6
ATOM      6  C   LIG    1        0.718  -0.497  -1.257  0.00  0.00    +0.019 C 
BRANCH   6   7
ATOM      7  C   LIG    1        0.632  -2.000  -1.327  0.00  0.00    -0.049 A 
ATOM      8  C   LIG    1        1.612  -2.778  -0.739  0.00  0.00    +0.003 A 
ATOM      9  C   LIG    1        1.532  -4.156  -0.804  0.00  0.00    +0.000 A 
ATOM     10  C   LIG    1        0.473  -4.757  -1.457  0.00  0.00    +0.000 A 
ATOM     11  C   LIG    1       -0.508  -3.980  -2.045  0.00  0.00    +0.000 A 
ATOM     12  C   LIG    1       -0.431  -2.602  -1.976  0.00  0.00    +0.003 A 
ENDBRANCH   6   7
ENDBRANCH   5   6
ENDBRANCH   1   5
BRANCH   1  13
ATOM     13  C   LIG    1       -0.040  -0.119   2.398  0.00  0.00    +0.009 C 
BRANCH  13  14
ATOM     14  C   LIG    1        0.672  -0.607   3.590  0.00  0.00    -0.116 C 
ATOM     15  C   LIG    1        1.240  -0.995   4.541  0.00  0.00    -0.068 C 
BRANCH  15  16
ATOM     16  C   LIG    1        1.933  -1.470   5.702  0.00  0.00    +0.025 A 
ATOM     17  C   LIG    1        3.136  -2.162   5.565  0.00  0.00    +0.017 A 
ATOM     18  C   LIG    1        3.799  -2.616   6.686  0.00  0.00    +0.001 A 
ATOM     19  C   LIG    1        3.272  -2.386   7.945  0.00  0.00    +0.000 A 
ATOM     20  C   LIG    1        2.079  -1.700   8.088  0.00  0.00    +0.001 A 
ATOM     21  C   LIG    1        1.409  -1.237   6.974  0.00  0.00    +0.017 A 
ENDBRANCH  15  16
ENDBRANCH  13  14
ENDBRANCH   1  13
TORSDOF 6
