REMARK  Name = ZINC29327208
REMARK                            x       y       z     vdW  Elec       q    Type
REMARK                         _______ _______ _______ _____ _____    ______ ____
ROOT
ATOM      1  C   LIG    1       -0.735   1.996   1.269  0.00  0.00    +0.005 C 
ATOM      2  C   LIG    1       -0.018   1.503   0.010  0.00  0.00    +0.044 C 
ENDROOT
BRANCH   2   3
ATOM      3  N   LIG    1        1.360   2.011  -0.000  0.00  0.00    +0.391 N 
ATOM      4  H   LIG    1        1.345   3.111   0.006  0.00  0.00    -0.088 HD
ATOM      5  H   LIG    1        1.892   1.647   0.891  0.00  0.00    -0.088 HD
ATOM      6  H   LIG    1        1.875   1.657  -0.905  0.00  0.00    -0.088 HD
ENDBRANCH   2   3
BRANCH   2   7
ATOM      7  C   LIG    1       -0.747   2.002  -1.211  0.00  0.00    +0.297 C 
ATOM      8  O   LIG    1       -1.569   1.301  -1.752  0.00  0.00    -0.252 OA
BRANCH   7   9
ATOM      9  O   LIG    1       -0.484   3.225  -1.696  0.00  0.00    -0.481 OA
ATOM     10  H   LIG    1        0.153   3.769  -1.276  0.00  0.00    +0.295 HD
ENDBRANCH   7   9
ENDBRANCH   2   7
BRANCH   2  11
ATOM     11  C   LIG    1        0.002  -0.004   0.002  0.00  0.00    -0.035 C 
ATOM     12  C   LIG    1        1.145  -0.644  -0.012  0.00  0.00    -0.051 C 
BRANCH  12  13
ATOM     13  C   LIG    1        1.166  -2.150  -0.021  0.00  0.00    -0.059 C 
BRANCH  13  14
ATOM     14  N   LIG    1        1.956  -2.623  -1.165  0.00  0.00    +0.380 N 
ATOM     15  H   LIG    1        1.504  -2.257  -2.099  0.00  0.00    -0.090 HD
ATOM     16  H   LIG    1        2.985  -2.243  -1.083  0.00  0.00    -0.090 HD
ATOM     17  H   LIG    1        1.971  -3.723  -1.171  0.00  0.00    -0.090 HD
ENDBRANCH  13  14
ENDBRANCH  12  13
ENDBRANCH   2  11
TORSDOF 6
