REMARK  Name = ZINC00013748
REMARK                            x       y       z     vdW  Elec       q    Type
REMARK                         _______ _______ _______ _____ _____    ______ ____
ROOT
ATOM      1  C   LIG    1       -0.017   1.378   0.010  0.00  0.00    +0.004 A 
ATOM      2  C   LIG    1        1.170   2.088   0.002  0.00  0.00    +0.004 A 
ATOM      3  C   LIG    1        2.378   1.418  -0.012  0.00  0.00    +0.049 A 
ATOM      4  C   LIG    1        2.404   0.031  -0.019  0.00  0.00    +0.163 A 
ATOM      5  C   LIG    1        1.212  -0.683  -0.014  0.00  0.00    +0.162 A 
ATOM      6  O   LIG    1        1.214  -2.043  -0.029  0.00  0.00    -0.484 OA
ATOM      7  C   LIG    1        2.441  -2.689   0.331  0.00  0.00    +0.286 C 
ATOM      8  C   LIG    1        3.587  -1.993  -0.416  0.00  0.00    +0.320 C 
ATOM      9  O   LIG    1        3.602  -0.615  -0.029  0.00  0.00    -0.470 OA
ATOM     10  C   LIG    1        0.002  -0.004   0.002  0.00  0.00    +0.049 A 
ENDROOT
BRANCH   8  11
ATOM     11  C   LIG    1        4.898  -2.639  -0.050  0.00  0.00    +0.283 C 
ATOM     12  N   LIG    1        5.298  -2.767   1.194  0.00  0.00    -0.272 N 
ATOM     13  H   LIG    1        4.806  -2.468   1.974  0.00  0.00    +0.304 HD
ATOM     14  C   LIG    1        6.609  -3.435   1.216  0.00  0.00    +0.276 C 
ATOM     15  C   LIG    1        6.906  -3.678  -0.278  0.00  0.00    +0.268 C 
ATOM     16  N   LIG    1        5.722  -3.121  -0.951  0.00  0.00    -0.234 N 
ATOM     17  H   LIG    1        5.575  -3.110  -1.909  0.00  0.00    +0.291 HD
ENDBRANCH   8  11
TORSDOF 1
