REMARK  Name = ZINC00057140
REMARK                            x       y       z     vdW  Elec       q    Type
REMARK                         _______ _______ _______ _____ _____    ______ ____
ROOT
ATOM      1  C   LIG    1        1.163   2.589   0.005  0.00  0.00    +0.034 A 
ATOM      2  C   LIG    1       -0.024   1.887   0.012  0.00  0.00    +0.020 A 
ATOM      3 BR   LIG    1        0.002  -0.004   0.002  0.00  0.00    -0.050 Br
ATOM      4  C   LIG    1       -1.235   2.560   0.022  0.00  0.00    +0.034 A 
ATOM      5  C   LIG    1       -1.266   3.941   0.035  0.00  0.00    +0.061 A 
ATOM      6 BR   LIG    1       -2.926   4.848   0.057  0.00  0.00    -0.046 Br
ATOM      7  C   LIG    1       -0.082   4.664   0.028  0.00  0.00    +0.145 A 
ATOM      8  C   LIG    1        1.145   3.987   0.013  0.00  0.00    +0.102 A 
ENDROOT
BRANCH   7   9
ATOM      9  O   LIG    1       -0.112   6.021   0.036  0.00  0.00    -0.505 OA
ATOM     10  H   LIG    1       -0.128   6.419  -0.845  0.00  0.00    +0.292 HD
ENDBRANCH   7   9
BRANCH   8  11
ATOM     11  C   LIG    1        2.410   4.744   0.005  0.00  0.00    +0.340 C 
ATOM     12  O   LIG    1        2.391   5.959   0.012  0.00  0.00    -0.245 OA
BRANCH  11  13
ATOM     13  O   LIG    1        3.587   4.089  -0.009  0.00  0.00    -0.477 OA
ATOM     14  H   LIG    1        3.602   3.152  -0.014  0.00  0.00    +0.295 HD
ENDBRANCH  11  13
ENDBRANCH   8  11
TORSDOF 3
