REMARK  Name = ZINC45506748
REMARK                            x       y       z     vdW  Elec       q    Type
REMARK                         _______ _______ _______ _____ _____    ______ ____
ROOT
ATOM      1  C   LIG    1        1.630  -2.375   2.337  0.00  0.00    +0.061 C 
ATOM      2  C   LIG    1        1.484  -3.684   2.599  0.00  0.00    +0.013 C 
ATOM      3  C   LIG    1        0.793  -4.566   1.592  0.00  0.00    +0.061 C 
ATOM      4  N   LIG    1        1.948  -4.232   3.760  0.00  0.00    -0.331 N 
ATOM      5  H   LIG    1        2.072  -5.191   3.827  0.00  0.00    +0.147 HD
ATOM      6  C   LIG    1        2.245  -3.415   4.849  0.00  0.00    +0.144 C 
ATOM      7  C   LIG    1        2.427  -2.054   4.659  0.00  0.00    +0.053 C 
ATOM      8  C   LIG    1        2.720  -1.256   5.758  0.00  0.00    +0.062 C 
ATOM      9  C   LIG    1        2.822  -1.858   7.021  0.00  0.00    +0.023 C 
ATOM     10  C   LIG    1        2.627  -3.211   7.135  0.00  0.00    +0.060 C 
ATOM     11  C   LIG    1        2.705  -3.929   8.458  0.00  0.00    +0.019 C 
ATOM     12  C   LIG    1        3.442  -3.076   9.489  0.00  0.00    +0.002 C 
ATOM     13  C   LIG    1        2.804  -1.681   9.508  0.00  0.00    +0.000 C 
ATOM     14  C   LIG    1        3.149  -0.977   8.197  0.00  0.00    +0.006 C 
ATOM     15  N   LIG    1        2.351  -3.940   6.059  0.00  0.00    -0.295 NA
ATOM     16  H   LIG    1        2.221  -4.896   6.164  0.00  0.00    +0.124 HD
ATOM     17  C   LIG    1        2.322  -1.442   3.288  0.00  0.00    +0.066 C 
ENDROOT
BRANCH  17  18
ATOM     18  C   LIG    1        3.704  -1.140   2.769  0.00  0.00    -0.021 A 
ATOM     19  C   LIG    1        4.076   0.164   2.482  0.00  0.00    +0.007 A 
ATOM     20  C   LIG    1        5.357   0.395   2.005  0.00  0.00    +0.020 A 
ATOM     21  C   LIG    1        6.215  -0.675   1.834  0.00  0.00    +0.111 A 
ATOM     22  N   LIG    1        5.826  -1.903   2.117  0.00  0.00    -0.263 NA
ATOM     23  C   LIG    1        4.617  -2.159   2.577  0.00  0.00    +0.115 A 
ENDBRANCH  17  18
BRANCH   8  24
ATOM     24  N   LIG    1        2.909   0.115   5.609  0.00  0.00    -0.327 NA
ATOM     25  H   LIG    1        3.113   0.663   6.383  0.00  0.00    +0.118 HD
ATOM     26  H   LIG    1        2.836   0.522   4.732  0.00  0.00    +0.118 HD
ENDBRANCH   8  24
BRANCH   1  27
ATOM     27  C   LIG    1        1.122  -1.860   1.124  0.00  0.00    +0.337 C 
ATOM     28  O   LIG    1        0.109  -1.184   1.127  0.00  0.00    -0.245 OA
BRANCH  27  29
ATOM     29  O   LIG    1        1.758  -2.117  -0.038  0.00  0.00    -0.462 OA
BRANCH  29  31
ATOM     30  C   LIG    1        2.042  -1.960  -2.433  0.00  0.00    +0.048 C 
ATOM     31  C   LIG    1        1.188  -1.564  -1.226  0.00  0.00    +0.229 C 
ENDBRANCH  29  31
ENDBRANCH  27  29
ENDBRANCH   1  27
TORSDOF 5
