REMARK  Name = ZINC00001982
REMARK                            x       y       z     vdW  Elec       q    Type
REMARK                         _______ _______ _______ _____ _____    ______ ____
ROOT
ATOM      1  S   LIG    1       -1.541  -2.820  -1.427  0.00  0.00    +0.061 S 
ATOM      2  O   LIG    1       -2.195  -1.949  -2.339  0.00  0.00    -0.153 OA
ATOM      3  O   LIG    1       -2.046  -4.111  -1.111  0.00  0.00    -0.153 OA
ENDROOT
BRANCH   1   4
ATOM      4  C   LIG    1        0.094  -3.055  -2.040  0.00  0.00    +0.106 A 
ATOM      5  C   LIG    1        0.663  -2.103  -2.867  0.00  0.00    +0.029 A 
ATOM      6  C   LIG    1        1.942  -2.280  -3.351  0.00  0.00    +0.017 A 
ATOM      7  C   LIG    1        2.664  -3.425  -3.004  0.00  0.00    +0.059 A 
ATOM      8  C   LIG    1        2.084  -4.383  -2.169  0.00  0.00    +0.017 A 
ATOM      9  C   LIG    1        0.805  -4.189  -1.688  0.00  0.00    +0.029 A 
BRANCH   7  10
ATOM     10  C   LIG    1        4.033  -3.622  -3.518  0.00  0.00    +0.337 C 
ATOM     11  O   LIG    1        4.538  -2.782  -4.250  0.00  0.00    -0.245 OA
BRANCH  10  12
ATOM     12  O   LIG    1        4.662  -4.625  -3.213  0.00  0.00    -0.477 OA
ATOM     13  H   LIG    1        4.275  -5.269  -2.653  0.00  0.00    +0.295 HD
ENDBRANCH  10  12
ENDBRANCH   7  10
ENDBRANCH   1   4
BRANCH   1  14
ATOM     14  N   LIG    1       -1.413  -1.998   0.005  0.00  0.00    -0.177 NA
BRANCH  14  15
ATOM     15  C   LIG    1       -1.433  -0.534   0.013  0.00  0.00    +0.109 C 
BRANCH  15  17
ATOM     16  C   LIG    1       -0.019   1.526   0.010  0.00  0.00    +0.005 C 
ATOM     17  C   LIG    1        0.002  -0.004   0.002  0.00  0.00    +0.014 C 
ENDBRANCH  15  17
ENDBRANCH  14  15
BRANCH  14  18
ATOM     18  C   LIG    1       -1.281  -2.736   1.264  0.00  0.00    +0.109 C 
BRANCH  18  19
ATOM     19  C   LIG    1       -2.660  -2.905   1.904  0.00  0.00    +0.014 C 
ATOM     20  C   LIG    1       -2.522  -3.675   3.218  0.00  0.00    +0.005 C 
ENDBRANCH  18  19
ENDBRANCH  14  18
ENDBRANCH   1  14
TORSDOF 8
