REMARK  Name = ZINC00026019
REMARK                            x       y       z     vdW  Elec       q    Type
REMARK                         _______ _______ _______ _____ _____    ______ ____
ROOT
ATOM      1  C   LIG    1       -0.017   1.378   0.010  0.00  0.00    +0.003 A 
ATOM      2  C   LIG    1        1.163   2.099   0.002  0.00  0.00    +0.015 A 
ATOM      3  C   LIG    1        2.390   1.441  -0.013  0.00  0.00    +0.064 A 
ATOM      4  C   LIG    1        2.421   0.029  -0.021  0.00  0.00    +0.102 A 
ATOM      5  C   LIG    1        1.210  -0.685  -0.013  0.00  0.00    +0.067 A 
ATOM      6  N   LIG    1        1.554  -2.025  -0.025  0.00  0.00    -0.338 N 
ATOM      7  C   LIG    1        2.920  -2.087  -0.038  0.00  0.00    +0.139 A 
ATOM      8  H   LIG    1        0.942  -2.777  -0.023  0.00  0.00    +0.167 HD
ATOM      9  N   LIG    1        3.418  -0.873  -0.036  0.00  0.00    -0.227 NA
ATOM     10  C   LIG    1        0.002  -0.004   0.002  0.00  0.00    +0.028 A 
ENDROOT
BRANCH   7  11
ATOM     11  C   LIG    1        3.714  -3.333  -0.053  0.00  0.00    +0.018 A 
ATOM     12  C   LIG    1        3.071  -4.573  -0.059  0.00  0.00    +0.015 A 
ATOM     13  C   LIG    1        3.816  -5.732  -0.073  0.00  0.00    +0.046 A 
ATOM     14  C   LIG    1        5.203  -5.669  -0.082  0.00  0.00    +0.117 A 
ATOM     15  C   LIG    1        5.846  -4.438  -0.075  0.00  0.00    +0.046 A 
ATOM     16  C   LIG    1        5.109  -3.274  -0.066  0.00  0.00    +0.015 A 
BRANCH  14  17
ATOM     17  O   LIG    1        5.933  -6.814  -0.095  0.00  0.00    -0.507 OA
ATOM     18  H   LIG    1        6.139  -7.139  -0.982  0.00  0.00    +0.292 HD
ENDBRANCH  14  17
ENDBRANCH   7  11
BRANCH   3  19
ATOM     19  C   LIG    1        3.646   2.211  -0.021  0.00  0.00    +0.244 C 
ATOM     20  N   LIG    1        3.610   3.559  -0.014  0.00  0.00    -0.325 N 
ATOM     21  H   LIG    1        4.437   4.066  -0.020  0.00  0.00    +0.145 HD
ATOM     22  H   LIG    1        2.758   4.021  -0.004  0.00  0.00    +0.145 HD
ATOM     23  O   LIG    1        4.715   1.631  -0.035  0.00  0.00    -0.270 OA
ENDBRANCH   3  19
TORSDOF 3
