REMARK  Name = ZINC16623538
REMARK                            x       y       z     vdW  Elec       q    Type
REMARK                         _______ _______ _______ _____ _____    ______ ____
ROOT
ATOM      1  C   LIG    1       -5.825   2.518   0.058  0.00  0.00    +0.249 A 
ATOM      2  N   LIG    1       -5.138   3.637   0.061  0.00  0.00    -0.107 NA
ATOM      3  N   LIG    1       -3.880   3.366   0.056  0.00  0.00    -0.107 NA
ATOM      4  C   LIG    1       -3.714   2.063   0.040  0.00  0.00    +0.249 A 
ATOM      5  O   LIG    1       -4.940   1.500   0.045  0.00  0.00    -0.416 OA
ENDROOT
BRANCH   4   6
ATOM      6  C   LIG    1       -2.423   1.346   0.026  0.00  0.00    +0.042 A 
ATOM      7  C   LIG    1       -2.397  -0.050   0.016  0.00  0.00    +0.017 A 
ATOM      8  C   LIG    1       -1.191  -0.716   0.004  0.00  0.00    +0.050 A 
ATOM      9  C   LIG    1        0.002  -0.004   0.002  0.00  0.00    +0.162 A 
ATOM     10  C   LIG    1       -0.017   1.388   0.010  0.00  0.00    +0.163 A 
ATOM     11  O   LIG    1        1.143   2.100   0.002  0.00  0.00    -0.485 OA
ATOM     12  C   LIG    1        2.335   1.393   0.364  0.00  0.00    +0.270 C 
ATOM     13  C   LIG    1        2.347   0.056  -0.388  0.00  0.00    +0.270 C 
ATOM     14  O   LIG    1        1.181  -0.683  -0.006  0.00  0.00    -0.485 OA
ATOM     15  C   LIG    1       -1.225   2.062   0.019  0.00  0.00    +0.062 A 
ENDBRANCH   4   6
BRANCH   1  19
ATOM     16  C   LIG    1      -10.057   2.167   0.086  0.00  0.00    +0.000 A 
ATOM     17  C   LIG    1       -9.470   3.419   0.090  0.00  0.00    +0.001 A 
ATOM     18  C   LIG    1       -8.096   3.541   0.081  0.00  0.00    +0.013 A 
ATOM     19  C   LIG    1       -7.298   2.395   0.068  0.00  0.00    +0.038 A 
ATOM     20  C   LIG    1       -7.897   1.134   0.058  0.00  0.00    +0.013 A 
ATOM     21  C   LIG    1       -9.272   1.028   0.073  0.00  0.00    +0.001 A 
ENDBRANCH   1  19
TORSDOF 2
