REMARK  Name = ZINC45262037
REMARK                            x       y       z     vdW  Elec       q    Type
REMARK                         _______ _______ _______ _____ _____    ______ ____
ROOT
ATOM      1  C   LIG    1       -0.267   1.503   0.626  0.00  0.00    +0.012 C 
ATOM      2  C   LIG    1       -0.202  -0.028   0.505  0.00  0.00    -0.019 C 
ATOM      3  C   LIG    1        0.047  -0.391  -0.955  0.00  0.00    +0.008 C 
ATOM      4  C   LIG    1        1.464   0.022  -1.374  0.00  0.00    +0.005 C 
ATOM      5  C   LIG    1        2.462  -0.750  -0.510  0.00  0.00    +0.007 C 
ATOM      6  C   LIG    1        2.319  -0.334   0.951  0.00  0.00    -0.021 C 
ATOM      7  C   LIG    1        2.785   1.099   1.179  0.00  0.00    +0.012 C 
ATOM      8  C   LIG    1        3.213  -1.268   1.806  0.00  0.00    +0.045 C 
ATOM      9  C   LIG    1        4.622  -1.124   1.293  0.00  0.00    -0.008 A 
ATOM     10  C   LIG    1        5.820  -1.242   1.990  0.00  0.00    +0.106 A 
ATOM     11  N   LIG    1        6.801  -1.030   1.146  0.00  0.00    -0.307 N 
ATOM     12  H   LIG    1        7.747  -1.048   1.358  0.00  0.00    +0.186 HD
ATOM     13  N   LIG    1        6.247  -0.771  -0.117  0.00  0.00    -0.303 N 
ATOM     14  H   LIG    1        6.746  -0.582  -0.927  0.00  0.00    +0.186 HD
ATOM     15  C   LIG    1        4.909  -0.836  -0.002  0.00  0.00    +0.043 A 
ATOM     16  C   LIG    1        3.870  -0.643  -1.076  0.00  0.00    +0.010 C 
ATOM     17  C   LIG    1        4.113   0.693  -1.780  0.00  0.00    +0.018 C 
ATOM     18  C   LIG    1        4.068  -1.766  -2.116  0.00  0.00    +0.018 C 
ATOM     19  C   LIG    1       -1.565  -0.580   0.952  0.00  0.00    -0.005 C 
ATOM     20  C   LIG    1       -1.571  -2.088   0.664  0.00  0.00    +0.016 C 
ATOM     21  C   LIG    1       -2.691   0.042   0.139  0.00  0.00    +0.012 C 
ATOM     22  C   LIG    1       -4.061  -0.242   0.755  0.00  0.00    +0.019 C 
ATOM     23  C   LIG    1       -4.128   0.276   2.187  0.00  0.00    +0.074 C 
ATOM     24  C   LIG    1       -3.134  -0.488   3.056  0.00  0.00    +0.033 C 
ATOM     25  C   LIG    1       -3.544  -1.946   3.214  0.00  0.00    +0.015 C 
ATOM     26  C   LIG    1       -4.957  -2.069   3.784  0.00  0.00    -0.034 C 
ATOM     27  C   LIG    1       -5.008  -1.518   5.208  0.00  0.00    +0.011 C 
ATOM     28  C   LIG    1       -5.345  -3.555   3.818  0.00  0.00    +0.011 C 
ATOM     29  C   LIG    1       -5.943  -1.325   2.887  0.00  0.00    +0.007 C 
ATOM     30  C   LIG    1       -5.547   0.139   2.736  0.00  0.00    +0.019 C 
ATOM     31  C   LIG    1       -1.754  -0.402   2.427  0.00  0.00    -0.063 C 
ATOM     32  C   LIG    1       -0.761  -0.168   3.245  0.00  0.00    -0.026 C 
ATOM     33  C   LIG    1        0.676  -0.034   2.837  0.00  0.00    +0.031 C 
ATOM     34  C   LIG    1        0.884  -0.569   1.420  0.00  0.00    +0.006 C 
ENDROOT
BRANCH  23  35
ATOM     35  C   LIG    1       -3.770   1.746   2.211  0.00  0.00    +0.312 C 
ATOM     36  O   LIG    1       -4.437   2.546   1.577  0.00  0.00    -0.250 OA
BRANCH  35  37
ATOM     37  O   LIG    1       -2.814   2.130   2.863  0.00  0.00    -0.480 OA
ATOM     38  H   LIG    1       -2.302   1.515   3.350  0.00  0.00    +0.295 HD
ENDBRANCH  35  37
ENDBRANCH  23  35
TORSDOF 2
