REMARK  Name = ZINC58650266
REMARK                            x       y       z     vdW  Elec       q    Type
REMARK                         _______ _______ _______ _____ _____    ______ ____
ROOT
ATOM      1  C   LIG    1        0.065  -2.830   0.027  0.00  0.00    +0.081 A 
ATOM      2  C   LIG    1        0.113  -4.226   0.081  0.00  0.00    +0.068 A 
ATOM      3  C   LIG    1       -0.479  -4.946  -0.943  0.00  0.00    +0.135 A 
ATOM      4 CL   LIG    1       -0.448  -6.681  -0.927  0.00  0.00    -0.062 Cl
ATOM      5  N   LIG    1       -1.069  -4.295  -1.935  0.00  0.00    -0.203 NA
ATOM      6  C   LIG    1       -1.099  -2.971  -1.960  0.00  0.00    +0.214 A 
ATOM      7  N   LIG    1       -0.550  -2.244  -0.999  0.00  0.00    -0.214 NA
ENDROOT
BRANCH   1  13
ATOM      8  C   LIG    1        0.625  -0.618   1.041  0.00  0.00    +0.129 A 
ATOM      9  C   LIG    1        1.202   0.137   2.050  0.00  0.00    +0.046 A 
ATOM     10  C   LIG    1        1.835  -0.489   3.107  0.00  0.00    +0.004 A 
ATOM     11  C   LIG    1        1.898  -1.871   3.164  0.00  0.00    +0.001 A 
ATOM     12  C   LIG    1        1.329  -2.635   2.167  0.00  0.00    +0.013 A 
ATOM     13  C   LIG    1        0.683  -2.014   1.099  0.00  0.00    +0.042 A 
BRANCH   8  15
ATOM     14  C   LIG    1       -0.017   1.425   0.010  0.00  0.00    +0.277 C 
ATOM     15  O   LIG    1        0.002  -0.004   0.002  0.00  0.00    -0.494 OA
ENDBRANCH   8  15
ENDBRANCH   1  13
BRANCH   6  16
ATOM     16  N   LIG    1       -1.725  -2.330  -3.015  0.00  0.00    -0.327 N 
ATOM     17  H   LIG    1       -1.755  -1.361  -3.045  0.00  0.00    +0.145 HD
ATOM     18  H   LIG    1       -2.135  -2.850  -3.724  0.00  0.00    +0.145 HD
ENDBRANCH   6  16
TORSDOF 3
