REMARK  Name = ZINC20644066
REMARK                            x       y       z     vdW  Elec       q    Type
REMARK                         _______ _______ _______ _____ _____    ______ ____
ROOT
ATOM      1  C   LIG    1       -1.183   3.483   0.033  0.00  0.00    +0.039 A 
ATOM      2  C   LIG    1        0.036   4.167   0.025  0.00  0.00    +0.014 A 
ATOM      3  C   LIG    1        1.223   3.470   0.009  0.00  0.00    +0.016 A 
ATOM      4  C   LIG    1        1.206   2.077   0.002  0.00  0.00    +0.065 A 
ATOM      5  C   LIG    1       -0.017   1.383   0.010  0.00  0.00    +0.080 A 
ATOM      6  N   LIG    1        0.002  -0.004   0.002  0.00  0.00    -0.223 NA
ATOM      7  C   LIG    1        1.167  -0.674  -0.012  0.00  0.00    +0.169 A 
ATOM      8  N   LIG    1        2.360  -0.059  -0.020  0.00  0.00    -0.283 N 
ATOM      9  C   LIG    1        2.454   1.288  -0.013  0.00  0.00    +0.263 A 
ATOM     10  O   LIG    1        3.539   1.837  -0.021  0.00  0.00    -0.267 OA
ATOM     11  C   LIG    1       -1.208   2.091   0.030  0.00  0.00    +0.041 A 
ENDROOT
BRANCH   1  14
ATOM     12  N   LIG    1       -2.434   5.590   0.058  0.00  0.00    -0.311 N 
ATOM     13  H   LIG    1       -1.473   6.126   0.052  0.00  0.00    +0.149 HD
ATOM     14  C   LIG    1       -2.454   4.243   0.050  0.00  0.00    +0.244 C 
ATOM     15  O   LIG    1       -3.516   3.651   0.057  0.00  0.00    -0.270 OA
BRANCH  12  16
ATOM     16  C   LIG    1       -3.691   6.342   0.075  0.00  0.00    +0.102 C 
BRANCH  16  17
ATOM     17  C   LIG    1       -3.389   7.842   0.081  0.00  0.00    +0.000 C 
BRANCH  17  18
ATOM     18  C   LIG    1       -4.702   8.627   0.099  0.00  0.00    -0.077 C 
BRANCH  18  20
ATOM     19  C   LIG    1       -3.774  10.480  -1.153  0.00  0.00    -0.096 C 
ATOM     20  N   LIG    1       -4.412  10.067   0.105  0.00  0.00    +0.381 N 
ATOM     21  H   LIG    1       -3.705  10.266   0.923  0.00  0.00    -0.082 HD
BRANCH  20  22
ATOM     22  C   LIG    1       -5.629  10.848   0.360  0.00  0.00    -0.043 C 
BRANCH  22  23
ATOM     23  C   LIG    1       -5.260  12.289   0.602  0.00  0.00    -0.064 A 
ATOM     24  C   LIG    1       -4.994  12.728   1.886  0.00  0.00    +0.002 A 
ATOM     25  C   LIG    1       -4.650  14.048   2.107  0.00  0.00    +0.000 A 
ATOM     26  C   LIG    1       -4.582  14.932   1.047  0.00  0.00    +0.000 A 
ATOM     27  C   LIG    1       -4.854  14.495  -0.236  0.00  0.00    +0.000 A 
ATOM     28  C   LIG    1       -5.192  13.173  -0.459  0.00  0.00    +0.002 A 
ENDBRANCH  22  23
ENDBRANCH  20  22
ENDBRANCH  18  20
ENDBRANCH  17  18
ENDBRANCH  16  17
ENDBRANCH  12  16
ENDBRANCH   1  14
BRANCH   7  29
ATOM     29  S   LIG    1        1.127  -2.386  -0.021  0.00  0.00    -0.105 S 
ATOM     30  H   LIG    1       -0.165  -2.809  -0.011  0.00  0.00    +0.110 HD
ENDBRANCH   7  29
BRANCH   8  31
ATOM     31  C   LIG    1        3.583  -0.865  -0.035  0.00  0.00    +0.162 C 
BRANCH  31  32
ATOM     32  C   LIG    1        3.990  -1.134  -1.461  0.00  0.00    -0.027 A 
ATOM     33  C   LIG    1        3.523  -2.260  -2.112  0.00  0.00    +0.007 A 
ATOM     34  C   LIG    1        3.891  -2.505  -3.421  0.00  0.00    +0.020 A 
ATOM     35  C   LIG    1        4.737  -1.628  -4.077  0.00  0.00    +0.041 A 
ATOM     36 CL   LIG    1        5.205  -1.938  -5.720  0.00  0.00    -0.084 Cl
ATOM     37  C   LIG    1        5.209  -0.504  -3.423  0.00  0.00    +0.020 A 
ATOM     38  C   LIG    1        4.835  -0.258  -2.115  0.00  0.00    +0.007 A 
ENDBRANCH  31  32
ENDBRANCH   8  31
TORSDOF 10
