REMARK  Name = ZINC18187616
REMARK                            x       y       z     vdW  Elec       q    Type
REMARK                         _______ _______ _______ _____ _____    ______ ____
ROOT
ATOM      1  C   LIG    1       -0.018   1.458   0.010  0.00  0.00    +0.034 A 
ATOM      2  C   LIG    1        1.264   1.861   0.000  0.00  0.00    +0.085 A 
ATOM      3  N   LIG    1        2.092   0.767  -0.014  0.00  0.00    -0.346 N 
ATOM      4  C   LIG    1        1.353  -0.380  -0.013  0.00  0.00    +0.147 A 
ATOM      5  N   LIG    1        1.669  -1.683  -0.024  0.00  0.00    -0.198 NA
ATOM      6  C   LIG    1        0.737  -2.609  -0.021  0.00  0.00    +0.195 A 
ATOM      7  N   LIG    1       -0.591  -2.301  -0.006  0.00  0.00    -0.295 N 
ATOM      8  H   LIG    1       -1.252  -3.011  -0.004  0.00  0.00    +0.172 HD
ATOM      9  C   LIG    1       -0.990  -1.009   0.005  0.00  0.00    +0.262 A 
ATOM     10  O   LIG    1       -2.174  -0.720   0.018  0.00  0.00    -0.267 OA
ATOM     11  H   LIG    1        3.061   0.804  -0.022  0.00  0.00    +0.167 HD
ATOM     12  C   LIG    1        0.002  -0.004   0.002  0.00  0.00    +0.083 A 
ENDROOT
BRANCH   6  13
ATOM     13  N   LIG    1        1.113  -3.929  -0.032  0.00  0.00    -0.329 N 
ATOM     14  H   LIG    1        2.054  -4.165  -0.043  0.00  0.00    +0.145 HD
ATOM     15  H   LIG    1        0.438  -4.625  -0.029  0.00  0.00    +0.145 HD
ENDBRANCH   6  13
TORSDOF 1
