REMARK  Name = ZINC18115268
REMARK                            x       y       z     vdW  Elec       q    Type
REMARK                         _______ _______ _______ _____ _____    ______ ____
ROOT
ATOM      1  C   LIG    1        1.486   0.406  -4.846  0.00  0.00    +0.106 C 
ENDROOT
BRANCH   1   2
ATOM      2  S   LIG    1        1.658  -0.144  -3.126  0.00  0.00    -0.151 S 
BRANCH   2   3
ATOM      3  C   LIG    1       -0.052  -0.354  -2.560  0.00  0.00    +0.124 C 
BRANCH   3   6
ATOM      4  C   LIG    1       -0.092   1.486  -0.027  0.00  0.00    +0.065 C 
ATOM      5  C   LIG    1       -0.070  -0.020  -0.038  0.00  0.00    +0.034 A 
ATOM      6  C   LIG    1       -0.053  -0.815  -1.125  0.00  0.00    +0.046 A 
ATOM      7  N   LIG    1       -0.037  -2.090  -0.707  0.00  0.00    -0.349 N 
ATOM      8  H   LIG    1       -0.023  -2.870  -1.283  0.00  0.00    +0.166 HD
ATOM      9  C   LIG    1       -0.044  -2.115   0.598  0.00  0.00    +0.171 A 
ATOM     10  N   LIG    1       -0.058  -0.844   1.055  0.00  0.00    -0.350 N 
ATOM     11  H   LIG    1       -0.062  -0.567   1.985  0.00  0.00    +0.166 HD
ENDBRANCH   3   6
ENDBRANCH   2   3
ENDBRANCH   1   2
BRANCH   1  12
ATOM     12  C   LIG    1        2.874   0.624  -5.453  0.00  0.00    +0.206 C 
BRANCH  12  13
ATOM     13  N   LIG    1        2.735   1.068  -6.842  0.00  0.00    -0.274 N 
ATOM     14  H   LIG    1        1.853   1.179  -7.230  0.00  0.00    +0.258 HD
BRANCH  13  15
ATOM     15  C   LIG    1        3.855   1.329  -7.596  0.00  0.00    +0.395 C 
ATOM     16  N   LIG    1        5.039   1.180  -7.075  0.00  0.00    -0.116 NA
ATOM     17  C   LIG    1        6.232   1.349  -7.908  0.00  0.00    +0.291 C 
BRANCH  15  18
ATOM     18  N   LIG    1        3.724   1.747  -8.904  0.00  0.00    -0.178 N 
ATOM     19  H   LIG    1        4.512   1.859  -9.458  0.00  0.00    +0.278 HD
BRANCH  18  20
ATOM     20  C   LIG    1        2.495   2.002  -9.414  0.00  0.00    +0.255 C 
ATOM     21  N   LIG    1        1.465   2.217  -9.841  0.00  0.00    -0.154 NA
ENDBRANCH  18  20
ENDBRANCH  15  18
ENDBRANCH  13  15
ENDBRANCH  12  13
ENDBRANCH   1  12
TORSDOF 8
