REMARK  Name = ZINC18098320
REMARK                            x       y       z     vdW  Elec       q    Type
REMARK                         _______ _______ _______ _____ _____    ______ ____
ROOT
ATOM      1  C   LIG    1       -0.669  -9.146  -0.068  0.00  0.00    +0.003 C 
ENDROOT
BRANCH   1   2
ATOM      2  C   LIG    1       -0.997  -7.758  -0.621  0.00  0.00    +0.037 C 
BRANCH   2   3
ATOM      3  C   LIG    1       -2.493  -7.672  -0.930  0.00  0.00    +0.196 C 
BRANCH   3   4
ATOM      4  N   LIG    1       -2.807  -6.343  -1.460  0.00  0.00    -0.276 N 
ATOM      5  H   LIG    1       -2.103  -5.684  -1.563  0.00  0.00    +0.258 HD
BRANCH   4   7
ATOM      6  N   LIG    1       -4.360  -4.867  -2.367  0.00  0.00    -0.003 NA
ATOM      7  C   LIG    1       -4.092  -6.032  -1.809  0.00  0.00    +0.390 C 
BRANCH   7   8
ATOM      8  N   LIG    1       -5.098  -6.929  -1.580  0.00  0.00    -0.289 N 
ATOM      9  H   LIG    1       -4.901  -7.785  -1.169  0.00  0.00    +0.255 HD
ATOM     10  H   LIG    1       -6.009  -6.708  -1.827  0.00  0.00    +0.255 HD
ENDBRANCH   7   8
BRANCH   6  11
ATOM     11  C   LIG    1       -3.363  -3.997  -2.623  0.00  0.00    +0.429 C 
ATOM     12  N   LIG    1       -2.552  -3.629  -1.662  0.00  0.00    -0.126 NA
ATOM     13  H   LIG    1       -1.792  -3.060  -1.861  0.00  0.00    +0.306 HD
BRANCH  11  14
ATOM     14  N   LIG    1       -3.196  -3.492  -3.899  0.00  0.00    -0.241 N 
ATOM     15  H   LIG    1       -2.439  -2.920  -4.099  0.00  0.00    +0.265 HD
BRANCH  14  22
ATOM     16  C   LIG    1       -5.465  -3.950  -4.588  0.00  0.00    +0.043 A 
ATOM     17  C   LIG    1       -6.375  -4.261  -5.580  0.00  0.00    +0.023 A 
ATOM     18  C   LIG    1       -5.946  -4.430  -6.885  0.00  0.00    +0.041 A 
ATOM     19 CL   LIG    1       -7.092  -4.821  -8.129  0.00  0.00    -0.084 Cl
ATOM     20  C   LIG    1       -4.606  -4.289  -7.200  0.00  0.00    +0.023 A 
ATOM     21  C   LIG    1       -3.692  -3.978  -6.212  0.00  0.00    +0.043 A 
ATOM     22  C   LIG    1       -4.120  -3.807  -4.901  0.00  0.00    +0.100 A 
ENDBRANCH  14  22
ENDBRANCH  11  14
ENDBRANCH   6  11
ENDBRANCH   4   7
ENDBRANCH   3   4
ENDBRANCH   2   3
ENDBRANCH   1   2
BRANCH   1  23
ATOM     23  C   LIG    1        0.827  -9.232   0.241  0.00  0.00    +0.003 C 
BRANCH  23  24
ATOM     24  C   LIG    1        1.155 -10.620   0.794  0.00  0.00    +0.037 C 
BRANCH  24  25
ATOM     25  C   LIG    1        2.651 -10.706   1.103  0.00  0.00    +0.196 C 
BRANCH  25  26
ATOM     26  N   LIG    1        2.965 -12.035   1.633  0.00  0.00    -0.276 N 
ATOM     27  H   LIG    1        2.261 -12.695   1.736  0.00  0.00    +0.258 HD
BRANCH  26  28
ATOM     28  C   LIG    1        4.257 -12.348   1.984  0.00  0.00    +0.388 C 
ATOM     29  N   LIG    1        5.178 -11.427   1.964  0.00  0.00    -0.129 NA
ATOM     30  H   LIG    1        6.102 -11.662   2.141  0.00  0.00    +0.306 HD
BRANCH  28  31
ATOM     31  N   LIG    1        4.577 -13.636   2.357  0.00  0.00    -0.186 N 
ATOM     32  H   LIG    1        5.465 -13.837   2.693  0.00  0.00    +0.271 HD
BRANCH  31  33
ATOM     33  C   LIG    1        3.638 -14.637   2.253  0.00  0.00    +0.394 C 
ATOM     34  N   LIG    1        2.480 -14.394   1.686  0.00  0.00    -0.073 NA
BRANCH  34  35
ATOM     35  C   LIG    1        1.581 -15.411   1.501  0.00  0.00    +0.142 A 
ATOM     36  C   LIG    1        1.977 -16.591   0.869  0.00  0.00    +0.047 A 
ATOM     37  C   LIG    1        1.067 -17.611   0.685  0.00  0.00    +0.023 A 
ATOM     38  C   LIG    1       -0.238 -17.466   1.126  0.00  0.00    +0.041 A 
ATOM     39 CL   LIG    1       -1.377 -18.755   0.890  0.00  0.00    -0.084 Cl
ATOM     40  C   LIG    1       -0.637 -16.299   1.754  0.00  0.00    +0.023 A 
ATOM     41  C   LIG    1        0.265 -15.274   1.949  0.00  0.00    +0.047 A 
ENDBRANCH  34  35
BRANCH  33  42
ATOM     42  N   LIG    1        3.912 -15.890   2.743  0.00  0.00    -0.288 N 
ATOM     43  H   LIG    1        4.829 -16.151   2.919  0.00  0.00    +0.255 HD
ATOM     44  H   LIG    1        3.189 -16.513   2.913  0.00  0.00    +0.255 HD
ENDBRANCH  33  42
ENDBRANCH  31  33
ENDBRANCH  28  31
ENDBRANCH  26  28
ENDBRANCH  25  26
ENDBRANCH  24  25
ENDBRANCH  23  24
ENDBRANCH   1  23
TORSDOF 17
