REMARK  Name = ZINC39300628
REMARK                            x       y       z     vdW  Elec       q    Type
REMARK                         _______ _______ _______ _____ _____    ______ ____
ROOT
ATOM      1  C   LIG    1       -2.248  -0.592   0.953  0.00  0.00    +0.009 C 
ATOM      2  C   LIG    1       -0.997  -1.312   0.521  0.00  0.00    +0.006 C 
ATOM      3  C   LIG    1       -0.804  -1.608  -0.825  0.00  0.00    +0.005 C 
ATOM      4  C   LIG    1        0.316  -2.258  -1.250  0.00  0.00    +0.007 C 
ATOM      5  C   LIG    1        1.295  -2.639  -0.322  0.00  0.00    +0.029 C 
ATOM      6  C   LIG    1        1.110  -2.344   1.051  0.00  0.00    +0.017 C 
ATOM      7  C   LIG    1        2.109  -2.738   1.960  0.00  0.00    +0.021 C 
ATOM      8  C   LIG    1        3.209  -3.385   1.487  0.00  0.00    +0.083 C 
ATOM      9  N   LIG    1        3.366  -3.652   0.197  0.00  0.00    -0.298 NA
ATOM     10  H   LIG    1        4.170  -4.115  -0.088  0.00  0.00    +0.124 HD
ATOM     11  C   LIG    1        2.473  -3.315  -0.713  0.00  0.00    +0.142 C 
ATOM     12  C   LIG    1       -0.054  -1.666   1.464  0.00  0.00    +0.078 C 
ENDROOT
BRANCH  11  13
ATOM     13  N   LIG    1        2.689  -3.621  -2.047  0.00  0.00    -0.328 N 
ATOM     14  H   LIG    1        2.074  -3.299  -2.725  0.00  0.00    +0.148 HD
BRANCH  13  15
ATOM     15  C   LIG    1        3.794  -4.394  -2.417  0.00  0.00    +0.028 A 
ATOM     16  C   LIG    1        4.146  -5.509  -1.666  0.00  0.00    +0.024 A 
ATOM     17  C   LIG    1        5.237  -6.271  -2.034  0.00  0.00    +0.022 A 
ATOM     18  C   LIG    1        5.981  -5.925  -3.148  0.00  0.00    +0.041 A 
ATOM     19 CL   LIG    1        7.352  -6.885  -3.607  0.00  0.00    -0.084 Cl
ATOM     20  C   LIG    1        5.633  -4.815  -3.898  0.00  0.00    +0.022 A 
ATOM     21  C   LIG    1        4.538  -4.053  -3.539  0.00  0.00    +0.024 A 
ENDBRANCH  13  15
ENDBRANCH  11  13
BRANCH  12  22
ATOM     22  N   LIG    1       -0.253  -1.361   2.810  0.00  0.00    -0.325 N 
ATOM     23  H   LIG    1       -0.522  -2.057   3.430  0.00  0.00    +0.148 HD
BRANCH  22  24
ATOM     24  C   LIG    1       -0.065  -0.064   3.263  0.00  0.00    +0.128 A 
ATOM     25  C   LIG    1       -0.131   0.212   4.638  0.00  0.00    +0.042 A 
ATOM     26  C   LIG    1        0.062   1.526   5.070  0.00  0.00    +0.015 A 
ATOM     27  C   LIG    1        0.311   2.502   4.120  0.00  0.00    +0.020 A 
ATOM     28  C   LIG    1        0.362   2.154   2.783  0.00  0.00    +0.113 A 
ATOM     29  N   LIG    1        0.181   0.905   2.396  0.00  0.00    -0.240 NA
BRANCH  25  30
ATOM     30  C   LIG    1       -0.401  -0.869   5.610  0.00  0.00    +0.105 A 
ATOM     31  C   LIG    1       -0.307  -0.633   6.995  0.00  0.00    +0.134 A 
ATOM     32  N   LIG    1       -0.001   0.440   7.759  0.00  0.00    -0.232 NA
ATOM     33  C   LIG    1       -0.062   0.109   9.017  0.00  0.00    +0.198 A 
ATOM     34  N   LIG    1       -0.413  -1.202   9.137  0.00  0.00    -0.329 N 
ATOM     35  H   LIG    1       -0.527  -1.692   9.967  0.00  0.00    +0.168 HD
ATOM     36  C   LIG    1       -0.576  -1.702   7.870  0.00  0.00    +0.161 A 
ATOM     37  N   LIG    1       -0.905  -2.884   7.362  0.00  0.00    -0.216 NA
ATOM     38  C   LIG    1       -0.980  -3.059   6.059  0.00  0.00    +0.224 A 
ATOM     39  N   LIG    1       -0.744  -2.088   5.198  0.00  0.00    -0.233 NA
ENDBRANCH  25  30
ENDBRANCH  22  24
ENDBRANCH  12  22
TORSDOF 5
