REMARK  Name = ZINC19873373
REMARK                            x       y       z     vdW  Elec       q    Type
REMARK                         _______ _______ _______ _____ _____    ______ ____
ROOT
ATOM      1  N   LIG    1        2.421   7.088  -1.365  0.00  0.00    +0.385 N 
ATOM      2  H   LIG    1        1.417   7.075  -1.814  0.00  0.00    -0.081 HD
ATOM      3  C   LIG    1        3.289   6.213  -2.166  0.00  0.00    -0.059 C 
ATOM      4  C   LIG    1        3.321   6.716  -3.611  0.00  0.00    +0.086 C 
ATOM      5  N   LIG    1        3.810   8.102  -3.634  0.00  0.00    -0.333 N 
ATOM      6  C   LIG    1        2.943   8.977  -2.833  0.00  0.00    +0.086 C 
ATOM      7  C   LIG    1        2.911   8.474  -1.388  0.00  0.00    -0.059 C 
ENDROOT
BRANCH   5   8
ATOM      8  C   LIG    1        3.921   8.572  -4.946  0.00  0.00    +0.030 A 
ATOM      9  C   LIG    1        3.249   9.725  -5.331  0.00  0.00    +0.026 A 
ATOM     10  C   LIG    1        3.365  10.190  -6.626  0.00  0.00    +0.040 A 
ATOM     11  C   LIG    1        4.141   9.503  -7.543  0.00  0.00    +0.124 A 
ATOM     12  F   LIG    1        4.249   9.957  -8.811  0.00  0.00    -0.205 F 
ATOM     13  C   LIG    1        4.808   8.351  -7.163  0.00  0.00    +0.040 A 
ATOM     14  C   LIG    1        4.700   7.884  -5.868  0.00  0.00    +0.026 A 
ENDBRANCH   5   8
BRANCH   1  15
ATOM     15  C   LIG    1        2.304   6.594   0.014  0.00  0.00    -0.023 C 
BRANCH  15  21
ATOM     16  C   LIG    1       -1.240   1.758   0.018  0.00  0.00    +0.005 A 
ATOM     17  C   LIG    1       -0.013   1.076   0.008  0.00  0.00    +0.018 A 
ATOM     18  C   LIG    1        1.149   1.763   0.001  0.00  0.00    +0.092 A 
ATOM     19  N   LIG    1        1.148   3.128   0.007  0.00  0.00    -0.308 N 
ATOM     20  C   LIG    1        2.156   4.054   0.002  0.00  0.00    +0.111 A 
ATOM     21  C   LIG    1        1.576   5.274   0.014  0.00  0.00    +0.018 A 
ATOM     22  N   LIG    1        0.250   5.117   0.026  0.00  0.00    -0.345 N 
ATOM     23  H   LIG    1       -0.408   5.998   0.037  0.00  0.00    +0.167 HD
ATOM     24  C   LIG    1       -0.034   3.822   0.022  0.00  0.00    +0.115 A 
ATOM     25  C   LIG    1       -1.255   3.119   0.031  0.00  0.00    +0.045 A 
ENDBRANCH  15  21
ENDBRANCH   1  15
TORSDOF 3
