REMARK  Name = ZINC22032760
REMARK                            x       y       z     vdW  Elec       q    Type
REMARK                         _______ _______ _______ _____ _____    ______ ____
ROOT
ATOM      1  C   LIG    1        1.257  -4.037  -0.071  0.00  0.00    +0.092 C 
ATOM      2  C   LIG    1        2.018  -4.496   1.130  0.00  0.00    +0.060 C 
ATOM      3  C   LIG    1        1.820  -5.948   1.419  0.00  0.00    -0.032 A 
ATOM      4  C   LIG    1        0.964  -6.327   2.446  0.00  0.00    +0.005 A 
ATOM      5  C   LIG    1        0.748  -7.669   2.697  0.00  0.00    +0.000 A 
ATOM      6  C   LIG    1        1.374  -8.636   1.932  0.00  0.00    +0.001 A 
ATOM      7  C   LIG    1        2.236  -8.259   0.918  0.00  0.00    +0.015 A 
ATOM      8  C   LIG    1        2.460  -6.906   0.689  0.00  0.00    +0.016 A 
ATOM      9  S   LIG    1        3.619  -6.387  -0.527  0.00  0.00    -0.089 S 
ATOM     10  C   LIG    1        2.713  -5.447  -1.702  0.00  0.00    +0.018 A 
ATOM     11  C   LIG    1        3.009  -5.731  -3.047  0.00  0.00    +0.017 A 
ATOM     12  C   LIG    1        2.403  -5.061  -4.079  0.00  0.00    +0.021 A 
ATOM     13  C   LIG    1        1.476  -4.076  -3.786  0.00  0.00    +0.041 A 
ATOM     14 CL   LIG    1        0.703  -3.193  -5.065  0.00  0.00    -0.084 Cl
ATOM     15  C   LIG    1        1.174  -3.802  -2.474  0.00  0.00    +0.026 A 
ATOM     16  C   LIG    1        1.776  -4.488  -1.408  0.00  0.00    -0.015 A 
ENDROOT
BRANCH   1  21
ATOM     17  C   LIG    1        1.768   1.484   1.008  0.00  0.00    +0.105 C 
ATOM     18  N   LIG    1        1.788   0.015   1.000  0.00  0.00    -0.303 NA
ATOM     19  C   LIG    1        0.423  -0.531   1.022  0.00  0.00    +0.099 C 
ATOM     20  C   LIG    1        0.488  -2.058   1.093  0.00  0.00    +0.100 C 
ATOM     21  N   LIG    1        1.237  -2.568  -0.063  0.00  0.00    -0.293 NA
ATOM     22  C   LIG    1        2.602  -2.023  -0.086  0.00  0.00    +0.100 C 
ATOM     23  C   LIG    1        2.537  -0.495  -0.157  0.00  0.00    +0.099 C 
ENDBRANCH   1  21
TORSDOF 1
