REMARK  Name = ZINC38140940
REMARK                            x       y       z     vdW  Elec       q    Type
REMARK                         _______ _______ _______ _____ _____    ______ ____
ROOT
ATOM      1  C   LIG    1       -0.297  -1.429  -0.607  0.00  0.00    +0.152 C 
ATOM      2  C   LIG    1       -0.341  -2.861  -0.114  0.00  0.00    +0.165 C 
ATOM      3  O   LIG    1       -1.140  -3.644  -0.583  0.00  0.00    -0.295 OA
ATOM      4  C   LIG    1        0.612  -3.312   0.969  0.00  0.00    +0.127 C 
ATOM      5  C   LIG    1        0.751  -2.233   2.018  0.00  0.00    +0.157 C 
ATOM      6  C   LIG    1        0.801  -0.777   1.610  0.00  0.00    +0.093 C 
ATOM      7  C   LIG    1        2.110  -0.494   0.869  0.00  0.00    +0.027 C 
ATOM      8  C   LIG    1        2.227  -1.294  -0.420  0.00  0.00    +0.002 C 
ATOM      9  O   LIG    1        0.822  -2.537   3.192  0.00  0.00    -0.296 OA
ATOM     10  C   LIG    1        1.019  -1.158  -1.336  0.00  0.00    -0.003 C 
ATOM     11  C   LIG    1        0.987   0.261  -1.924  0.00  0.00    +0.013 C 
ATOM     12  C   LIG    1       -0.337  -0.542   0.628  0.00  0.00    +0.168 C 
ATOM     13  O   LIG    1       -1.201   0.279   0.814  0.00  0.00    -0.295 OA
ENDROOT
BRANCH   1  14
ATOM     14  C   LIG    1       -1.479  -1.141  -1.507  0.00  0.00    +0.157 C 
ATOM     15  O   LIG    1       -1.303  -0.897  -2.676  0.00  0.00    -0.296 OA
BRANCH  14  17
ATOM     16  C   LIG    1       -3.493   0.238  -1.065  0.00  0.00    +0.015 C 
ATOM     17  C   LIG    1       -2.877  -1.157  -0.943  0.00  0.00    +0.051 C 
ATOM     18  C   LIG    1       -3.729  -2.161  -1.722  0.00  0.00    +0.015 C 
ENDBRANCH  14  17
ENDBRANCH   1  14
BRANCH   4  19
ATOM     19  C   LIG    1        0.039  -4.574   1.635  0.00  0.00    +0.046 C 
BRANCH  19  20
ATOM     20  C   LIG    1        1.032  -5.110   2.634  0.00  0.00    -0.027 C 
ATOM     21  C   LIG    1        0.670  -5.303   3.878  0.00  0.00    -0.080 C 
ATOM     22  C   LIG    1        1.669  -5.817   4.882  0.00  0.00    +0.038 C 
ATOM     23  C   LIG    1       -0.745  -5.010   4.305  0.00  0.00    +0.038 C 
ENDBRANCH  19  20
ENDBRANCH   4  19
BRANCH   6  24
ATOM     24  C   LIG    1        0.658   0.138   2.835  0.00  0.00    +0.049 C 
BRANCH  24  25
ATOM     25  C   LIG    1       -0.661  -0.131   3.511  0.00  0.00    -0.027 C 
ATOM     26  C   LIG    1       -0.696  -0.412   4.790  0.00  0.00    -0.080 C 
ATOM     27  C   LIG    1       -2.020  -0.594   5.486  0.00  0.00    +0.038 C 
ATOM     28  C   LIG    1        0.588  -0.555   5.566  0.00  0.00    +0.038 C 
ENDBRANCH  24  25
ENDBRANCH   6  24
BRANCH   8  29
ATOM     29  C   LIG    1        3.469  -0.797  -1.185  0.00  0.00    +0.031 C 
BRANCH  29  30
ATOM     30  C   LIG    1        4.711  -1.136  -0.402  0.00  0.00    -0.028 C 
ATOM     31  C   LIG    1        5.571  -0.196  -0.097  0.00  0.00    -0.080 C 
ATOM     32  C   LIG    1        6.743  -0.508   0.798  0.00  0.00    +0.038 C 
ATOM     33  C   LIG    1        5.388   1.197  -0.641  0.00  0.00    +0.038 C 
ENDBRANCH  29  30
ENDBRANCH   8  29
BRANCH  10  34
ATOM     34  C   LIG    1        1.164  -2.152  -2.499  0.00  0.00    +0.013 C 
BRANCH  34  35
ATOM     35  C   LIG    1        1.371  -3.562  -1.943  0.00  0.00    +0.028 C 
BRANCH  35  36
ATOM     36  C   LIG    1        1.663  -4.512  -3.076  0.00  0.00    -0.028 C 
ATOM     37  C   LIG    1        2.774  -5.206  -3.079  0.00  0.00    -0.080 C 
ATOM     38  C   LIG    1        3.062  -6.162  -4.208  0.00  0.00    +0.038 C 
ATOM     39  C   LIG    1        3.764  -5.049  -1.954  0.00  0.00    +0.038 C 
ENDBRANCH  35  36
ENDBRANCH  34  35
ENDBRANCH  10  34
TORSDOF 11
