REMARK  Name = ZINC20230303
REMARK                            x       y       z     vdW  Elec       q    Type
REMARK                         _______ _______ _______ _____ _____    ______ ____
ROOT
ATOM      1  C   LIG    1       -1.247  -8.013   3.037  0.00  0.00    +0.090 A 
ATOM      2  C   LIG    1       -0.636  -8.143   1.783  0.00  0.00    +0.039 A 
ATOM      3  C   LIG    1       -0.610  -7.029   0.944  0.00  0.00    +0.092 A 
ATOM      4  C   LIG    1       -1.185  -5.824   1.393  0.00  0.00    +0.140 A 
ATOM      5  N   LIG    1       -1.752  -5.750   2.589  0.00  0.00    -0.226 NA
ATOM      6  C   LIG    1       -1.798  -6.782   3.403  0.00  0.00    +0.160 A 
ENDROOT
BRANCH   4   7
ATOM      7  N   LIG    1       -1.163  -4.712   0.578  0.00  0.00    -0.311 N 
ATOM      8  C   LIG    1       -2.423  -3.963   0.675  0.00  0.00    +0.125 C 
ATOM      9  C   LIG    1       -2.431  -2.845  -0.373  0.00  0.00    +0.128 C 
ATOM     10  N   LIG    1       -1.213  -2.038  -0.205  0.00  0.00    -0.282 N 
ATOM     11  C   LIG    1       -1.281  -0.696  -0.100  0.00  0.00    +0.307 C 
ATOM     12  N   LIG    1       -2.480  -0.088  -0.006  0.00  0.00    -0.269 N 
ATOM     13  H   LIG    1       -3.392  -0.687   0.133  0.00  0.00    +0.156 HD
ATOM     14  O   LIG    1       -0.262  -0.035  -0.089  0.00  0.00    -0.252 OA
ATOM     15  C   LIG    1        0.082  -2.734  -0.161  0.00  0.00    +0.128 C 
ATOM     16  C   LIG    1       -0.009  -3.857   0.885  0.00  0.00    +0.125 C 
BRANCH  12  17
ATOM     17  C   LIG    1       -2.566   1.307  -0.086  0.00  0.00    +0.035 A 
ATOM     18  C   LIG    1       -1.528   2.096   0.395  0.00  0.00    +0.023 A 
ATOM     19  C   LIG    1       -1.613   3.472   0.310  0.00  0.00    +0.002 A 
ATOM     20  C   LIG    1       -2.734   4.064  -0.243  0.00  0.00    +0.000 A 
ATOM     21  C   LIG    1       -3.770   3.281  -0.717  0.00  0.00    +0.002 A 
ATOM     22  C   LIG    1       -3.689   1.905  -0.640  0.00  0.00    +0.023 A 
ENDBRANCH  12  17
ENDBRANCH   4   7
BRANCH   6  23
ATOM     23  C   LIG    1       -2.457  -6.635   4.750  0.00  0.00    +0.435 C 
ATOM     24  F   LIG    1       -1.500  -6.795   5.757  0.00  0.00    -0.164 F 
ATOM     25  F   LIG    1       -3.451  -7.610   4.892  0.00  0.00    -0.164 F 
ATOM     26  F   LIG    1       -3.033  -5.364   4.852  0.00  0.00    -0.164 F 
ENDBRANCH   6  23
BRANCH   1  27
ATOM     27  C   LIG    1       -1.306  -9.162   3.960  0.00  0.00    +0.341 C 
ATOM     28  O   LIG    1       -1.837  -9.041   5.046  0.00  0.00    -0.245 OA
BRANCH  27  29
ATOM     29  O   LIG    1       -0.771 -10.345   3.598  0.00  0.00    -0.461 OA
BRANCH  29  31
ATOM     30  C   LIG    1       -0.209 -12.684   3.975  0.00  0.00    +0.048 C 
ATOM     31  C   LIG    1       -0.866 -11.431   4.557  0.00  0.00    +0.229 C 
ENDBRANCH  29  31
ENDBRANCH  27  29
ENDBRANCH   1  27
BRANCH   3  32
ATOM     32  C   LIG    1       -0.003  -7.107  -0.351  0.00  0.00    +0.103 C 
ATOM     33  N   LIG    1        0.478  -7.170  -1.378  0.00  0.00    -0.191 NA
ENDBRANCH   3  32
TORSDOF 7
