REMARK  Name = ZINC13821393
REMARK                            x       y       z     vdW  Elec       q    Type
REMARK                         _______ _______ _______ _____ _____    ______ ____
ROOT
ATOM      1  C   LIG    1       -0.947  -1.007  -0.148  0.00  0.00    +0.088 C 
ATOM      2  C   LIG    1        0.191  -0.022  -0.073  0.00  0.00    +0.135 A 
ATOM      3  N   LIG    1        1.467  -0.309  -0.027  0.00  0.00    -0.134 NA
ATOM      4  N   LIG    1        2.160   0.775   0.026  0.00  0.00    -0.132 NA
ATOM      5  C   LIG    1        1.368   1.805   0.012  0.00  0.00    +0.160 A 
ATOM      6  C   LIG    1        1.731   3.266   0.033  0.00  0.00    +0.218 C 
ATOM      7  N   LIG    1        1.202   3.921  -1.164  0.00  0.00    -0.275 NA
ATOM      8  C   LIG    1       -0.062   4.018  -1.416  0.00  0.00    +0.077 C 
ATOM      9  C   LIG    1       -1.155   3.396  -0.633  0.00  0.00    +0.033 A 
ATOM     10  C   LIG    1       -2.398   4.025  -0.441  0.00  0.00    +0.036 A 
ATOM     11  C   LIG    1       -3.366   3.365   0.254  0.00  0.00    +0.065 A 
ATOM     12  S   LIG    1       -2.559   1.834   0.681  0.00  0.00    -0.062 S 
ATOM     13  C   LIG    1       -1.025   2.138  -0.042  0.00  0.00    +0.098 A 
ATOM     14  N   LIG    1        0.089   1.329  -0.041  0.00  0.00    -0.275 N 
ENDROOT
BRANCH   8  15
ATOM     15  C   LIG    1       -0.453   4.824  -2.596  0.00  0.00    +0.019 A 
ATOM     16  C   LIG    1       -0.215   6.198  -2.615  0.00  0.00    +0.011 A 
ATOM     17  C   LIG    1       -0.578   6.943  -3.718  0.00  0.00    +0.001 A 
ATOM     18  C   LIG    1       -1.186   6.332  -4.800  0.00  0.00    +0.001 A 
ATOM     19  C   LIG    1       -1.429   4.971  -4.787  0.00  0.00    +0.020 A 
ATOM     20  C   LIG    1       -1.067   4.213  -3.690  0.00  0.00    +0.050 A 
ATOM     21 CL   LIG    1       -1.374   2.504  -3.673  0.00  0.00    -0.083 Cl
ENDBRANCH   8  15
BRANCH  11  22
ATOM     22  C   LIG    1       -4.697   3.794   0.562  0.00  0.00    -0.057 C 
ATOM     23  C   LIG    1       -5.788   4.145   0.816  0.00  0.00    -0.069 C 
BRANCH  23  24
ATOM     24  C   LIG    1       -7.156   4.585   1.133  0.00  0.00    +0.244 C 
BRANCH  24  25
ATOM     25  O   LIG    1       -7.822   3.568   1.883  0.00  0.00    -0.383 OA
ATOM     26  H   LIG    1       -8.731   3.791   2.128  0.00  0.00    +0.211 HD
ENDBRANCH  24  25
ENDBRANCH  23  24
ENDBRANCH  11  22
TORSDOF 4
