REMARK  Name = ZINC14945777
REMARK                            x       y       z     vdW  Elec       q    Type
REMARK                         _______ _______ _______ _____ _____    ______ ____
ROOT
ATOM      1  N   LIG    1       -1.200  -0.722   0.010  0.00  0.00    -0.231 N 
ATOM      2  C   LIG    1       -1.425  -1.860  -0.716  0.00  0.00    +0.086 A 
ATOM      3  C   LIG    1       -2.738  -2.258  -0.425  0.00  0.00    +0.033 A 
ATOM      4  C   LIG    1       -3.225  -1.246   0.522  0.00  0.00    +0.155 A 
ATOM      5  C   LIG    1       -3.281  -3.403  -1.017  0.00  0.00    +0.014 A 
ATOM      6  C   LIG    1       -2.540  -4.147  -1.883  0.00  0.00    +0.028 A 
ATOM      7  C   LIG    1       -1.227  -3.777  -2.193  0.00  0.00    +0.068 A 
ATOM      8  N   LIG    1       -0.267  -4.318  -3.009  0.00  0.00    -0.277 N 
ATOM      9  H   LIG    1       -0.364  -5.119  -3.547  0.00  0.00    +0.189 HD
ATOM     10  N   LIG    1        0.876  -3.514  -2.930  0.00  0.00    -0.181 NA
ATOM     11  C   LIG    1        0.658  -2.522  -2.114  0.00  0.00    +0.144 A 
ATOM     12  C   LIG    1       -0.659  -2.631  -1.612  0.00  0.00    +0.045 A 
ATOM     13  N   LIG    1       -2.231  -0.401   0.704  0.00  0.00    -0.161 NA
ENDROOT
BRANCH   1  19
ATOM     14  C   LIG    1        0.648   0.257  -1.199  0.00  0.00    +0.030 A 
ATOM     15  C   LIG    1        1.834   0.966  -1.204  0.00  0.00    +0.030 A 
ATOM     16  C   LIG    1        2.377   1.416  -0.014  0.00  0.00    +0.105 A 
ATOM     17  C   LIG    1        1.736   1.157   1.184  0.00  0.00    +0.030 A 
ATOM     18  C   LIG    1        0.550   0.449   1.195  0.00  0.00    +0.030 A 
ATOM     19  C   LIG    1        0.002  -0.004   0.002  0.00  0.00    +0.066 A 
BRANCH  16  20
ATOM     20  S   LIG    1        3.890   2.319  -0.024  0.00  0.00    +0.056 S 
ATOM     21  O   LIG    1        4.571   1.957  -1.218  0.00  0.00    -0.153 OA
ATOM     22  O   LIG    1        4.469   2.156   1.263  0.00  0.00    -0.153 OA
BRANCH  20  23
ATOM     23  N   LIG    1        3.501   3.922  -0.169  0.00  0.00    -0.204 NA
ATOM     24  H   LIG    1        4.203   4.591  -0.193  0.00  0.00    +0.144 HD
ATOM     25  H   LIG    1        2.572   4.193  -0.228  0.00  0.00    +0.144 HD
ENDBRANCH  20  23
ENDBRANCH  16  20
ENDBRANCH   1  19
BRANCH   4  26
ATOM     26  C   LIG    1       -4.557  -1.191   1.149  0.00  0.00    +0.262 C 
ATOM     27  N   LIG    1       -4.859  -0.194   2.005  0.00  0.00    -0.324 N 
ATOM     28  H   LIG    1       -5.736  -0.158   2.417  0.00  0.00    +0.145 HD
ATOM     29  H   LIG    1       -4.199   0.487   2.208  0.00  0.00    +0.145 HD
ATOM     30  O   LIG    1       -5.385  -2.045   0.895  0.00  0.00    -0.269 OA
ENDBRANCH   4  26
TORSDOF 4
