REMARK  Name = ZINC49113058
REMARK                            x       y       z     vdW  Elec       q    Type
REMARK                         _______ _______ _______ _____ _____    ______ ____
ROOT
ATOM      1  C   LIG    1        0.028   1.104  -0.058  0.00  0.00    +0.173 C 
ATOM      2  N   LIG    1        0.783  -0.151  -0.035  0.00  0.00    -0.264 N 
ATOM      3  C   LIG    1        1.285  -0.774  -1.118  0.00  0.00    +0.091 A 
ATOM      4  C   LIG    1        1.941  -1.900  -0.668  0.00  0.00    +0.012 A 
ATOM      5  C   LIG    1        2.665  -2.836  -1.592  0.00  0.00    +0.044 C 
ATOM      6  C   LIG    1        1.971  -2.858  -2.953  0.00  0.00    +0.043 C 
ATOM      7  C   LIG    1        1.624  -1.483  -3.445  0.00  0.00    -0.001 A 
ATOM      8  C   LIG    1        1.647  -1.189  -4.795  0.00  0.00    +0.120 A 
ATOM      9  N   LIG    1        1.311   0.028  -5.196  0.00  0.00    -0.222 NA
ATOM     10  C   LIG    1        0.951   0.965  -4.331  0.00  0.00    +0.220 A 
ATOM     11  N   LIG    1        0.925   0.732  -3.025  0.00  0.00    -0.212 NA
ATOM     12  C   LIG    1        1.773  -1.905   0.717  0.00  0.00    +0.151 A 
ATOM     13  C   LIG    1        1.262  -0.460  -2.557  0.00  0.00    +0.097 A 
ATOM     14  N   LIG    1        1.074  -0.824   1.028  0.00  0.00    -0.166 NA
ENDROOT
BRANCH  12  15
ATOM     15  C   LIG    1        2.284  -2.922   1.659  0.00  0.00    +0.262 C 
ATOM     16  N   LIG    1        2.045  -2.797   2.980  0.00  0.00    -0.324 N 
ATOM     17  H   LIG    1        2.380  -3.465   3.599  0.00  0.00    +0.145 HD
ATOM     18  H   LIG    1        1.537  -2.040   3.312  0.00  0.00    +0.145 HD
ATOM     19  O   LIG    1        2.921  -3.871   1.244  0.00  0.00    -0.269 OA
ENDBRANCH  12  15
BRANCH  10  20
ATOM     20  N   LIG    1        0.592   2.218  -4.801  0.00  0.00    -0.281 N 
ATOM     21  H   LIG    1        0.284   2.898  -4.183  0.00  0.00    +0.155 HD
BRANCH  20  22
ATOM     22  C   LIG    1        0.675   2.502  -6.170  0.00  0.00    +0.077 A 
ATOM     23  C   LIG    1        0.406   1.510  -7.103  0.00  0.00    +0.050 A 
ATOM     24  C   LIG    1        0.488   1.795  -8.459  0.00  0.00    +0.032 A 
ATOM     25  C   LIG    1        0.839   3.071  -8.881  0.00  0.00    +0.027 A 
ATOM     26  C   LIG    1        1.108   4.059  -7.952  0.00  0.00    +0.049 A 
ATOM     27  C   LIG    1        1.021   3.781  -6.598  0.00  0.00    +0.141 A 
BRANCH  24  28
ATOM     28  N   LIG    1        0.217   0.797  -9.400  0.00  0.00    -0.333 N 
ATOM     29  C   LIG    1       -0.296  -0.518  -8.983  0.00  0.00    +0.086 C 
ATOM     30  C   LIG    1       -1.531  -0.848  -9.828  0.00  0.00    -0.060 C 
ATOM     31  N   LIG    1       -1.187  -0.756 -11.253  0.00  0.00    +0.380 N 
ATOM     32  H   LIG    1       -0.403  -1.360 -11.448  0.00  0.00    -0.082 HD
ATOM     33  C   LIG    1       -2.338  -1.178 -12.061  0.00  0.00    -0.096 C 
ATOM     34  C   LIG    1       -0.834   0.628 -11.594  0.00  0.00    -0.060 C 
ATOM     35  C   LIG    1        0.431   1.033 -10.837  0.00  0.00    +0.086 C 
ENDBRANCH  24  28
BRANCH  27  36
ATOM     36  O   LIG    1        1.280   4.757  -5.685  0.00  0.00    -0.493 OA
ATOM     37  C   LIG    1        1.629   6.045  -6.194  0.00  0.00    +0.277 C 
ENDBRANCH  27  36
ENDBRANCH  20  22
ENDBRANCH  10  20
TORSDOF 5
