REMARK  Name = ZINC40880490
REMARK                            x       y       z     vdW  Elec       q    Type
REMARK                         _______ _______ _______ _____ _____    ______ ____
ROOT
ATOM      1  C   LIG    1        7.897   1.290  -3.476  0.00  0.00    +0.168 A 
ATOM      2  C   LIG    1        8.624   1.019  -4.593  0.00  0.00    +0.086 A 
ATOM      3  C   LIG    1        9.879   1.649  -4.456  0.00  0.00    +0.168 A 
ATOM      4  N   LIG    1        9.897   2.272  -3.301  0.00  0.00    -0.073 NA
ATOM      5  O   LIG    1        8.649   2.060  -2.668  0.00  0.00    -0.354 OA
ENDROOT
BRANCH   1   9
ATOM      6  C   LIG    1        3.942  -0.046  -2.684  0.00  0.00    +0.036 A 
ATOM      7  C   LIG    1        4.604   0.749  -1.756  0.00  0.00    +0.024 A 
ATOM      8  C   LIG    1        5.887   1.183  -2.009  0.00  0.00    +0.013 A 
ATOM      9  C   LIG    1        6.521   0.825  -3.200  0.00  0.00    +0.020 A 
ATOM     10  C   LIG    1        5.853   0.026  -4.131  0.00  0.00    +0.013 A 
ATOM     11  C   LIG    1        4.572  -0.409  -3.869  0.00  0.00    +0.024 A 
BRANCH   6  13
ATOM     12  C   LIG    1        1.780   0.313  -1.761  0.00  0.00    +0.405 C 
ATOM     13  N   LIG    1        2.641  -0.485  -2.424  0.00  0.00    -0.251 N 
ATOM     14  H   LIG    1        2.357  -1.364  -2.721  0.00  0.00    +0.158 HD
ATOM     15  O   LIG    1        2.159   1.378  -1.316  0.00  0.00    -0.226 OA
BRANCH  12  16
ATOM     16  O   LIG    1        0.501  -0.071  -1.591  0.00  0.00    -0.444 OA
BRANCH  16  18
ATOM     17  C   LIG    1       -0.423   2.162  -1.617  0.00  0.00    +0.055 C 
ATOM     18  C   LIG    1       -0.356   0.824  -0.879  0.00  0.00    +0.107 C 
ATOM     19  C   LIG    1       -1.759   0.221  -0.787  0.00  0.00    +0.055 C 
ATOM     20  C   LIG    1        0.197   1.045   0.531  0.00  0.00    +0.055 C 
ENDBRANCH  16  18
ENDBRANCH  12  16
ENDBRANCH   6  13
ENDBRANCH   1   9
BRANCH   3  21
ATOM     21  C   LIG    1       10.985   1.615  -5.445  0.00  0.00    +0.266 C 
ATOM     22  N   LIG    1       12.138   2.264  -5.190  0.00  0.00    -0.310 N 
ATOM     23  H   LIG    1       12.245   2.753  -4.359  0.00  0.00    +0.149 HD
ATOM     24  O   LIG    1       10.850   1.002  -6.486  0.00  0.00    -0.268 OA
BRANCH  22  25
ATOM     25  C   LIG    1       13.229   2.229  -6.166  0.00  0.00    +0.104 C 
BRANCH  25  26
ATOM     26  C   LIG    1       14.415   3.038  -5.635  0.00  0.00    +0.019 C 
BRANCH  26  27
ATOM     27  C   LIG    1       15.554   3.003  -6.655  0.00  0.00    +0.002 C 
BRANCH  27  28
ATOM     28  C   LIG    1       16.739   3.812  -6.124  0.00  0.00    +0.001 C 
BRANCH  28  29
ATOM     29  C   LIG    1       17.879   3.776  -7.144  0.00  0.00    +0.009 C 
BRANCH  29  30
ATOM     30  C   LIG    1       19.064   4.585  -6.613  0.00  0.00    +0.098 C 
BRANCH  30  31
ATOM     31  C   LIG    1       20.187   4.550  -7.618  0.00  0.00    +0.235 C 
ATOM     32  N   LIG    1       21.341   5.198  -7.362  0.00  0.00    -0.197 N 
ATOM     33  H   LIG    1       21.448   5.688  -6.532  0.00  0.00    +0.182 HD
ATOM     34  O   LIG    1       20.053   3.938  -8.656  0.00  0.00    -0.274 OA
BRANCH  32  35
ATOM     35  O   LIG    1       22.395   5.165  -8.306  0.00  0.00    -0.295 OA
ATOM     36  H   LIG    1       23.182   5.659  -8.035  0.00  0.00    +0.241 HD
ENDBRANCH  32  35
ENDBRANCH  30  31
ENDBRANCH  29  30
ENDBRANCH  28  29
ENDBRANCH  27  28
ENDBRANCH  26  27
ENDBRANCH  25  26
ENDBRANCH  22  25
ENDBRANCH   3  21
TORSDOF 13
