REMARK  Name = ZINC19594578
REMARK                            x       y       z     vdW  Elec       q    Type
REMARK                         _______ _______ _______ _____ _____    ______ ____
ROOT
ATOM      1  C   LIG    1        2.296  -1.788  -0.715  0.00  0.00    +0.066 C 
ATOM      2  C   LIG    1        1.472  -3.013  -0.412  0.00  0.00    +0.049 C 
ATOM      3  C   LIG    1        0.090  -2.917  -0.448  0.00  0.00    +0.069 C 
ATOM      4  C   LIG    1       -0.704  -4.174  -0.138  0.00  0.00    +0.098 C 
ATOM      5  C   LIG    1        0.114  -5.412   0.181  0.00  0.00    +0.065 C 
ATOM      6  C   LIG    1        1.494  -5.285   0.161  0.00  0.00    +0.049 C 
ATOM      7  C   LIG    1        2.343  -6.491   0.472  0.00  0.00    +0.066 C 
ATOM      8  C   LIG    1       -0.496  -6.625   0.481  0.00  0.00    +0.285 C 
ATOM      9  N   LIG    1        2.088  -4.144  -0.127  0.00  0.00    -0.256 NA
ENDROOT
BRANCH   4  10
ATOM     10  C   LIG    1       -1.597  -3.887   1.042  0.00  0.00    -0.005 A 
ATOM     11  C   LIG    1       -1.043  -3.645   2.285  0.00  0.00    +0.007 A 
ATOM     12  C   LIG    1       -1.862  -3.382   3.367  0.00  0.00    +0.000 A 
ATOM     13  C   LIG    1       -3.235  -3.362   3.206  0.00  0.00    +0.002 A 
ATOM     14  C   LIG    1       -3.789  -3.603   1.963  0.00  0.00    +0.033 A 
ATOM     15  C   LIG    1       -2.969  -3.861   0.880  0.00  0.00    +0.126 A 
BRANCH  15  16
ATOM     16  N   LIG    1       -3.562  -4.115  -0.453  0.00  0.00    +0.006 N 
ATOM     17  O   LIG    1       -4.464  -4.911  -0.572  0.00  0.00    -0.130 OA
BRANCH  16  18
ATOM     18  O   LIG    1       -3.144  -3.526  -1.422  0.00  0.00    -0.396 OA
ATOM     19  H   LIG    1       -2.446  -2.908  -1.330  0.00  0.00    +0.329 HD
ENDBRANCH  16  18
ENDBRANCH  15  16
ENDBRANCH   4  10
BRANCH   3  20
ATOM     20  C   LIG    1       -0.544  -1.719  -0.755  0.00  0.00    +0.338 C 
ATOM     21  O   LIG    1        0.179  -0.632  -1.022  0.00  0.00    -0.245 OA
BRANCH  20  22
ATOM     22  O   LIG    1       -1.891  -1.656  -0.782  0.00  0.00    -0.465 OA
ATOM     23  C   LIG    1       -2.475  -0.393  -1.105  0.00  0.00    +0.280 C 
ENDBRANCH  20  22
ENDBRANCH   3  20
BRANCH   8  24
ATOM     24  O   LIG    1        0.244  -7.660   0.926  0.00  0.00    -0.467 OA
ATOM     25  C   LIG    1       -0.449  -8.876   1.215  0.00  0.00    +0.280 C 
ENDBRANCH   8  24
BRANCH   8  26
ATOM     26  O   LIG    1       -1.813  -6.763   0.329  0.00  0.00    -0.480 OA
ATOM     27  H   LIG    1       -2.327  -6.044   0.020  0.00  0.00    +0.295 HD
ENDBRANCH   8  26
TORSDOF 7
