REMARK  Name = ZINC39716195
REMARK                            x       y       z     vdW  Elec       q    Type
REMARK                         _______ _______ _______ _____ _____    ______ ____
ROOT
ATOM      1  C   LIG    1       -0.544  -2.692   2.062  0.00  0.00    +0.092 A 
ATOM      2  N   LIG    1       -0.220  -4.032   2.214  0.00  0.00    -0.324 N 
ATOM      3  H   LIG    1       -0.059  -4.663   1.496  0.00  0.00    +0.169 HD
ATOM      4  C   LIG    1       -0.165  -4.305   3.543  0.00  0.00    +0.198 A 
ATOM      5  N   LIG    1        0.122  -5.488   4.084  0.00  0.00    -0.151 NA
ATOM      6  N   LIG    1       -0.455  -3.168   4.227  0.00  0.00    -0.325 N 
ATOM      7  H   LIG    1       -0.490  -3.077   5.192  0.00  0.00    +0.169 HD
ATOM      8  C   LIG    1       -0.692  -2.160   3.306  0.00  0.00    +0.075 A 
ENDROOT
BRANCH   8   9
ATOM      9  C   LIG    1       -1.042  -0.760   3.618  0.00  0.00    +0.003 A 
ATOM     10  C   LIG    1       -2.194  -0.185   3.049  0.00  0.00    +0.012 A 
ATOM     11  C   LIG    1       -2.536   1.100   3.321  0.00  0.00    +0.030 A 
ATOM     12  C   LIG    1       -1.736   1.876   4.181  0.00  0.00    +0.089 A 
ATOM     13  C   LIG    1       -0.573   1.307   4.762  0.00  0.00    +0.090 A 
ATOM     14  N   LIG    1        0.185   2.045   5.581  0.00  0.00    -0.252 NA
ATOM     15  C   LIG    1       -0.154   3.288   5.839  0.00  0.00    +0.131 A 
ATOM     16  C   LIG    1       -1.298   3.847   5.268  0.00  0.00    +0.131 A 
ATOM     17  N   LIG    1       -2.059   3.143   4.460  0.00  0.00    -0.252 NA
ATOM     18  C   LIG    1       -0.238  -0.025   4.474  0.00  0.00    +0.040 A 
ENDBRANCH   8   9
BRANCH   1  25
ATOM     19  C   LIG    1       -1.259   1.509  -0.280  0.00  0.00    +0.068 C 
ATOM     20  C   LIG    1       -1.045   0.018  -0.335  0.00  0.00    +0.074 A 
ATOM     21  C   LIG    1       -1.008  -0.622  -1.563  0.00  0.00    +0.144 A 
ATOM     22  F   LIG    1       -1.163   0.084  -2.705  0.00  0.00    -0.204 F 
ATOM     23  C   LIG    1       -0.811  -1.998  -1.610  0.00  0.00    +0.042 A 
ATOM     24  C   LIG    1       -0.658  -2.684  -0.419  0.00  0.00    +0.033 A 
ATOM     25  C   LIG    1       -0.706  -1.975   0.783  0.00  0.00    +0.090 A 
ATOM     26  N   LIG    1       -0.891  -0.658   0.784  0.00  0.00    -0.247 NA
ENDBRANCH   1  25
BRANCH   5  27
ATOM     27  C   LIG    1        0.310  -5.590   5.395  0.00  0.00    +0.176 C 
ATOM     28  O   LIG    1        0.156  -4.618   6.109  0.00  0.00    -0.497 OA
ATOM     29  H   LIG    1        0.228  -4.809   7.055  0.00  0.00    +0.293 HD
ATOM     30  C   LIG    1        0.715  -6.911   5.997  0.00  0.00    +0.106 C 
ENDBRANCH   5  27
TORSDOF 3
