REMARK  Name = ZINC19364229
REMARK                            x       y       z     vdW  Elec       q    Type
REMARK                         _______ _______ _______ _____ _____    ______ ____
ROOT
ATOM      1  N   LIG    1        3.611  -1.868  -0.933  0.00  0.00    +0.389 N 
ATOM      2  H   LIG    1        2.884  -2.485  -0.603  0.00  0.00    -0.080 HD
ATOM      3  C   LIG    1        4.893  -2.586  -0.948  0.00  0.00    -0.062 C 
ATOM      4  C   LIG    1        4.783  -3.805  -1.866  0.00  0.00    +0.066 C 
ATOM      5  N   LIG    1        4.433  -3.364  -3.223  0.00  0.00    -0.304 NA
ATOM      6  C   LIG    1        3.164  -2.622  -3.220  0.00  0.00    +0.066 C 
ATOM      7  C   LIG    1        3.287  -1.412  -2.291  0.00  0.00    -0.062 C 
ENDROOT
BRANCH   1   8
ATOM      8  C   LIG    1        3.711  -0.707  -0.038  0.00  0.00    -0.007 C 
BRANCH   8   9
ATOM      9  C   LIG    1        4.044  -1.175   1.356  0.00  0.00    -0.057 A 
ATOM     10  C   LIG    1        3.455  -2.320   1.859  0.00  0.00    +0.004 A 
ATOM     11  C   LIG    1        3.760  -2.749   3.137  0.00  0.00    +0.020 A 
ATOM     12  C   LIG    1        4.654  -2.033   3.913  0.00  0.00    +0.041 A 
ATOM     13 CL   LIG    1        5.037  -2.571   5.518  0.00  0.00    -0.084 Cl
ATOM     14  C   LIG    1        5.243  -0.887   3.408  0.00  0.00    +0.020 A 
ATOM     15  C   LIG    1        4.941  -0.461   2.128  0.00  0.00    +0.004 A 
ENDBRANCH   8   9
BRANCH   8  19
ATOM     16  C   LIG    1       -0.017   1.378   0.010  0.00  0.00    +0.000 A 
ATOM     17  C   LIG    1        1.171   2.086   0.002  0.00  0.00    +0.000 A 
ATOM     18  C   LIG    1        2.377   1.411  -0.013  0.00  0.00    +0.002 A 
ATOM     19  C   LIG    1        2.396   0.029  -0.020  0.00  0.00    -0.057 A 
ATOM     20  C   LIG    1        1.208  -0.679  -0.012  0.00  0.00    +0.002 A 
ATOM     21  C   LIG    1        0.002  -0.004   0.002  0.00  0.00    +0.000 A 
ENDBRANCH   8  19
ENDBRANCH   1   8
BRANCH   5  22
ATOM     22  C   LIG    1        4.374  -4.503  -4.149  0.00  0.00    +0.112 C 
BRANCH  22  23
ATOM     23  C   LIG    1        4.256  -3.988  -5.584  0.00  0.00    +0.176 C 
BRANCH  23  24
ATOM     24  O   LIG    1        5.445  -3.277  -5.935  0.00  0.00    -0.367 OA
BRANCH  24  25
ATOM     25  C   LIG    1        5.438  -2.752  -7.264  0.00  0.00    +0.280 C 
BRANCH  25  26
ATOM     26  C   LIG    1        6.732  -2.026  -7.524  0.00  0.00    +0.331 C 
ATOM     27  O   LIG    1        7.583  -1.965  -6.653  0.00  0.00    -0.248 OA
BRANCH  26  28
ATOM     28  O   LIG    1        6.930  -1.501  -8.607  0.00  0.00    -0.479 OA
ATOM     29  H   LIG    1        6.276  -1.548  -9.276  0.00  0.00    +0.295 HD
ENDBRANCH  26  28
ENDBRANCH  25  26
ENDBRANCH  24  25
ENDBRANCH  23  24
ENDBRANCH  22  23
ENDBRANCH   5  22
TORSDOF 9
