REMARK  Name = ZINC13796731
REMARK                            x       y       z     vdW  Elec       q    Type
REMARK                         _______ _______ _______ _____ _____    ______ ____
ROOT
ATOM      1  C   UNK A  0        0.244  -4.001  -2.927  0.00  0.00    +0.045 A 
ATOM      2  C   UNK A  0        0.165  -3.104  -3.995  0.00  0.00    +0.015 A 
ATOM      3  C   UNK A  0        0.672  -3.452  -5.226  0.00  0.00    +0.024 A 
ATOM      4  C   UNK A  0        1.267  -4.698  -5.417  0.00  0.00    +0.028 A 
ATOM      5  C   UNK A  0        1.353  -5.601  -4.365  0.00  0.00    +0.032 A 
ATOM      6  C   UNK A  0        0.849  -5.260  -3.115  0.00  0.00    -0.003 A 
ENDROOT
BRANCH   6   7
ATOM      7  C   UNK A  0        0.943  -6.216  -1.990  0.00  0.00    -0.009 A 
ATOM      8  C   UNK A  0        2.179  -6.575  -1.478  0.00  0.00    +0.009 A 
ATOM      9  C   UNK A  0        2.275  -7.472  -0.421  0.00  0.00    +0.001 A 
ATOM     10  C   UNK A  0        1.162  -8.021   0.141  0.00  0.00    +0.008 A 
ATOM     11  C   UNK A  0       -0.113  -7.684  -0.347  0.00  0.00    -0.017 A 
ATOM     12  C   UNK A  0       -1.277  -8.238   0.215  0.00  0.00    +0.008 A 
ATOM     13  C   UNK A  0       -2.496  -7.875  -0.269  0.00  0.00    +0.001 A 
ATOM     14  C   UNK A  0       -2.609  -6.978  -1.329  0.00  0.00    +0.001 A 
ATOM     15  C   UNK A  0       -1.502  -6.428  -1.902  0.00  0.00    +0.009 A 
ATOM     16  C   UNK A  0       -0.230  -6.768  -1.420  0.00  0.00    -0.010 A 
ENDBRANCH   6   7
BRANCH   1  19
ATOM     17  N   LEU A  1       -0.876  -2.426  -1.433  0.00  0.00    -0.298 N 
ATOM     18  H   LEU A  1       -0.936  -1.804  -2.174  0.00  0.00    +0.150 HD
ATOM     19  C   UNK A  0       -0.298  -3.631  -1.609  0.00  0.00    +0.245 C 
ATOM     20  O   UNK A  0       -0.224  -4.412  -0.680  0.00  0.00    -0.270 OA
BRANCH  17  21
ATOM     21  CA  LEU A  1       -1.416  -2.058  -0.121  0.00  0.00    +0.182 C 
BRANCH  21  22
ATOM     22  C   LEU A  1       -2.819  -2.590   0.013  0.00  0.00    +0.325 C 
ATOM     23  O   LEU A  1       -3.521  -2.715  -0.977  0.00  0.00    -0.249 OA
BRANCH  22  24
ATOM     24  OXT LEU A  1       -3.253  -2.896   1.110  0.00  0.00    -0.479 OA
ATOM     25  HXT LEU A  1       -2.714  -2.799   1.870  0.00  0.00    +0.295 HD
ENDBRANCH  22  24
ENDBRANCH  21  22
BRANCH  21  26
ATOM     26  CB  LEU A  1       -1.433  -0.534   0.013  0.00  0.00    +0.036 C 
BRANCH  26  28
ATOM     27  CD1 LEU A  1       -0.019   1.526   0.010  0.00  0.00    +0.007 C 
ATOM     28  CG  LEU A  1        0.002  -0.004   0.002  0.00  0.00    -0.015 C 
ATOM     29  CD2 LEU A  1        0.742  -0.511   1.242  0.00  0.00    +0.007 C 
ENDBRANCH  26  28
ENDBRANCH  21  26
ENDBRANCH  17  21
ENDBRANCH   1  19
BRANCH   4  30
ATOM     30  N   UNK A  0        1.776  -5.039  -6.666  0.00  0.00    -0.338 N 
ATOM     31  H   UNK A  0        2.190  -5.906  -6.801  0.00  0.00    +0.146 HD
BRANCH  30  32
ATOM     32  C   UNK A  0        1.687  -4.089  -7.777  0.00  0.00    +0.156 C 
BRANCH  32  33
ATOM     33  C   UNK A  0        2.306  -4.697  -9.009  0.00  0.00    +0.053 A 
ATOM     34  C   UNK A  0        3.574  -4.534  -9.434  0.00  0.00    +0.135 A 
ATOM     35  N   UNK A  0        3.727  -5.240 -10.564  0.00  0.00    -0.244 NA
ATOM     36  C   UNK A  0        2.602  -5.834 -10.856  0.00  0.00    +0.196 A 
ATOM     37  N   UNK A  0        1.691  -5.527  -9.908  0.00  0.00    -0.347 N 
ATOM     38  H   UNK A  0        0.772  -5.834  -9.871  0.00  0.00    +0.167 HD
ENDBRANCH  32  33
ENDBRANCH  30  32
ENDBRANCH   4  30
TORSDOF 10
