REMARK  Name = ZINC00004902
REMARK                            x       y       z     vdW  Elec       q    Type
REMARK                         _______ _______ _______ _____ _____    ______ ____
ROOT
ATOM      1  C   LIG    1       -0.146  -0.041   0.187  0.00  0.00    -0.007 C 
ATOM      2  C   LIG    1        0.363  -0.409  -1.209  0.00  0.00    -0.015 C 
ATOM      3  C   LIG    1        0.426  -1.933  -1.339  0.00  0.00    -0.079 C 
ATOM      4  N   LIG    1       -0.930  -2.487  -1.141  0.00  0.00    +0.380 N 
ATOM      5  H   LIG    1       -1.571  -2.048  -1.813  0.00  0.00    -0.082 HD
ATOM      6  C   LIG    1       -1.402  -2.199   0.230  0.00  0.00    -0.079 C 
ATOM      7  C   LIG    1       -1.519  -0.683   0.406  0.00  0.00    -0.015 C 
ENDROOT
BRANCH   1   8
ATOM      8  C   LIG    1       -0.269   1.480   0.302  0.00  0.00    +0.083 C 
BRANCH   8   9
ATOM      9  C   LIG    1        1.100   2.102   0.208  0.00  0.00    +0.163 C 
ATOM     10  O   LIG    1        2.078   1.399   0.064  0.00  0.00    -0.292 OA
BRANCH   9  17
ATOM     11  C   LIG    1        0.124   4.377   0.453  0.00  0.00    +0.014 A 
ATOM     12  C   LIG    1        0.273   5.744   0.536  0.00  0.00    +0.039 A 
ATOM     13  C   LIG    1        1.535   6.314   0.450  0.00  0.00    +0.123 A 
ATOM     14  F   LIG    1        1.673   7.656   0.526  0.00  0.00    -0.205 F 
ATOM     15  C   LIG    1        2.655   5.512   0.284  0.00  0.00    +0.039 A 
ATOM     16  C   LIG    1        2.521   4.144   0.206  0.00  0.00    +0.014 A 
ATOM     17  C   LIG    1        1.251   3.562   0.292  0.00  0.00    +0.018 A 
ENDBRANCH   9  17
ENDBRANCH   8   9
ENDBRANCH   1   8
BRANCH   4  18
ATOM     18  C   LIG    1       -0.918  -3.946  -1.374  0.00  0.00    -0.075 C 
BRANCH  18  19
ATOM     19  C   LIG    1        0.128  -4.624  -0.486  0.00  0.00    -0.028 C 
ATOM     20  C   LIG    1        1.296  -5.327  -1.182  0.00  0.00    +0.002 C 
ATOM     21  C   LIG    1        0.195  -6.152  -0.513  0.00  0.00    +0.002 C 
ENDBRANCH  18  19
ENDBRANCH   4  18
TORSDOF 5
