REMARK  Name = ZINC29311776
REMARK                            x       y       z     vdW  Elec       q    Type
REMARK                         _______ _______ _______ _____ _____    ______ ____
ROOT
ATOM      1  C   LIG    1        0.002  -0.004   0.002  0.00  0.00    +0.146 C 
ATOM      2  C   LIG    1       -0.018   1.502   0.010  0.00  0.00    +0.231 C 
ATOM      3  N   LIG    1        1.084   2.245   0.004  0.00  0.00    -0.284 N 
ATOM      4  H   LIG    1        1.011   3.338   0.110  0.00  0.00    +0.155 HD
ATOM      5  C   LIG    1        2.392   1.789  -0.128  0.00  0.00    +0.047 A 
ATOM      6  C   LIG    1        3.442   2.626   0.236  0.00  0.00    +0.024 A 
ATOM      7  C   LIG    1        4.748   2.190   0.132  0.00  0.00    +0.002 A 
ATOM      8  C   LIG    1        5.028   0.918  -0.333  0.00  0.00    +0.001 A 
ATOM      9  C   LIG    1        3.994   0.077  -0.702  0.00  0.00    +0.016 A 
ATOM     10  C   LIG    1        2.683   0.511  -0.602  0.00  0.00    +0.030 A 
ATOM     11  O   LIG    1       -1.093   2.065   0.018  0.00  0.00    -0.274 OA
ATOM     12  S   LIG    1        1.358  -0.556  -1.078  0.00  0.00    -0.110 S 
ENDROOT
BRANCH   1  13
ATOM     13  C   LIG    1        0.228  -0.523   1.423  0.00  0.00    +0.121 C 
BRANCH  13  16
ATOM     14  N   LIG    1        0.290  -2.707   2.583  0.00  0.00    -0.195 N 
ATOM     15  H   LIG    1        0.499  -2.165   3.517  0.00  0.00    +0.182 HD
ATOM     16  C   LIG    1        0.125  -2.027   1.431  0.00  0.00    +0.237 C 
ATOM     17  O   LIG    1       -0.105  -2.624   0.402  0.00  0.00    -0.274 OA
BRANCH  14  19
ATOM     18  C   LIG    1        0.390  -4.709   3.878  0.00  0.00    +0.226 C 
ATOM     19  O   LIG    1        0.194  -4.120   2.591  0.00  0.00    -0.283 OA
ENDBRANCH  14  19
ENDBRANCH  13  16
ENDBRANCH   1  13
TORSDOF 3
