REMARK  Name = ZINC00047830
REMARK                            x       y       z     vdW  Elec       q    Type
REMARK                         _______ _______ _______ _____ _____    ______ ____
ROOT
ATOM      1  C   LIG    1        4.966   0.451  -0.089  0.00  0.00    +0.187 A 
ATOM      2  C   LIG    1        6.374   0.862  -0.040  0.00  0.00    +0.200 A 
ATOM      3  N   LIG    1        7.115  -0.219   0.003  0.00  0.00    -0.007 N 
ATOM      4  O   LIG    1        6.249  -1.340  -0.015  0.00  0.00    -0.229 OA
ATOM      5  N   LIG    1        4.919  -0.855  -0.068  0.00  0.00    -0.044 NA
ENDROOT
BRANCH   1   6
ATOM      6  C   LIG    1        3.797   1.361  -0.147  0.00  0.00    +0.223 C 
ATOM      7  O   LIG    1        3.964   2.566  -0.162  0.00  0.00    -0.284 OA
BRANCH   6  10
ATOM      8  C   LIG    1        0.108   0.684  -0.267  0.00  0.00    +0.008 A 
ATOM      9  C   LIG    1        1.225   1.481  -0.240  0.00  0.00    +0.019 A 
ATOM     10  C   LIG    1        2.443   0.811  -0.185  0.00  0.00    +0.061 A 
ATOM     11  S   LIG    1        1.922  -0.894  -0.175  0.00  0.00    -0.093 S 
ATOM     12  C   LIG    1        0.259  -0.665  -0.238  0.00  0.00    +0.046 A 
ENDBRANCH   6  10
ENDBRANCH   1   6
BRANCH   2  13
ATOM     13  C   LIG    1        6.872   2.254  -0.041  0.00  0.00    +0.225 C 
ATOM     14  O   LIG    1        7.097   2.820  -1.095  0.00  0.00    -0.284 OA
BRANCH  13  15
ATOM     15  C   LIG    1        7.093   2.953   1.227  0.00  0.00    +0.061 A 
ATOM     16  C   LIG    1        7.571   4.239   1.446  0.00  0.00    +0.019 A 
ATOM     17  C   LIG    1        7.671   4.621   2.761  0.00  0.00    +0.008 A 
ATOM     18  C   LIG    1        7.308   3.745   3.732  0.00  0.00    +0.046 A 
ATOM     19  S   LIG    1        6.812   2.378   2.890  0.00  0.00    -0.093 S 
ENDBRANCH  13  15
ENDBRANCH   2  13
BRANCH   3  20
ATOM     20  O   LIG    1        8.530  -0.260   0.059  0.00  0.00    -0.397 OA
ATOM     21  H   LIG    1        9.021   0.538   0.067  0.00  0.00    +0.329 HD
ENDBRANCH   3  20
TORSDOF 5
