REMARK  Name = ZINC14979038
REMARK                            x       y       z     vdW  Elec       q    Type
REMARK                         _______ _______ _______ _____ _____    ______ ____
ROOT
ATOM      1  C   LIG    1       -2.559   1.303   0.019  0.00  0.00    +0.089 C 
ENDROOT
BRANCH   1   2
ATOM      2  C   LIG    1       -1.124   1.763   0.016  0.00  0.00    +0.037 A 
ATOM      3  C   LIG    1       -0.690   3.038   0.025  0.00  0.00    +0.105 A 
ATOM      4  N   LIG    1        0.651   3.020   0.012  0.00  0.00    -0.352 N 
ATOM      5  H   LIG    1        1.214   3.965   0.012  0.00  0.00    +0.166 HD
ATOM      6  C   LIG    1        1.065   1.782   0.002  0.00  0.00    +0.171 A 
ATOM      7  N   LIG    1       -0.011   0.966   0.007  0.00  0.00    -0.350 N 
ATOM      8  H   LIG    1       -0.119  -0.129   0.006  0.00  0.00    +0.166 HD
ENDBRANCH   1   2
BRANCH   1  12
ATOM      9  C   LIG    1       -4.007   1.179   4.036  0.00  0.00    +0.000 A 
ATOM     10  C   LIG    1       -4.137   2.335   3.290  0.00  0.00    +0.000 A 
ATOM     11  C   LIG    1       -3.668   2.375   1.990  0.00  0.00    +0.004 A 
ATOM     12  C   LIG    1       -3.069   1.259   1.437  0.00  0.00    -0.042 A 
ATOM     13  C   LIG    1       -2.944   0.101   2.181  0.00  0.00    +0.004 A 
ATOM     14  C   LIG    1       -3.408   0.062   3.483  0.00  0.00    +0.000 A 
ENDBRANCH   1  12
TORSDOF 2
