REMARK  Name = ZINC40829296
REMARK                            x       y       z     vdW  Elec       q    Type
REMARK                         _______ _______ _______ _____ _____    ______ ____
ROOT
ATOM      1  C   LIG    1        5.069  -2.595  -0.061  0.00  0.00    +0.034 A 
ATOM      2  C   LIG    1        5.760  -2.921  -1.165  0.00  0.00    +0.032 A 
ATOM      3  C   LIG    1        7.097  -3.332  -0.729  0.00  0.00    -0.000 A 
ATOM      4  C   LIG    1        8.242  -3.772  -1.394  0.00  0.00    +0.010 A 
ATOM      5  C   LIG    1        9.363  -4.087  -0.679  0.00  0.00    +0.001 A 
ATOM      6  C   LIG    1        9.373  -3.973   0.704  0.00  0.00    +0.002 A 
ATOM      7  C   LIG    1        8.254  -3.540   1.381  0.00  0.00    +0.026 A 
ATOM      8  C   LIG    1        7.101  -3.214   0.673  0.00  0.00    +0.047 A 
ATOM      9  N   LIG    1        5.856  -2.759   1.046  0.00  0.00    -0.357 N 
ATOM     10  H   LIG    1        5.577  -2.583   1.959  0.00  0.00    +0.166 HD
ENDROOT
BRANCH   1  11
ATOM     11  C   LIG    1        3.641  -2.114  -0.044  0.00  0.00    +0.154 C 
BRANCH  11  12
ATOM     12  N   LIG    1        3.620  -0.649  -0.036  0.00  0.00    -0.338 N 
ATOM     13  H   LIG    1        4.452  -0.152  -0.042  0.00  0.00    +0.146 HD
BRANCH  12  17
ATOM     14  C   LIG    1       -0.017   1.379   0.010  0.00  0.00    +0.000 A 
ATOM     15  C   LIG    1        1.169   2.089   0.002  0.00  0.00    +0.002 A 
ATOM     16  C   LIG    1        2.377   1.420  -0.013  0.00  0.00    +0.023 A 
ATOM     17  C   LIG    1        2.400   0.031  -0.021  0.00  0.00    +0.027 A 
ATOM     18  C   LIG    1        1.206  -0.680  -0.013  0.00  0.00    +0.023 A 
ATOM     19  C   LIG    1        0.002  -0.004   0.002  0.00  0.00    +0.002 A 
ENDBRANCH  12  17
ENDBRANCH  11  12
ENDBRANCH   1  11
TORSDOF 3
