REMARK  Name = ZINC35643764
REMARK                            x       y       z     vdW  Elec       q    Type
REMARK                         _______ _______ _______ _____ _____    ______ ____
ROOT
ATOM      1  C   LIG    1        1.578  -1.888  -3.192  0.00  0.00    -0.021 A 
ATOM      2  C   LIG    1        2.789  -2.464  -2.861  0.00  0.00    +0.028 A 
ATOM      3  C   LIG    1        3.416  -3.323  -3.753  0.00  0.00    +0.032 A 
ATOM      4  C   LIG    1        2.825  -3.602  -4.979  0.00  0.00    +0.027 A 
ATOM      5  C   LIG    1        1.615  -3.025  -5.309  0.00  0.00    +0.047 A 
ATOM      6  C   LIG    1        0.986  -2.171  -4.414  0.00  0.00    +0.118 A 
ENDROOT
BRANCH   3   7
ATOM      7  N   LIG    1        4.642  -3.908  -3.418  0.00  0.00    -0.314 N 
ATOM      8  H   LIG    1        5.327  -3.380  -2.978  0.00  0.00    +0.152 HD
BRANCH   7   9
ATOM      9  C   LIG    1        4.880  -5.241  -3.717  0.00  0.00    +0.042 A 
ATOM     10  C   LIG    1        3.869  -6.056  -4.204  0.00  0.00    +0.043 A 
ATOM     11  C   LIG    1        4.138  -7.386  -4.493  0.00  0.00    +0.113 A 
ATOM     12  N   LIG    1        5.331  -7.906  -4.320  0.00  0.00    -0.255 NA
ATOM     13  C   LIG    1        6.353  -7.179  -3.853  0.00  0.00    +0.074 A 
ATOM     14  C   LIG    1        7.624  -7.750  -3.673  0.00  0.00    +0.048 A 
ATOM     15  C   LIG    1        8.651  -6.983  -3.211  0.00  0.00    +0.043 A 
ATOM     16 CL   LIG    1       10.220  -7.694  -2.997  0.00  0.00    -0.083 Cl
ATOM     17  C   LIG    1        8.458  -5.638  -2.898  0.00  0.00    +0.021 A 
ATOM     18  C   LIG    1        7.238  -5.053  -3.056  0.00  0.00    +0.013 A 
ATOM     19  C   LIG    1        6.162  -5.812  -3.539  0.00  0.00    +0.022 A 
ENDBRANCH   7   9
ENDBRANCH   3   7
BRANCH   6  20
ATOM     20  O   LIG    1       -0.208  -1.607  -4.737  0.00  0.00    -0.507 OA
ATOM     21  H   LIG    1       -0.132  -0.758  -5.194  0.00  0.00    +0.292 HD
ENDBRANCH   6  20
BRANCH   1  22
ATOM     22  C   LIG    1        0.898  -0.955  -2.223  0.00  0.00    -0.043 C 
BRANCH  22  23
ATOM     23  N   LIG    1        1.046   0.430  -2.691  0.00  0.00    +0.382 N 
ATOM     24  H   LIG    1        2.026   0.662  -2.749  0.00  0.00    -0.085 HD
ATOM     25  H   LIG    1        0.623   0.524  -3.602  0.00  0.00    -0.085 HD
BRANCH  23  27
ATOM     26  C   LIG    1        0.536   2.781  -2.233  0.00  0.00    -0.017 C 
ATOM     27  C   LIG    1        0.382   1.339  -1.746  0.00  0.00    -0.086 C 
ENDBRANCH  23  27
ENDBRANCH  22  23
ENDBRANCH   1  22
TORSDOF 6
