REMARK  Name = ZINC00007944
REMARK                            x       y       z     vdW  Elec       q    Type
REMARK                         _______ _______ _______ _____ _____    ______ ____
ROOT
ATOM      1  C   LIG    1        1.048   1.691   0.395  0.00  0.00    +0.002 A 
ATOM      2  C   LIG    1       -0.155   1.035   0.182  0.00  0.00    +0.002 A 
ATOM      3  C   LIG    1       -1.315   1.752  -0.022  0.00  0.00    +0.028 A 
ATOM      4  C   LIG    1       -1.282   3.138  -0.004  0.00  0.00    +0.070 A 
ATOM      5  C   LIG    1       -0.067   3.808   0.212  0.00  0.00    +0.091 A 
ATOM      6  N   LIG    1       -0.332   5.140   0.173  0.00  0.00    -0.214 NA
ATOM      7  C   LIG    1       -1.609   5.328  -0.048  0.00  0.00    +0.199 A 
ATOM      8  N   LIG    1       -2.242   4.124  -0.165  0.00  0.00    -0.307 N 
ATOM      9  C   LIG    1        1.101   3.067   0.411  0.00  0.00    +0.030 A 
ENDROOT
BRANCH   7  10
ATOM     10  N   LIG    1       -2.223   6.559  -0.148  0.00  0.00    -0.305 N 
ATOM     11  C   LIG    1       -2.648   7.044   1.173  0.00  0.00    +0.089 C 
ATOM     12  C   LIG    1       -3.394   8.371   1.010  0.00  0.00    -0.063 C 
ATOM     13  N   LIG    1       -2.511   9.355   0.356  0.00  0.00    +0.381 N 
ATOM     14  H   LIG    1       -3.017  10.241   0.242  0.00  0.00    -0.086 HD
ATOM     15  H   LIG    1       -1.681   9.508   0.942  0.00  0.00    -0.086 HD
ATOM     16  C   LIG    1       -2.088   8.862  -0.968  0.00  0.00    -0.063 C 
ATOM     17  C   LIG    1       -1.343   7.535  -0.805  0.00  0.00    +0.089 C 
ENDBRANCH   7  10
BRANCH   8  18
ATOM     18  C   LIG    1       -3.670   3.914  -0.415  0.00  0.00    +0.160 C 
BRANCH  18  19
ATOM     19  C   LIG    1       -3.918   3.863  -1.900  0.00  0.00    -0.027 A 
ATOM     20  C   LIG    1       -4.210   5.024  -2.592  0.00  0.00    +0.008 A 
ATOM     21  C   LIG    1       -4.433   4.979  -3.955  0.00  0.00    +0.038 A 
ATOM     22  C   LIG    1       -4.375   3.769  -4.626  0.00  0.00    +0.123 A 
ATOM     23  F   LIG    1       -4.597   3.724  -5.958  0.00  0.00    -0.205 F 
ATOM     24  C   LIG    1       -4.088   2.607  -3.931  0.00  0.00    +0.038 A 
ATOM     25  C   LIG    1       -3.860   2.655  -2.569  0.00  0.00    +0.008 A 
ENDBRANCH  18  19
ENDBRANCH   8  18
TORSDOF 3
