REMARK  Name = ZINC13757088
REMARK                            x       y       z     vdW  Elec       q    Type
REMARK                         _______ _______ _______ _____ _____    ______ ____
ROOT
ATOM      1  C   LIG    1        0.041  -0.232   2.636  0.00  0.00    +0.080 C 
ATOM      2  C   LIG    1        0.468  -1.519   3.380  0.00  0.00    +0.234 C 
ATOM      3  O   LIG    1        0.039  -2.561   2.487  0.00  0.00    -0.490 OA
ATOM      4  C   LIG    1        0.037  -2.084   1.211  0.00  0.00    +0.138 A 
ATOM      5  C   LIG    1        0.044  -2.772  -0.001  0.00  0.00    +0.066 A 
ATOM      6 BR   LIG    1        0.075  -4.662  -0.011  0.00  0.00    -0.046 Br
ATOM      7  C   LIG    1        0.028  -2.079  -1.191  0.00  0.00    +0.015 A 
ATOM      8  C   LIG    1        0.040  -2.542  -2.636  0.00  0.00    +0.081 C 
ATOM      9  C   LIG    1        0.412  -1.241  -3.386  0.00  0.00    +0.234 C 
ATOM     10  O   LIG    1       -0.038  -0.215  -2.485  0.00  0.00    -0.491 OA
ATOM     11  C   LIG    1       -0.006  -0.691  -1.210  0.00  0.00    +0.128 A 
ATOM     12  C   LIG    1        0.002  -0.004   0.002  0.00  0.00    -0.000 A 
ATOM     13  C   LIG    1        0.023  -0.696   1.192  0.00  0.00    +0.005 A 
ENDROOT
BRANCH  12  14
ATOM     14  C   LIG    1       -0.018   1.503   0.010  0.00  0.00    +0.020 C 
BRANCH  14  15
ATOM     15  C   LIG    1        1.417   2.032  -0.001  0.00  0.00    -0.082 C 
BRANCH  15  16
ATOM     16  N   LIG    1        1.385   3.506  -0.014  0.00  0.00    +0.378 N 
ATOM     17  H   LIG    1        0.914   3.825  -0.869  0.00  0.00    -0.090 HD
ATOM     18  H   LIG    1        2.334   3.876   0.001  0.00  0.00    -0.090 HD
ATOM     19  H   LIG    1        0.874   3.851   0.796  0.00  0.00    -0.090 HD
ENDBRANCH  15  16
ENDBRANCH  14  15
ENDBRANCH  12  14
TORSDOF 3
