REMARK  Name = ZINC13782569
REMARK                            x       y       z     vdW  Elec       q    Type
REMARK                         _______ _______ _______ _____ _____    ______ ____
ROOT
ATOM      1  C   LIG    1        1.182   1.781   0.000  0.00  0.00    +0.002 A 
ATOM      2  C   LIG    1       -0.013   1.076   0.008  0.00  0.00    +0.002 A 
ATOM      3  C   LIG    1       -1.218   1.744   0.017  0.00  0.00    +0.028 A 
ATOM      4  C   LIG    1       -1.235   3.132   0.030  0.00  0.00    +0.073 A 
ATOM      5  C   LIG    1       -0.025   3.846   0.022  0.00  0.00    +0.089 A 
ATOM      6  N   LIG    1       -0.344   5.166   0.032  0.00  0.00    -0.235 NA
ATOM      7  C   LIG    1       -1.637   5.305   0.046  0.00  0.00    +0.205 A 
ATOM      8  N   LIG    1       -2.239   4.082   0.045  0.00  0.00    -0.299 N 
ATOM      9  C   LIG    1        1.185   3.147   0.007  0.00  0.00    +0.030 A 
ENDROOT
BRANCH   8  10
ATOM     10  C   LIG    1       -3.618   3.835   0.057  0.00  0.00    +0.049 A 
ATOM     11  C   LIG    1       -4.175   2.959  -0.869  0.00  0.00    +0.026 A 
ATOM     12  C   LIG    1       -5.534   2.706  -0.859  0.00  0.00    +0.003 A 
ATOM     13  C   LIG    1       -6.350   3.329   0.062  0.00  0.00    +0.011 A 
ATOM     14  C   LIG    1       -5.802   4.216   0.994  0.00  0.00    +0.016 A 
ATOM     15  C   LIG    1       -4.427   4.467   0.987  0.00  0.00    +0.037 A 
BRANCH  14  16
ATOM     16  C   LIG    1       -6.669   4.884   1.978  0.00  0.00    +0.258 C 
ATOM     17  O   LIG    1       -6.191   5.653   2.785  0.00  0.00    -0.296 OA
ENDBRANCH  14  16
ENDBRANCH   8  10
TORSDOF 2
