REMARK  Name = ZINC00075008
REMARK                            x       y       z     vdW  Elec       q    Type
REMARK                         _______ _______ _______ _____ _____    ______ ____
ROOT
ATOM      1  C   LIG    1        0.718  -0.497  -1.257  0.00  0.00    +0.104 C 
ATOM      2  C   LIG    1        0.821  -2.044  -1.253  0.00  0.00    +0.046 C 
ATOM      3  C   LIG    1       -0.365  -2.415  -2.184  0.00  0.00    +0.236 C 
ATOM      4  O   LIG    1       -0.361  -1.339  -3.146  0.00  0.00    -0.464 OA
ATOM      5  C   LIG    1       -0.103  -0.185  -2.493  0.00  0.00    +0.311 C 
ATOM      6  O   LIG    1       -0.468   0.915  -2.834  0.00  0.00    -0.251 OA
ENDROOT
BRANCH   1   8
ATOM      7  C   LIG    1       -0.019   1.526   0.010  0.00  0.00    +0.004 C 
ATOM      8  C   LIG    1        0.002  -0.004   0.002  0.00  0.00    +0.012 C 
ENDBRANCH   1   8
BRANCH   2   9
ATOM      9  C   LIG    1        0.616  -2.608   0.155  0.00  0.00    +0.062 C 
BRANCH   9  10
ATOM     10  C   LIG    1        0.844  -4.097   0.137  0.00  0.00    +0.038 A 
ATOM     11  C   LIG    1        2.027  -4.729   0.257  0.00  0.00    +0.133 A 
ATOM     12  N   LIG    1        1.801  -6.050   0.191  0.00  0.00    -0.244 NA
ATOM     13  C   LIG    1        0.522  -6.260   0.036  0.00  0.00    +0.199 A 
ATOM     14  N   LIG    1       -0.112  -5.068   0.003  0.00  0.00    -0.337 N 
ATOM     15  C   LIG    1       -1.553  -4.853  -0.150  0.00  0.00    +0.150 C 
ENDBRANCH   9  10
ENDBRANCH   2   9
TORSDOF 3
