REMARK  Name = ZINC22445253
REMARK                            x       y       z     vdW  Elec       q    Type
REMARK                         _______ _______ _______ _____ _____    ______ ____
ROOT
ATOM      1  N   LIG    1        1.338  -2.572  -0.130  0.00  0.00    -0.303 NA
ATOM      2  C   LIG    1        0.393  -1.939  -1.060  0.00  0.00    +0.066 C 
ATOM      3  C   LIG    1        0.576  -0.420  -1.014  0.00  0.00    -0.063 C 
ATOM      4  N   LIG    1        0.358   0.056   0.359  0.00  0.00    +0.384 N 
ATOM      5  H   LIG    1       -0.660  -0.232   0.661  0.00  0.00    -0.081 HD
ATOM      6  C   LIG    1        1.303  -0.578   1.290  0.00  0.00    -0.063 C 
ATOM      7  C   LIG    1        1.119  -2.097   1.243  0.00  0.00    +0.066 C 
ENDROOT
BRANCH   1   8
ATOM      8  C   LIG    1        1.245  -4.037  -0.201  0.00  0.00    +0.125 C 
BRANCH   8   9
ATOM      9  C   LIG    1        1.934  -4.530  -1.474  0.00  0.00    +0.244 C 
BRANCH   9  10
ATOM     10  O   LIG    1        3.331  -4.236  -1.404  0.00  0.00    -0.490 OA
BRANCH  10  20
ATOM     11  C   LIG    1        9.651  -3.667  -2.644  0.00  0.00    +0.065 C 
ATOM     12  C   LIG    1        8.166  -3.913  -2.583  0.00  0.00    +0.039 A 
ATOM     13  C   LIG    1        7.455  -3.496  -1.460  0.00  0.00    +0.024 A 
ATOM     14  C   LIG    1        6.108  -3.711  -1.387  0.00  0.00    +0.015 A 
ATOM     15  C   LIG    1        5.479  -4.355  -2.467  0.00  0.00    +0.042 A 
ATOM     16  C   LIG    1        6.261  -4.754  -3.580  0.00  0.00    +0.075 A 
ATOM     17  C   LIG    1        5.636  -5.398  -4.661  0.00  0.00    +0.028 A 
ATOM     18  C   LIG    1        4.295  -5.633  -4.631  0.00  0.00    +0.006 A 
ATOM     19  C   LIG    1        3.521  -5.251  -3.540  0.00  0.00    +0.046 A 
ATOM     20  C   LIG    1        4.094  -4.611  -2.463  0.00  0.00    +0.130 A 
ATOM     21  N   LIG    1        7.576  -4.513  -3.588  0.00  0.00    -0.252 NA
ENDBRANCH  10  20
ENDBRANCH   9  10
ENDBRANCH   8   9
ENDBRANCH   1   8
BRANCH   4  22
ATOM     22  C   LIG    1        0.451   1.520   0.430  0.00  0.00    -0.041 C 
BRANCH  22  23
ATOM     23  C   LIG    1       -0.016   1.988   1.785  0.00  0.00    -0.038 A 
ATOM     24  C   LIG    1       -1.275   2.482   1.940  0.00  0.00    +0.004 A 
ATOM     25  C   LIG    1       -1.727   2.921   3.183  0.00  0.00    +0.001 A 
ATOM     26  C   LIG    1       -0.920   2.866   4.279  0.00  0.00    +0.010 A 
ATOM     27  C   LIG    1        0.384   2.361   4.155  0.00  0.00    +0.001 A 
ATOM     28  C   LIG    1        1.250   2.288   5.263  0.00  0.00    +0.011 A 
ATOM     29  C   LIG    1        2.499   1.769   5.072  0.00  0.00    +0.020 A 
ATOM     30  C   LIG    1        2.890   1.348   3.803  0.00  0.00    +0.111 A 
ATOM     31  N   LIG    1        2.084   1.423   2.772  0.00  0.00    -0.255 NA
ATOM     32  C   LIG    1        0.844   1.910   2.893  0.00  0.00    +0.072 A 
ENDBRANCH  22  23
ENDBRANCH   4  22
TORSDOF 6
