REMARK  Name = ZINC27623417
REMARK                            x       y       z     vdW  Elec       q    Type
REMARK                         _______ _______ _______ _____ _____    ______ ____
ROOT
ATOM      1  C   LIG    1       -1.329  -2.510  -2.651  0.00  0.00    +0.134 A 
ATOM      2  C   LIG    1       -1.657  -2.470  -3.998  0.00  0.00    +0.047 A 
ATOM      3  C   LIG    1       -1.385  -1.338  -4.739  0.00  0.00    +0.007 A 
ATOM      4  C   LIG    1       -0.786  -0.240  -4.143  0.00  0.00    -0.042 A 
ATOM      5  C   LIG    1       -0.456  -0.279  -2.800  0.00  0.00    -0.024 A 
ATOM      6  C   LIG    1        0.180   1.034  -2.393  0.00  0.00    +0.085 C 
ATOM      7  C   LIG    1       -0.190   2.028  -3.514  0.00  0.00    +0.028 C 
ATOM      8  C   LIG    1       -0.390   1.098  -4.729  0.00  0.00    +0.037 C 
ATOM      9  C   LIG    1       -0.729  -1.411  -2.055  0.00  0.00    +0.052 A 
ENDROOT
BRANCH   6  10
ATOM     10  N   LIG    1       -0.365   1.488  -1.108  0.00  0.00    -0.299 NA
ATOM     11  H   LIG    1       -0.313   2.586  -1.054  0.00  0.00    +0.123 HD
BRANCH  10  12
ATOM     12  C   LIG    1        0.395   0.925   0.016  0.00  0.00    +0.171 C 
BRANCH  12  13
ATOM     13  C   LIG    1       -0.179   1.401   1.285  0.00  0.00    -0.090 C 
ATOM     14  C   LIG    1       -0.637   1.781   2.297  0.00  0.00    +0.005 C 
ENDBRANCH  12  13
ENDBRANCH  10  12
ENDBRANCH   6  10
BRANCH   1  15
ATOM     15  O   LIG    1       -1.596  -3.622  -1.917  0.00  0.00    -0.411 OA
BRANCH  15  17
ATOM     16  N   LIG    1       -2.807  -4.552  -0.152  0.00  0.00    -0.270 N 
ATOM     17  C   LIG    1       -2.573  -3.527  -0.995  0.00  0.00    +0.408 C 
ATOM     18  O   LIG    1       -3.243  -2.516  -0.922  0.00  0.00    -0.226 OA
ATOM     19  C   LIG    1       -1.998  -5.771  -0.239  0.00  0.00    +0.135 C 
BRANCH  16  21
ATOM     20  C   LIG    1       -5.181  -4.970   0.260  0.00  0.00    +0.024 C 
ATOM     21  C   LIG    1       -3.869  -4.449   0.851  0.00  0.00    +0.107 C 
ENDBRANCH  16  21
ENDBRANCH  15  17
ENDBRANCH   1  15
TORSDOF 6
