REMARK  Name = ZINC13860562
REMARK                            x       y       z     vdW  Elec       q    Type
REMARK                         _______ _______ _______ _____ _____    ______ ____
ROOT
ATOM      1  C   LIG    1       -2.982   0.734   1.109  0.00  0.00    -0.018 A 
ATOM      2  C   LIG    1       -2.348   0.562  -0.125  0.00  0.00    -0.002 A 
ATOM      3  C   LIG    1       -3.115   0.119  -1.206  0.00  0.00    +0.010 A 
ATOM      4  C   LIG    1       -4.456  -0.140  -1.013  0.00  0.00    +0.050 A 
ATOM      5  N   LIG    1       -5.017   0.036   0.168  0.00  0.00    -0.255 NA
ATOM      6  C   LIG    1       -4.329   0.458   1.213  0.00  0.00    +0.048 A 
ENDROOT
BRANCH   2   7
ATOM      7  C   LIG    1       -0.902   0.848  -0.284  0.00  0.00    +0.024 A 
ATOM      8  C   LIG    1        0.038  -0.159  -0.068  0.00  0.00    +0.015 A 
ATOM      9  C   LIG    1        1.382   0.109  -0.222  0.00  0.00    +0.039 A 
ATOM     10  C   LIG    1        1.803   1.379  -0.586  0.00  0.00    +0.127 A 
ATOM     11  F   LIG    1        3.122   1.634  -0.735  0.00  0.00    -0.205 F 
ATOM     12  C   LIG    1        0.878   2.387  -0.798  0.00  0.00    +0.084 A 
ATOM     13  C   LIG    1       -0.475   2.129  -0.646  0.00  0.00    +0.127 A 
BRANCH  13  14
ATOM     14  O   LIG    1       -1.383   3.117  -0.853  0.00  0.00    -0.506 OA
ATOM     15  H   LIG    1       -1.699   3.176  -1.765  0.00  0.00    +0.292 HD
ENDBRANCH  13  14
ENDBRANCH   2   7
BRANCH   4  16
ATOM     16  C   LIG    1       -5.294  -0.624  -2.169  0.00  0.00    +0.032 C 
ATOM     17  C   LIG    1       -6.534   0.262  -2.306  0.00  0.00    +0.014 C 
ATOM     18  C   LIG    1       -5.726  -2.070  -1.915  0.00  0.00    +0.014 C 
ENDBRANCH   4  16
BRANCH   6  19
ATOM     19  C   LIG    1       -5.026   0.639   2.537  0.00  0.00    +0.032 C 
ATOM     20  C   LIG    1       -5.467  -0.725   3.072  0.00  0.00    +0.014 C 
ATOM     21  C   LIG    1       -6.252   1.534   2.350  0.00  0.00    +0.014 C 
ENDBRANCH   6  19
BRANCH   3  22
ATOM     22  C   LIG    1       -2.486  -0.078  -2.561  0.00  0.00    +0.144 C 
ATOM     23  C   LIG    1       -2.936   1.042  -3.501  0.00  0.00    +0.043 C 
BRANCH  22  24
ATOM     24  O   LIG    1       -2.891  -1.340  -3.096  0.00  0.00    -0.387 OA
ATOM     25  H   LIG    1       -2.638  -2.098  -2.550  0.00  0.00    +0.210 HD
ENDBRANCH  22  24
ENDBRANCH   3  22
BRANCH   1  26
ATOM     26  C   LIG    1       -2.206   1.215   2.308  0.00  0.00    +0.037 C 
BRANCH  26  28
ATOM     27  C   LIG    1       -1.578   3.218   3.663  0.00  0.00    +0.004 C 
ATOM     28  C   LIG    1       -2.366   2.730   2.446  0.00  0.00    +0.001 C 
ENDBRANCH  26  28
ENDBRANCH   1  26
TORSDOF 8
