REMARK  Name = ZINC15777176
REMARK                            x       y       z     vdW  Elec       q    Type
REMARK                         _______ _______ _______ _____ _____    ______ ____
ROOT
ATOM      1  N   LIG    1        2.179  -2.566  -2.255  0.00  0.00    -0.264 NA
ENDROOT
BRANCH   1   2
ATOM      2  C   LIG    1        2.275  -1.115  -2.458  0.00  0.00    +0.087 C 
BRANCH   2   3
ATOM      3  C   LIG    1        3.654  -0.769  -3.024  0.00  0.00    +0.015 C 
BRANCH   3   4
ATOM      4  C   LIG    1        3.803   0.751  -3.110  0.00  0.00    +0.001 C 
BRANCH   4   5
ATOM      5  C   LIG    1        5.182   1.097  -3.676  0.00  0.00    -0.000 C 
BRANCH   5   7
ATOM      6  C   LIG    1        6.711   2.962  -4.328  0.00  0.00    +0.004 C 
ATOM      7  C   LIG    1        5.332   2.617  -3.762  0.00  0.00    -0.003 C 
ENDBRANCH   5   7
ENDBRANCH   4   5
ENDBRANCH   3   4
ENDBRANCH   2   3
ENDBRANCH   1   2
BRANCH   1   8
ATOM      8  C   LIG    1        2.290  -3.285  -3.531  0.00  0.00    +0.259 C 
BRANCH   8   9
ATOM      9  S   LIG    1        3.018  -4.921  -3.241  0.00  0.00    +0.010 S 
ATOM     10  O   LIG    1        4.157  -4.808  -2.398  0.00  0.00    -0.168 OA
ATOM     11  O   LIG    1        3.089  -5.648  -4.460  0.00  0.00    -0.168 OA
BRANCH   9  12
ATOM     12  C   LIG    1        1.825  -5.783  -2.273  0.00  0.00    +0.090 A 
ATOM     13  C   LIG    1        1.878  -5.719  -0.893  0.00  0.00    +0.027 A 
ATOM     14  C   LIG    1        0.940  -6.391  -0.133  0.00  0.00    +0.005 A 
ATOM     15  C   LIG    1       -0.046  -7.136  -0.753  0.00  0.00    -0.050 A 
ATOM     16  C   LIG    1       -1.067  -7.873   0.075  0.00  0.00    +0.044 C 
ATOM     17  C   LIG    1       -0.096  -7.204  -2.133  0.00  0.00    +0.005 A 
ATOM     18  C   LIG    1        0.840  -6.528  -2.893  0.00  0.00    +0.027 A 
ENDBRANCH   9  12
ENDBRANCH   8   9
ENDBRANCH   1   8
BRANCH   1  19
ATOM     19  C   LIG    1        0.934  -2.919  -1.559  0.00  0.00    +0.259 C 
BRANCH  19  20
ATOM     20  S   LIG    1        1.154  -2.689   0.227  0.00  0.00    +0.010 S 
ATOM     21  O   LIG    1       -0.055  -2.987   0.912  0.00  0.00    -0.168 OA
ATOM     22  O   LIG    1        2.384  -3.263   0.647  0.00  0.00    -0.168 OA
BRANCH  20  23
ATOM     23  C   LIG    1        1.373  -0.954   0.437  0.00  0.00    +0.090 A 
ATOM     24  C   LIG    1        0.273  -0.117   0.468  0.00  0.00    +0.027 A 
ATOM     25  C   LIG    1        0.445   1.245   0.633  0.00  0.00    +0.005 A 
ATOM     26  C   LIG    1        1.717   1.770   0.768  0.00  0.00    -0.050 A 
ATOM     27  C   LIG    1        1.904   3.254   0.948  0.00  0.00    +0.044 C 
ATOM     28  C   LIG    1        2.817   0.933   0.736  0.00  0.00    +0.005 A 
ATOM     29  C   LIG    1        2.645  -0.429   0.571  0.00  0.00    +0.027 A 
ENDBRANCH  20  23
ENDBRANCH  19  20
ENDBRANCH   1  19
TORSDOF 11
