REMARK  Name = ZINC00001582
REMARK                            x       y       z     vdW  Elec       q    Type
REMARK                         _______ _______ _______ _____ _____    ______ ____
ROOT
ATOM      1  C   LIG    1       -1.175   3.397   0.084  0.00  0.00    +0.218 A 
ATOM      2  N   LIG    1       -1.169   2.078  -0.037  0.00  0.00    -0.198 NA
ATOM      3  C   LIG    1       -0.024   1.407  -0.101  0.00  0.00    +0.141 A 
ATOM      4  C   LIG    1        1.182   2.118  -0.050  0.00  0.00    +0.085 A 
ATOM      5  C   LIG    1        1.129   3.499   0.071  0.00  0.00    +0.149 A 
ATOM      6 CL   LIG    1        2.591   4.432   0.138  0.00  0.00    -0.061 Cl
ATOM      7  N   LIG    1       -0.053   4.098   0.134  0.00  0.00    -0.202 NA
ENDROOT
BRANCH   3   8
ATOM      8  N   LIG    1       -0.023   0.025  -0.221  0.00  0.00    -0.318 N 
ATOM      9  C   LIG    1       -0.693  -0.397  -1.459  0.00  0.00    +0.088 C 
ATOM     10  C   LIG    1       -0.601  -1.918  -1.594  0.00  0.00    -0.060 C 
ATOM     11  N   LIG    1       -1.249  -2.541  -0.420  0.00  0.00    +0.380 N 
ATOM     12  H   LIG    1       -2.226  -2.228  -0.373  0.00  0.00    -0.082 HD
ATOM     13  C   LIG    1       -1.222  -4.013  -0.549  0.00  0.00    -0.096 C 
ATOM     14  C   LIG    1       -0.553  -2.128   0.817  0.00  0.00    -0.060 C 
ATOM     15  C   LIG    1       -0.645  -0.607   0.952  0.00  0.00    +0.088 C 
ENDBRANCH   3   8
BRANCH   1  16
ATOM     16  N   LIG    1       -2.390   4.063   0.153  0.00  0.00    -0.311 N 
ATOM     17  H   LIG    1       -3.220   3.562   0.118  0.00  0.00    +0.149 HD
BRANCH  16  19
ATOM     18  C   LIG    1       -2.318   6.157  -1.107  0.00  0.00    +0.027 C 
ATOM     19  C   LIG    1       -2.419   5.522   0.281  0.00  0.00    +0.067 C 
ATOM     20  C   LIG    1       -3.731   5.950   0.943  0.00  0.00    +0.027 C 
ENDBRANCH  16  19
ENDBRANCH   1  16
BRANCH   4  21
ATOM     21  S   LIG    1        2.729   1.278  -0.138  0.00  0.00    -0.122 S 
ATOM     22  C   LIG    1        3.094   1.214  -1.913  0.00  0.00    +0.090 C 
ENDBRANCH   4  21
TORSDOF 4
