REMARK  Name = ZINC26396245
REMARK                            x       y       z     vdW  Elec       q    Type
REMARK                         _______ _______ _______ _____ _____    ______ ____
ROOT
ATOM      1  N   LIG    1       -2.136   8.559   0.066  0.00  0.00    +0.386 N 
ATOM      2  H   LIG    1       -2.710   8.303   0.969  0.00  0.00    -0.085 HD
ATOM      3  H   LIG    1       -2.728   8.312  -0.827  0.00  0.00    -0.085 HD
ENDROOT
BRANCH   1   4
ATOM      4  C   LIG    1       -0.882   7.795   0.050  0.00  0.00    -0.063 C 
BRANCH   4   5
ATOM      5  C   LIG    1       -1.197   6.298   0.046  0.00  0.00    +0.084 C 
BRANCH   5   6
ATOM      6  N   LIG    1        0.054   5.535   0.030  0.00  0.00    -0.331 N 
ATOM      7  H   LIG    1        1.019   6.062   0.023  0.00  0.00    +0.147 HD
BRANCH   6  10
ATOM      8  C   LIG    1       -1.236   2.123   0.019  0.00  0.00    +0.024 A 
ATOM      9  C   LIG    1       -1.207   3.492   0.032  0.00  0.00    +0.045 A 
ATOM     10  C   LIG    1        0.021   4.150   0.024  0.00  0.00    +0.119 A 
ATOM     11  N   LIG    1        1.159   3.469   0.009  0.00  0.00    -0.239 NA
ATOM     12  C   LIG    1        1.176   2.152   0.002  0.00  0.00    +0.131 A 
ATOM     13  C   LIG    1       -0.017   1.428   0.010  0.00  0.00    +0.070 A 
BRANCH  13  14
ATOM     14  C   LIG    1        0.002  -0.004   0.002  0.00  0.00    +0.101 C 
ATOM     15  N   LIG    1        0.018  -1.140  -0.004  0.00  0.00    -0.191 NA
ENDBRANCH  13  14
ENDBRANCH   6  10
ENDBRANCH   5   6
ENDBRANCH   4   5
ENDBRANCH   1   4
BRANCH   1  16
ATOM     16  C   LIG    1       -1.872  10.004   0.070  0.00  0.00    +0.015 C 
BRANCH  16  17
ATOM     17  C   LIG    1       -3.179  10.754   0.087  0.00  0.00    +0.200 C 
ATOM     18  N   LIG    1       -3.183  12.101   0.093  0.00  0.00    -0.287 N 
ATOM     19  C   LIG    1       -1.988  12.964   0.092  0.00  0.00    +0.109 C 
ATOM     20  C   LIG    1       -2.460  14.301   0.710  0.00  0.00    +0.022 C 
ATOM     21  C   LIG    1       -3.898  14.420   0.140  0.00  0.00    +0.039 C 
ATOM     22  C   LIG    1       -4.380  12.955   0.109  0.00  0.00    +0.179 C 
ATOM     23  O   LIG    1       -4.228  10.144   0.095  0.00  0.00    -0.278 OA
BRANCH  22  24
ATOM     24  C   LIG    1       -5.183  12.714  -1.101  0.00  0.00    +0.085 C 
ATOM     25  N   LIG    1       -5.803  12.527  -2.034  0.00  0.00    -0.195 NA
ENDBRANCH  22  24
ENDBRANCH  16  17
ENDBRANCH   1  16
TORSDOF 8
