REMARK  Name = ZINC22309237
REMARK                            x       y       z     vdW  Elec       q    Type
REMARK                         _______ _______ _______ _____ _____    ______ ____
ROOT
ATOM      1  C   LIG    1       -0.018   1.032   2.508  0.00  0.00    +0.011 C 
ATOM      2  C   LIG    1       -0.728   1.579   1.268  0.00  0.00    -0.023 C 
ATOM      3  C   LIG    1       -0.716   3.108   1.299  0.00  0.00    +0.011 C 
ATOM      4  C   LIG    1       -0.013   1.086   0.008  0.00  0.00    +0.058 C 
ATOM      5  C   LIG    1       -0.741   1.585  -1.215  0.00  0.00    +0.019 C 
ATOM      6  C   LIG    1       -2.079   1.786  -1.180  0.00  0.00    +0.037 C 
ATOM      7  C   LIG    1       -2.834   1.553  -0.026  0.00  0.00    +0.163 C 
ATOM      8  O   LIG    1       -4.035   1.736  -0.047  0.00  0.00    -0.292 OA
ATOM      9  C   LIG    1       -2.760   2.284  -2.438  0.00  0.00    +0.138 C 
ATOM     10  N   LIG    1       -1.902   2.515  -3.613  0.00  0.00    -0.315 N 
ATOM     11  H   LIG    1       -2.344   2.876  -4.553  0.00  0.00    +0.149 HD
ATOM     12  C   LIG    1       -0.582   2.272  -3.495  0.00  0.00    +0.135 C 
ATOM     13  S   LIG    1        0.430   2.537  -4.850  0.00  0.00    -0.019 S 
ATOM     14  N   LIG    1       -0.034   1.831  -2.358  0.00  0.00    -0.300 N 
ATOM     15  H   LIG    1        1.053   1.666  -2.378  0.00  0.00    +0.154 HD
ATOM     16  C   LIG    1       -2.175   1.077   1.243  0.00  0.00    +0.086 C 
ENDROOT
BRANCH   9  17
ATOM     17  C   LIG    1       -3.815   1.279  -2.823  0.00  0.00    -0.019 A 
ATOM     18  C   LIG    1       -3.484   0.202  -3.624  0.00  0.00    +0.006 A 
ATOM     19  C   LIG    1       -4.448  -0.725  -3.975  0.00  0.00    +0.004 A 
ATOM     20  C   LIG    1       -5.748  -0.571  -3.534  0.00  0.00    +0.045 A 
ATOM     21  C   LIG    1       -6.085   0.512  -2.735  0.00  0.00    +0.117 A 
ATOM     22  C   LIG    1       -5.114   1.438  -2.380  0.00  0.00    +0.051 A 
BRANCH  21  23
ATOM     23  O   LIG    1       -7.363   0.666  -2.301  0.00  0.00    -0.507 OA
ATOM     24  H   LIG    1       -7.629   1.525  -1.667  0.00  0.00    +0.292 HD
ENDBRANCH  21  23
ENDBRANCH   9  17
TORSDOF 2
