REMARK  Name = ZINC33989874
REMARK                            x       y       z     vdW  Elec       q    Type
REMARK                         _______ _______ _______ _____ _____    ______ ____
ROOT
ATOM      1  N   LIG    1        1.202  -6.059   0.263  0.00  0.00    -0.259 N 
ATOM      2  C   LIG    1        1.947  -6.007  -0.878  0.00  0.00    +0.070 A 
ATOM      3  C   LIG    1        3.258  -5.987  -0.493  0.00  0.00    +0.062 A 
ATOM      4  C   LIG    1        3.237  -6.031   0.918  0.00  0.00    +0.148 A 
ATOM      5  N   LIG    1        1.973  -6.068   1.291  0.00  0.00    -0.166 NA
ENDROOT
BRANCH   2   6
ATOM      6  C   LIG    1        1.434  -5.977  -2.266  0.00  0.00    +0.000 A 
ATOM      7  C   LIG    1        0.098  -5.660  -2.512  0.00  0.00    +0.011 A 
ATOM      8  C   LIG    1       -0.375  -5.634  -3.808  0.00  0.00    +0.021 A 
ATOM      9  C   LIG    1        0.474  -5.921  -4.863  0.00  0.00    +0.044 A 
ATOM     10 CL   LIG    1       -0.127  -5.887  -6.491  0.00  0.00    -0.083 Cl
ATOM     11  C   LIG    1        1.801  -6.236  -4.625  0.00  0.00    -0.032 A 
ATOM     12  C   LIG    1        2.719  -6.548  -5.779  0.00  0.00    +0.045 C 
ATOM     13  C   LIG    1        2.286  -6.259  -3.333  0.00  0.00    +0.014 A 
ENDBRANCH   2   6
BRANCH   4  14
ATOM     14  C   LIG    1        4.413  -6.031   1.812  0.00  0.00    +0.264 C 
ATOM     15  N   LIG    1        4.244  -6.076   3.148  0.00  0.00    -0.306 N 
ATOM     16  H   LIG    1        3.350  -6.108   3.523  0.00  0.00    +0.149 HD
ATOM     17  O   LIG    1        5.534  -5.990   1.342  0.00  0.00    -0.268 OA
BRANCH  15  18
ATOM     18  C   LIG    1        5.411  -6.076   4.034  0.00  0.00    +0.085 C 
ATOM     19  C   LIG    1        5.586  -7.474   4.702  0.00  0.00    -0.013 C 
ATOM     20  C   LIG    1        6.278  -8.540   3.850  0.00  0.00    +0.013 C 
ATOM     21  C   LIG    1        4.168  -7.829   5.244  0.00  0.00    +0.009 C 
ATOM     22  C   LIG    1        3.947  -6.856   6.426  0.00  0.00    +0.005 C 
ATOM     23  C   LIG    1        5.253  -6.006   6.486  0.00  0.00    -0.003 C 
ATOM     24  C   LIG    1        6.313  -7.071   6.033  0.00  0.00    +0.012 C 
ATOM     25  C   LIG    1        5.191  -5.101   5.214  0.00  0.00    -0.013 C 
ATOM     26  C   LIG    1        6.301  -4.050   5.251  0.00  0.00    +0.013 C 
ATOM     27  C   LIG    1        3.821  -4.429   5.103  0.00  0.00    +0.013 C 
ENDBRANCH  15  18
ENDBRANCH   4  14
BRANCH   1  28
ATOM     28  C   LIG    1       -0.262  -6.095   0.310  0.00  0.00    +0.179 C 
BRANCH  28  33
ATOM     29  C   LIG    1       -1.996  -7.028   5.743  0.00  0.00    +0.044 C 
ATOM     30  C   LIG    1       -1.543  -6.784   4.326  0.00  0.00    -0.050 A 
ATOM     31  C   LIG    1       -1.408  -5.491   3.856  0.00  0.00    +0.004 A 
ATOM     32  C   LIG    1       -0.994  -5.268   2.557  0.00  0.00    +0.006 A 
ATOM     33  C   LIG    1       -0.713  -6.338   1.727  0.00  0.00    -0.026 A 
ATOM     34  C   LIG    1       -0.848  -7.631   2.198  0.00  0.00    +0.006 A 
ATOM     35  C   LIG    1       -1.258  -7.854   3.498  0.00  0.00    +0.004 A 
ENDBRANCH  28  33
ENDBRANCH   1  28
TORSDOF 5
