REMARK  Name = ZINC14711612
REMARK                            x       y       z     vdW  Elec       q    Type
REMARK                         _______ _______ _______ _____ _____    ______ ____
ROOT
ATOM      1  C   LIG    1        4.730   3.105   2.379  0.00  0.00    +0.037 A 
ATOM      2  C   LIG    1        5.116   3.999   1.389  0.00  0.00    +0.127 A 
ATOM      3  C   LIG    1        5.894   5.107   1.699  0.00  0.00    +0.092 A 
ATOM      4  C   LIG    1        6.307   5.322   3.002  0.00  0.00    +0.134 A 
ATOM      5  C   LIG    1        5.930   4.415   4.005  0.00  0.00    +0.101 A 
ATOM      6  C   LIG    1        6.364   4.610   5.392  0.00  0.00    +0.174 C 
ATOM      7  O   LIG    1        7.223   5.416   5.685  0.00  0.00    -0.292 OA
ATOM      8  C   LIG    1        5.684   3.752   6.444  0.00  0.00    +0.129 C 
ATOM      9  C   LIG    1        5.522   2.346   5.848  0.00  0.00    +0.215 C 
ATOM     10  O   LIG    1        4.749   2.427   4.650  0.00  0.00    -0.482 OA
ATOM     11  C   LIG    1        5.130   3.301   3.689  0.00  0.00    +0.142 A 
ENDROOT
BRANCH   9  12
ATOM     12  C   LIG    1        4.819   1.457   6.841  0.00  0.00    +0.035 A 
ATOM     13  C   LIG    1        3.446   1.311   6.786  0.00  0.00    +0.014 A 
ATOM     14  C   LIG    1        2.799   0.492   7.691  0.00  0.00    +0.046 A 
ATOM     15  C   LIG    1        3.526  -0.177   8.666  0.00  0.00    +0.120 A 
ATOM     16  C   LIG    1        4.903  -0.028   8.727  0.00  0.00    +0.091 A 
ATOM     17  C   LIG    1        5.550   0.790   7.813  0.00  0.00    +0.130 A 
BRANCH  15  18
ATOM     18  O   LIG    1        2.889  -0.978   9.560  0.00  0.00    -0.507 OA
ATOM     19  H   LIG    1        2.605  -0.522  10.364  0.00  0.00    +0.292 HD
ENDBRANCH  15  18
BRANCH  17  20
ATOM     20  O   LIG    1        6.900   0.939   7.870  0.00  0.00    -0.495 OA
ATOM     21  C   LIG    1        7.588   0.222   8.897  0.00  0.00    +0.277 C 
ENDBRANCH  17  20
ENDBRANCH   9  12
BRANCH   2  22
ATOM     22  O   LIG    1        4.723   3.792   0.107  0.00  0.00    -0.506 OA
ATOM     23  H   LIG    1        3.880   4.208  -0.118  0.00  0.00    +0.292 HD
ENDBRANCH   2  22
BRANCH   4  24
ATOM     24  O   LIG    1        7.069   6.401   3.308  0.00  0.00    -0.506 OA
ATOM     25  H   LIG    1        8.021   6.241   3.244  0.00  0.00    +0.292 HD
ENDBRANCH   4  24
BRANCH   1  26
ATOM     26  C   LIG    1        3.878   1.913   2.025  0.00  0.00    +0.050 C 
BRANCH  26  27
ATOM     27  C   LIG    1        4.775   0.696   1.792  0.00  0.00    +0.022 C 
BRANCH  27  28
ATOM     28  C   LIG    1        5.616   0.919   0.562  0.00  0.00    -0.076 C 
ATOM     29  C   LIG    1        4.961   0.999  -0.793  0.00  0.00    +0.039 C 
ATOM     30  C   LIG    1        6.915   1.043   0.670  0.00  0.00    +0.007 C 
ENDBRANCH  27  28
BRANCH  27  31
ATOM     31  C   LIG    1        3.906  -0.548   1.598  0.00  0.00    +0.035 C 
BRANCH  31  35
ATOM     32  C   LIG    1        3.422  -2.792   3.236  0.00  0.00    +0.038 C 
ATOM     33  C   LIG    1        4.599  -2.784   2.294  0.00  0.00    -0.080 C 
ATOM     34  C   LIG    1        5.557  -3.947   2.274  0.00  0.00    +0.038 C 
ATOM     35  C   LIG    1        4.788  -1.766   1.492  0.00  0.00    -0.028 C 
ENDBRANCH  31  35
ENDBRANCH  27  31
ENDBRANCH  26  27
ENDBRANCH   1  26
TORSDOF 10
