REMARK  Name = ZINC19851562
REMARK                            x       y       z     vdW  Elec       q    Type
REMARK                         _______ _______ _______ _____ _____    ______ ____
ROOT
ATOM      1  C   LIG    1       -0.017   1.405  -0.013  0.00  0.00    +0.023 A 
ATOM      2  C   LIG    1        1.218   2.085  -0.029  0.00  0.00    +0.100 A 
ATOM      3  C   LIG    1        2.409   1.335  -0.044  0.00  0.00    +0.136 A 
ATOM      4  N   LIG    1        2.380   0.012  -0.042  0.00  0.00    -0.224 NA
ATOM      5  C   LIG    1        1.243  -0.668  -0.027  0.00  0.00    +0.117 A 
ATOM      6  C   LIG    1        0.002  -0.004  -0.011  0.00  0.00    +0.093 A 
ENDROOT
BRANCH   1  10
ATOM      7  C   LIG    1       -3.688   3.542   0.016  0.00  0.00    +0.000 A 
ATOM      8  C   LIG    1       -2.829   3.635   1.096  0.00  0.00    +0.001 A 
ATOM      9  C   LIG    1       -1.635   2.943   1.093  0.00  0.00    +0.008 A 
ATOM     10  C   LIG    1       -1.296   2.149  -0.003  0.00  0.00    -0.015 A 
ATOM     11  C   LIG    1       -2.164   2.064  -1.091  0.00  0.00    +0.008 A 
ATOM     12  C   LIG    1       -3.357   2.756  -1.073  0.00  0.00    +0.001 A 
ENDBRANCH   1  10
BRANCH   3  13
ATOM     13  N   LIG    1        3.624   1.989  -0.060  0.00  0.00    -0.342 N 
ATOM     14  H   LIG    1        3.657   3.089  -0.062  0.00  0.00    +0.144 HD
ATOM     15  H   LIG    1        4.560   1.411  -0.071  0.00  0.00    +0.144 HD
ENDBRANCH   3  13
BRANCH   2  16
ATOM     16  C   LIG    1        1.260   3.516  -0.032  0.00  0.00    +0.103 C 
ATOM     17  N   LIG    1        1.293   4.652  -0.034  0.00  0.00    -0.191 NA
ENDBRANCH   2  16
BRANCH   6  18
ATOM     18  C   LIG    1       -1.221  -0.747   0.006  0.00  0.00    +0.102 C 
ATOM     19  N   LIG    1       -2.192  -1.337   0.020  0.00  0.00    -0.191 NA
ENDBRANCH   6  18
BRANCH   5  20
ATOM     20  S   LIG    1        1.285  -2.430  -0.025  0.00  0.00    -0.095 S 
BRANCH  20  21
ATOM     21  C   LIG    1        3.075  -2.702  -0.049  0.00  0.00    +0.172 C 
BRANCH  21  22
ATOM     22  C   LIG    1        3.358  -4.182  -0.051  0.00  0.00    +0.227 C 
ATOM     23  N   LIG    1        4.631  -4.624  -0.067  0.00  0.00    -0.285 N 
ATOM     24  H   LIG    1        5.461  -3.908  -0.156  0.00  0.00    +0.155 HD
ATOM     25  O   LIG    1        2.441  -4.975  -0.038  0.00  0.00    -0.275 OA
BRANCH  23  26
ATOM     26  C   LIG    1        4.897  -5.996   0.029  0.00  0.00    +0.034 A 
ATOM     27  C   LIG    1        6.024  -6.440   0.707  0.00  0.00    +0.026 A 
ATOM     28  C   LIG    1        6.281  -7.793   0.805  0.00  0.00    +0.040 A 
ATOM     29  C   LIG    1        5.422  -8.707   0.218  0.00  0.00    +0.124 A 
ATOM     30  F   LIG    1        5.678 -10.030   0.311  0.00  0.00    -0.205 F 
ATOM     31  C   LIG    1        4.301  -8.266  -0.464  0.00  0.00    +0.040 A 
ATOM     32  C   LIG    1        4.037  -6.913  -0.559  0.00  0.00    +0.026 A 
ENDBRANCH  23  26
ENDBRANCH  21  22
ENDBRANCH  20  21
ENDBRANCH   5  20
TORSDOF 8
