REMARK  Name = ZINC18116590
REMARK                            x       y       z     vdW  Elec       q    Type
REMARK                         _______ _______ _______ _____ _____    ______ ____
ROOT
ATOM      1  N   LIG    1        0.678   1.998  -1.089  0.00  0.00    -0.190 N 
ATOM      2  C   LIG    1       -0.303   1.331  -0.447  0.00  0.00    +0.263 C 
ATOM      3  C   LIG    1       -0.050  -0.064  -0.045  0.00  0.00    +0.100 C 
ATOM      4  C   LIG    1        1.269  -0.629  -0.379  0.00  0.00    +0.257 C 
ATOM      5  N   LIG    1        2.155   0.156  -1.025  0.00  0.00    -0.235 N 
ATOM      6  H   LIG    1        3.028  -0.201  -1.252  0.00  0.00    +0.159 HD
ATOM      7  O   LIG    1        1.551  -1.775  -0.080  0.00  0.00    -0.270 OA
ATOM      8  C   LIG    1       -1.013  -0.812   0.619  0.00  0.00    +0.028 C 
ATOM      9  O   LIG    1       -1.370   1.865  -0.210  0.00  0.00    -0.269 OA
ATOM     10  C   LIG    1        1.857   1.419  -1.361  0.00  0.00    +0.320 C 
ATOM     11  O   LIG    1        2.699   2.075  -1.942  0.00  0.00    -0.251 OA
ENDROOT
BRANCH   8  12
ATOM     12  C   LIG    1       -2.188  -0.192   1.088  0.00  0.00    +0.001 A 
ATOM     13  C   LIG    1       -2.283   1.024   1.742  0.00  0.00    +0.091 A 
ATOM     14  N   LIG    1       -3.572   1.282   2.029  0.00  0.00    -0.360 N 
ATOM     15  C   LIG    1       -4.386   0.255   1.592  0.00  0.00    +0.047 A 
ATOM     16  C   LIG    1       -5.760   0.043   1.651  0.00  0.00    +0.026 A 
ATOM     17  C   LIG    1       -6.302  -1.106   1.118  0.00  0.00    +0.002 A 
ATOM     18  C   LIG    1       -5.492  -2.058   0.520  0.00  0.00    +0.001 A 
ATOM     19  C   LIG    1       -4.128  -1.866   0.452  0.00  0.00    +0.010 A 
ATOM     20  H   LIG    1       -3.887   2.079   2.484  0.00  0.00    +0.165 HD
ATOM     21  C   LIG    1       -3.568  -0.711   0.987  0.00  0.00    +0.007 A 
ENDBRANCH   8  12
BRANCH   1  25
ATOM     22  C   LIG    1        0.031   5.947  -2.253  0.00  0.00    +0.000 A 
ATOM     23  C   LIG    1       -0.654   4.922  -2.879  0.00  0.00    +0.002 A 
ATOM     24  C   LIG    1       -0.441   3.613  -2.496  0.00  0.00    +0.024 A 
ATOM     25  C   LIG    1        0.461   3.326  -1.480  0.00  0.00    +0.046 A 
ATOM     26  C   LIG    1        1.143   4.358  -0.850  0.00  0.00    +0.024 A 
ATOM     27  C   LIG    1        0.931   5.665  -1.242  0.00  0.00    +0.002 A 
ENDBRANCH   1  25
TORSDOF 2
