REMARK  Name = ZINC49033750
REMARK                            x       y       z     vdW  Elec       q    Type
REMARK                         _______ _______ _______ _____ _____    ______ ____
ROOT
ATOM      1  C   LIG    1        0.534  -0.478  -3.755  0.00  0.00    +0.219 A 
ATOM      2  N   LIG    1        1.859  -0.533  -3.804  0.00  0.00    -0.197 NA
ATOM      3  C   LIG    1        2.518  -0.231  -4.917  0.00  0.00    +0.156 A 
ATOM      4  C   LIG    1        1.781   0.151  -6.052  0.00  0.00    +0.148 A 
ATOM      5  C   LIG    1        0.381   0.194  -5.953  0.00  0.00    +0.167 A 
ATOM      6  N   LIG    1       -0.074   0.590  -7.185  0.00  0.00    -0.312 N 
ATOM      7  C   LIG    1        1.017   0.774  -7.984  0.00  0.00    +0.201 A 
ATOM      8  N   LIG    1        2.104   0.516  -7.317  0.00  0.00    -0.231 NA
ATOM      9  N   LIG    1       -0.198  -0.130  -4.800  0.00  0.00    -0.195 NA
ENDROOT
BRANCH   6  10
ATOM     10  C   LIG    1       -1.474   0.780  -7.573  0.00  0.00    +0.084 C 
ATOM     11  C   LIG    1       -1.813  -0.159  -8.732  0.00  0.00    +0.030 C 
ATOM     12  C   LIG    1       -1.690   2.230  -8.010  0.00  0.00    +0.030 C 
ENDBRANCH   6  10
BRANCH   1  13
ATOM     13  N   LIG    1       -0.105  -0.803  -2.569  0.00  0.00    -0.308 N 
ATOM     14  H   LIG    1       -1.073  -0.772  -2.516  0.00  0.00    +0.149 HD
BRANCH  13  15
ATOM     15  CA  LIG    1        0.681  -1.192  -1.396  0.00  0.00    +0.098 C 
BRANCH  15  17
ATOM     16  C   LIG    1       -0.326   0.612   0.009  0.00  0.00    +0.006 C 
ATOM     17  C   LIG    1       -0.119  -0.898  -0.126  0.00  0.00    +0.021 C 
ENDBRANCH  15  17
BRANCH  15  18
ATOM     18  C   LIG    1        0.994  -2.688  -1.466  0.00  0.00    +0.178 C 
BRANCH  18  19
ATOM     19  O   LIG    1       -0.221  -3.434  -1.372  0.00  0.00    -0.393 OA
ATOM     20  H   LIG    1       -0.097  -4.393  -1.409  0.00  0.00    +0.209 HD
ENDBRANCH  18  19
ENDBRANCH  15  18
ENDBRANCH  13  15
ENDBRANCH   1  13
BRANCH   3  21
ATOM     21  N   LIG    1        3.901  -0.290  -4.958  0.00  0.00    -0.298 N 
ATOM     22  H   LIG    1        4.367  -0.146  -5.796  0.00  0.00    +0.154 HD
BRANCH  21  23
ATOM     23  C   LIG    1        4.624  -0.557  -3.792  0.00  0.00    +0.033 A 
ATOM     24  C   LIG    1        4.153  -0.108  -2.564  0.00  0.00    +0.023 A 
ATOM     25  C   LIG    1        4.865  -0.371  -1.409  0.00  0.00    +0.002 A 
ATOM     26  C   LIG    1        6.049  -1.080  -1.469  0.00  0.00    +0.010 A 
ATOM     27  C   LIG    1        6.529  -1.534  -2.696  0.00  0.00    +0.002 A 
ATOM     28  C   LIG    1        5.809  -1.274  -3.860  0.00  0.00    +0.033 A 
BRANCH  27  29
ATOM     29  C   LIG    1        7.800  -2.296  -2.762  0.00  0.00    +0.071 A 
ATOM     30  C   LIG    1        8.455  -2.651  -1.585  0.00  0.00    +0.028 A 
ATOM     31  C   LIG    1        9.640  -3.361  -1.662  0.00  0.00    +0.004 A 
ATOM     32  C   LIG    1       10.132  -3.694  -2.916  0.00  0.00    +0.020 A 
ATOM     33  C   LIG    1        9.430  -3.309  -4.044  0.00  0.00    +0.111 A 
ATOM     34  N   LIG    1        8.301  -2.638  -3.942  0.00  0.00    -0.255 NA
ENDBRANCH  27  29
ENDBRANCH  21  23
ENDBRANCH   3  21
TORSDOF 9
