REMARK  Name = ZINC19364242
REMARK                            x       y       z     vdW  Elec       q    Type
REMARK                         _______ _______ _______ _____ _____    ______ ____
ROOT
ATOM      1  C   LIG    1        0.398  -1.094  -0.528  0.00  0.00    -0.062 C 
ENDROOT
BRANCH   1   2
ATOM      2  N   LIG    1       -1.028  -1.268  -0.835  0.00  0.00    +0.395 N 
ATOM      3  H   LIG    1       -1.576  -1.067  -0.012  0.00  0.00    -0.080 HD
BRANCH   2   4
ATOM      4  C   LIG    1       -1.271  -2.653  -1.260  0.00  0.00    +0.044 C 
BRANCH   4   5
ATOM      5  C   LIG    1       -1.032  -3.584  -0.099  0.00  0.00    +0.288 C 
ATOM      6  O   LIG    1       -0.804  -3.130   1.010  0.00  0.00    -0.253 OA
BRANCH   5   7
ATOM      7  O   LIG    1       -1.068  -4.791  -0.268  0.00  0.00    -0.482 OA
ATOM      8  H   LIG    1       -1.243  -5.140  -1.119  0.00  0.00    +0.295 HD
ENDBRANCH   5   7
ENDBRANCH   4   5
ENDBRANCH   2   4
BRANCH   2   9
ATOM      9  C   LIG    1       -1.411  -0.350  -1.916  0.00  0.00    +0.044 C 
BRANCH   9  10
ATOM     10  C   LIG    1       -2.898  -0.440  -2.147  0.00  0.00    +0.288 C 
ATOM     11  O   LIG    1       -3.575  -1.199  -1.474  0.00  0.00    -0.253 OA
BRANCH  10  12
ATOM     12  O   LIG    1       -3.424   0.246  -3.007  0.00  0.00    -0.482 OA
ATOM     13  H   LIG    1       -2.903   0.829  -3.524  0.00  0.00    +0.295 HD
ENDBRANCH  10  12
ENDBRANCH   9  10
ENDBRANCH   2   9
ENDBRANCH   1   2
BRANCH   1  14
ATOM     14  C   LIG    1        0.624   0.293   0.077  0.00  0.00    +0.067 C 
BRANCH  14  15
ATOM     15  N   LIG    1        2.024   0.420   0.504  0.00  0.00    -0.284 NA
BRANCH  15  16
ATOM     16  C   LIG    1        2.224   1.638   1.300  0.00  0.00    +0.205 C 
BRANCH  16  17
ATOM     17  C   LIG    1        3.525   1.538   2.054  0.00  0.00    +0.319 C 
ATOM     18  O   LIG    1        4.180   0.511   2.005  0.00  0.00    -0.250 OA
BRANCH  17  19
ATOM     19  O   LIG    1        3.922   2.484   2.713  0.00  0.00    -0.480 OA
ATOM     20  H   LIG    1        3.418   3.273   2.750  0.00  0.00    +0.295 HD
ENDBRANCH  17  19
ENDBRANCH  16  17
ENDBRANCH  15  16
BRANCH  15  21
ATOM     21  C   LIG    1        2.931   0.391  -0.651  0.00  0.00    +0.205 C 
BRANCH  21  22
ATOM     22  C   LIG    1        2.582   1.514  -1.592  0.00  0.00    +0.319 C 
ATOM     23  O   LIG    1        1.723   2.324  -1.284  0.00  0.00    -0.250 OA
BRANCH  22  24
ATOM     24  O   LIG    1        3.158   1.615  -2.662  0.00  0.00    -0.480 OA
ATOM     25  H   LIG    1        3.817   0.993  -2.899  0.00  0.00    +0.295 HD
ENDBRANCH  22  24
ENDBRANCH  21  22
ENDBRANCH  15  21
ENDBRANCH  14  15
ENDBRANCH   1  14
TORSDOF 15
