REMARK  Name = ZINC49746575
REMARK                            x       y       z     vdW  Elec       q    Type
REMARK                         _______ _______ _______ _____ _____    ______ ____
ROOT
ATOM      1  C   LIG    1       -1.261  -0.747   0.011  0.00  0.00    +0.255 C 
ATOM      2  C   LIG    1       -1.409  -1.571  -1.288  0.00  0.00    +0.195 C 
ATOM      3  C   LIG    1       -2.085  -2.881  -0.826  0.00  0.00    +0.178 C 
ATOM      4  C   LIG    1       -2.265  -2.694   0.697  0.00  0.00    +0.178 C 
ATOM      5  O   LIG    1       -1.261  -1.725   1.073  0.00  0.00    -0.346 OA
ENDROOT
BRANCH   1  15
ATOM      6  C   LIG    1       -0.017   1.365   0.009  0.00  0.00    +0.113 A 
ATOM      7  C   LIG    1        1.148   2.049   0.002  0.00  0.00    +0.094 A 
ATOM      8  I   LIG    1        1.147   4.144   0.013  0.00  0.00    -0.037 I 
ATOM      9  C   LIG    1        2.369   1.332  -0.013  0.00  0.00    +0.267 A 
ATOM     10  N   LIG    1        2.344  -0.016  -0.020  0.00  0.00    -0.274 N 
ATOM     11  C   LIG    1        1.169  -0.673  -0.012  0.00  0.00    +0.331 A 
ATOM     12  O   LIG    1        1.162  -1.889  -0.018  0.00  0.00    -0.246 OA
ATOM     13  H   LIG    1        3.176  -0.515  -0.031  0.00  0.00    +0.173 HD
ATOM     14  O   LIG    1        3.431   1.927  -0.020  0.00  0.00    -0.267 OA
ATOM     15  N   LIG    1        0.002  -0.004   0.002  0.00  0.00    -0.270 N 
ENDBRANCH   1  15
BRANCH   2  16
ATOM     16  O   LIG    1       -2.236  -0.881  -2.227  0.00  0.00    -0.385 OA
ATOM     17  H   LIG    1       -2.363  -1.353  -3.061  0.00  0.00    +0.210 HD
ENDBRANCH   2  16
BRANCH   3  18
ATOM     18  O   LIG    1       -3.352  -3.043  -1.467  0.00  0.00    -0.386 OA
ATOM     19  H   LIG    1       -3.300  -3.106  -2.431  0.00  0.00    +0.210 HD
ENDBRANCH   3  18
BRANCH   4  20
ATOM     20  C   LIG    1       -2.033  -4.018   1.427  0.00  0.00    +0.206 C 
BRANCH  20  21
ATOM     21  O   LIG    1       -2.318  -3.851   2.817  0.00  0.00    -0.284 OA
BRANCH  21  22
ATOM     22  P   LIG    1       -2.180  -5.044   3.890  0.00  0.00    +0.483 P 
ATOM     23  O   LIG    1       -3.027  -6.251   3.429  0.00  0.00    -0.227 OA
BRANCH  22  24
ATOM     24  O   LIG    1       -0.698  -5.468   4.002  0.00  0.00    -0.302 OA
ATOM     25  H   LIG    1       -0.383  -5.772   3.136  0.00  0.00    +0.222 HD
ENDBRANCH  22  24
BRANCH  22  26
ATOM     26  O   LIG    1       -2.703  -4.538   5.326  0.00  0.00    -0.186 OA
BRANCH  26  27
ATOM     27  P   LIG    1       -3.113  -5.283   6.693  0.00  0.00    +0.481 P 
ATOM     28  O   LIG    1       -2.059  -6.362   7.028  0.00  0.00    -0.227 OA
BRANCH  27  29
ATOM     29  O   LIG    1       -4.496  -5.950   6.521  0.00  0.00    -0.302 OA
ATOM     30  H   LIG    1       -4.455  -6.597   5.800  0.00  0.00    +0.222 HD
ENDBRANCH  27  29
BRANCH  27  31
ATOM     31  O   LIG    1       -3.180  -4.209   7.890  0.00  0.00    -0.302 OA
ATOM     32  H   LIG    1       -3.422  -4.588   8.746  0.00  0.00    +0.222 HD
ENDBRANCH  27  31
ENDBRANCH  26  27
ENDBRANCH  22  26
ENDBRANCH  21  22
ENDBRANCH  20  21
ENDBRANCH   4  20
TORSDOF 11
