REMARK  Name = ZINC21989834
REMARK                            x       y       z     vdW  Elec       q    Type
REMARK                         _______ _______ _______ _____ _____    ______ ____
ROOT
ATOM      1  C   LIG    1       -0.013   1.086   0.008  0.00  0.00    +0.016 C 
ATOM      2  C   LIG    1       -0.729   1.579   1.267  0.00  0.00    +0.062 C 
ATOM      3  C   LIG    1       -0.732   3.114   1.310  0.00  0.00    +0.047 C 
ATOM      4  C   LIG    1        0.019   3.500   2.564  0.00  0.00    -0.029 A 
ATOM      5  C   LIG    1        0.308   4.733   3.080  0.00  0.00    +0.050 A 
ATOM      6  C   LIG    1        1.023   4.855   4.268  0.00  0.00    +0.124 A 
ATOM      7  C   LIG    1        1.451   3.721   4.943  0.00  0.00    +0.092 A 
ATOM      8  C   LIG    1        1.167   2.467   4.435  0.00  0.00    +0.134 A 
ATOM      9  C   LIG    1        0.442   2.345   3.230  0.00  0.00    +0.063 A 
ATOM     10  C   LIG    1        0.024   1.144   2.501  0.00  0.00    +0.170 C 
ATOM     11  O   LIG    1        0.244  -0.002   2.832  0.00  0.00    -0.292 OA
ENDROOT
BRANCH   6  12
ATOM     12  O   LIG    1        1.302   6.085   4.766  0.00  0.00    -0.495 OA
ATOM     13  C   LIG    1        2.039   6.137   5.989  0.00  0.00    +0.277 C 
ENDBRANCH   6  12
BRANCH   8  14
ATOM     14  O   LIG    1        1.584   1.357   5.092  0.00  0.00    -0.494 OA
ATOM     15  C   LIG    1        2.313   1.556   6.305  0.00  0.00    +0.277 C 
ENDBRANCH   8  14
TORSDOF 2
