REMARK  Name = ZINC29253676
REMARK                            x       y       z     vdW  Elec       q    Type
REMARK                         _______ _______ _______ _____ _____    ______ ____
ROOT
ATOM      1  C   LIG    1       -1.137  -2.084   0.002  0.00  0.00    +0.189 A 
ATOM      2  N   LIG    1       -0.103  -2.902  -0.007  0.00  0.00    -0.124 NA
ATOM      3  N   LIG    1       -0.244  -4.157  -0.013  0.00  0.00    -0.119 NA
ATOM      4  C   LIG    1       -1.460  -4.666  -0.011  0.00  0.00    +0.256 A 
ATOM      5  S   LIG    1       -2.431  -3.165   0.008  0.00  0.00    -0.011 S 
ENDROOT
BRANCH   1   8
ATOM      6  C   LIG    1       -0.018   1.503   0.010  0.00  0.00    +0.109 C 
ATOM      7  C   LIG    1        0.002  -0.004   0.002  0.00  0.00    +0.216 C 
ATOM      8  N   LIG    1       -1.156  -0.694   0.009  0.00  0.00    -0.263 N 
ATOM      9  H   LIG    1       -2.002  -0.220   0.020  0.00  0.00    +0.157 HD
ATOM     10  O   LIG    1        1.060  -0.596  -0.011  0.00  0.00    -0.276 OA
ENDBRANCH   1   8
BRANCH   4  11
ATOM     11  S   LIG    1       -1.981  -6.349  -0.018  0.00  0.00    +0.084 S 
ATOM     12  O   LIG    1       -3.155  -6.407  -0.818  0.00  0.00    -0.151 OA
ATOM     13  O   LIG    1       -1.957  -6.787   1.333  0.00  0.00    -0.151 OA
BRANCH  11  14
ATOM     14  N   LIG    1       -0.820  -7.218  -0.818  0.00  0.00    -0.191 NA
ATOM     15  H   LIG    1       -1.033  -7.653  -1.658  0.00  0.00    +0.148 HD
ATOM     16  C   LIG    1        0.529  -7.328  -0.256  0.00  0.00    +0.128 C 
ENDBRANCH  11  14
ENDBRANCH   4  11
TORSDOF 3
