REMARK  Name = ZINC16978457
REMARK                            x       y       z     vdW  Elec       q    Type
REMARK                         _______ _______ _______ _____ _____    ______ ____
ROOT
ATOM      1  C   LIG    1       -0.013   1.076   0.008  0.00  0.00    +0.003 A 
ATOM      2  C   LIG    1        1.168   1.759   0.000  0.00  0.00    +0.009 A 
ATOM      3  C   LIG    1        1.165   3.164   0.008  0.00  0.00    -0.014 A 
ATOM      4  C   LIG    1        2.353   3.916   0.001  0.00  0.00    +0.009 A 
ATOM      5  C   LIG    1        2.297   5.280   0.009  0.00  0.00    +0.003 A 
ATOM      6  C   LIG    1        1.084   5.960   0.025  0.00  0.00    +0.028 A 
ATOM      7  C   LIG    1       -0.112   5.258   0.032  0.00  0.00    +0.077 A 
ATOM      8  N   LIG    1       -1.319   5.882   0.047  0.00  0.00    -0.216 NA
ATOM      9  C   LIG    1       -2.440   5.201   0.054  0.00  0.00    +0.191 A 
ATOM     10  N   LIG    1       -2.471   3.831   0.047  0.00  0.00    -0.327 N 
ATOM     11  H   LIG    1       -3.320   3.363   0.052  0.00  0.00    +0.169 HD
ATOM     12  C   LIG    1       -1.278   3.117   0.031  0.00  0.00    +0.051 A 
ATOM     13  C   LIG    1       -0.072   3.842   0.023  0.00  0.00    +0.031 A 
ATOM     14  C   LIG    1       -1.236   1.740   0.018  0.00  0.00    +0.026 A 
ENDROOT
BRANCH   9  15
ATOM     15  N   LIG    1       -3.628   5.887   0.069  0.00  0.00    -0.329 N 
ATOM     16  H   LIG    1       -4.468   5.403   0.074  0.00  0.00    +0.145 HD
ATOM     17  H   LIG    1       -3.627   6.857   0.074  0.00  0.00    +0.145 HD
ENDBRANCH   9  15
TORSDOF 1
