REMARK  Name = ZINC13762382
REMARK                            x       y       z     vdW  Elec       q    Type
REMARK                         _______ _______ _______ _____ _____    ______ ____
ROOT
ATOM      1  C   LIG    1        3.719   1.438   0.644  0.00  0.00    +0.048 A 
ATOM      2  C   LIG    1        4.067   2.543  -0.117  0.00  0.00    +0.042 A 
ATOM      3  C   LIG    1        5.394   3.001  -0.103  0.00  0.00    +0.072 A 
ATOM      4  N   LIG    1        6.322   2.406   0.618  0.00  0.00    -0.247 NA
ATOM      5  C   LIG    1        6.051   1.339   1.371  0.00  0.00    +0.072 A 
ATOM      6  C   LIG    1        7.058   0.719   2.135  0.00  0.00    +0.028 A 
ATOM      7  C   LIG    1        6.753  -0.359   2.907  0.00  0.00    +0.002 A 
ATOM      8  C   LIG    1        5.457  -0.872   2.945  0.00  0.00    +0.001 A 
ATOM      9  C   LIG    1        4.458  -0.301   2.215  0.00  0.00    +0.011 A 
ATOM     10  C   LIG    1        4.734   0.817   1.417  0.00  0.00    +0.013 A 
ENDROOT
BRANCH   3  11
ATOM     11  C   LIG    1        5.759   4.184  -0.920  0.00  0.00    +0.003 A 
ATOM     12  C   LIG    1        4.804   4.839  -1.702  0.00  0.00    +0.030 A 
ATOM     13  C   LIG    1        5.186   5.940  -2.443  0.00  0.00    +0.111 A 
ATOM     14  N   LIG    1        6.434   6.367  -2.426  0.00  0.00    -0.263 NA
ATOM     15  C   LIG    1        7.366   5.774  -1.706  0.00  0.00    +0.111 A 
ATOM     16  C   LIG    1        7.069   4.671  -0.932  0.00  0.00    +0.030 A 
ENDBRANCH   3  11
BRANCH   1  19
ATOM     17  N   LIG    1        1.358   1.603   0.013  0.00  0.00    -0.295 N 
ATOM     18  H   LIG    1        1.568   2.425  -0.456  0.00  0.00    +0.150 HD
ATOM     19  C   LIG    1        2.331   0.926   0.654  0.00  0.00    +0.246 C 
ATOM     20  O   LIG    1        2.068  -0.106   1.242  0.00  0.00    -0.270 OA
BRANCH  17  21
ATOM     21  C   LIG    1       -0.016   1.095   0.023  0.00  0.00    +0.213 C 
BRANCH  21  22
ATOM     22  C   LIG    1       -0.751   1.613  -1.186  0.00  0.00    -0.016 A 
ATOM     23  C   LIG    1       -0.564   2.917  -1.604  0.00  0.00    +0.006 A 
ATOM     24  C   LIG    1       -1.235   3.390  -2.716  0.00  0.00    +0.000 A 
ATOM     25  C   LIG    1       -2.101   2.561  -3.405  0.00  0.00    +0.000 A 
ATOM     26  C   LIG    1       -2.293   1.259  -2.984  0.00  0.00    +0.000 A 
ATOM     27  C   LIG    1       -1.618   0.784  -1.875  0.00  0.00    +0.006 A 
ENDBRANCH  21  22
BRANCH  21  28
ATOM     28  C   LIG    1       -0.715   1.563   1.274  0.00  0.00    +0.332 C 
ATOM     29  O   LIG    1       -0.125   2.250   2.074  0.00  0.00    -0.248 OA
BRANCH  28  31
ATOM     30  C   LIG    1       -2.601   1.704   2.724  0.00  0.00    +0.280 C 
ATOM     31  O   LIG    1       -1.992   1.217   1.498  0.00  0.00    -0.466 OA
ENDBRANCH  28  31
ENDBRANCH  21  28
ENDBRANCH  17  21
ENDBRANCH   1  19
TORSDOF 6
