REMARK  Name = ZINC15020542
REMARK                            x       y       z     vdW  Elec       q    Type
REMARK                         _______ _______ _______ _____ _____    ______ ____
ROOT
ATOM      1  C   LIG    1       -0.018   1.503   0.010  0.00  0.00    +0.044 C 
ATOM      2  C   LIG    1        0.002  -0.004   0.002  0.00  0.00    -0.045 A 
ATOM      3  C   LIG    1        0.006  -0.685  -1.198  0.00  0.00    +0.031 A 
ATOM      4  C   LIG    1        0.025  -2.075  -1.210  0.00  0.00    +0.066 A 
ATOM      5  C   LIG    1        0.039  -2.777  -0.003  0.00  0.00    +0.066 A 
ATOM      6  N   LIG    1        0.058  -4.169   0.006  0.00  0.00    -0.316 N 
ATOM      7  H   LIG    1        0.068  -4.647   0.850  0.00  0.00    +0.169 HD
ATOM      8  C   LIG    1        0.062  -4.853  -1.156  0.00  0.00    +0.314 A 
ATOM      9  O   LIG    1        0.078  -6.067  -1.153  0.00  0.00    -0.262 OA
ATOM     10  C   LIG    1        0.047  -4.103  -2.445  0.00  0.00    +0.314 A 
ATOM     11  O   LIG    1        0.051  -4.701  -3.502  0.00  0.00    -0.262 OA
ATOM     12  C   LIG    1        0.035  -2.080   1.200  0.00  0.00    +0.031 A 
ATOM     13  N   LIG    1        0.028  -2.755  -2.425  0.00  0.00    -0.316 N 
ATOM     14  H   LIG    1        0.017  -2.258  -3.258  0.00  0.00    +0.169 HD
ATOM     15  C   LIG    1        0.023  -0.700   1.199  0.00  0.00    -0.045 A 
ATOM     16  C   LIG    1        0.025   0.052   2.505  0.00  0.00    +0.044 C 
ENDROOT
TORSDOF 0
