REMARK  Name = ZINC45337634
REMARK                            x       y       z     vdW  Elec       q    Type
REMARK                         _______ _______ _______ _____ _____    ______ ____
ROOT
ATOM      1  C   LIG    1        6.078   2.825   2.647  0.00  0.00    +0.121 A 
ATOM      2  C   LIG    1        5.541   2.254   3.795  0.00  0.00    +0.046 A 
ATOM      3  C   LIG    1        6.173   2.414   5.007  0.00  0.00    +0.011 A 
ATOM      4  C   LIG    1        7.360   3.154   5.082  0.00  0.00    -0.024 A 
ATOM      5  C   LIG    1        7.897   3.727   3.922  0.00  0.00    +0.011 A 
ATOM      6  C   LIG    1        7.258   3.555   2.715  0.00  0.00    +0.046 A 
ENDROOT
BRANCH   4   7
ATOM      7  C   LIG    1        8.040   3.329   6.372  0.00  0.00    +0.028 C 
ATOM      8  C   LIG    1        7.618   2.635   7.460  0.00  0.00    +0.080 C 
ATOM      9  C   LIG    1        8.030   2.760   8.873  0.00  0.00    +0.258 C 
ATOM     10  N   LIG    1        7.446   1.943   9.734  0.00  0.00    -0.243 N 
ATOM     11  H   LIG    1        7.688   1.992  10.672  0.00  0.00    +0.159 HD
ATOM     12  C   LIG    1        6.523   1.044   9.338  0.00  0.00    +0.283 C 
ATOM     13  O   LIG    1        5.912   0.239  10.015  0.00  0.00    -0.262 OA
ATOM     14  O   LIG    1        8.863   3.573   9.227  0.00  0.00    -0.269 OA
ATOM     15  S   LIG    1        6.407   1.325   7.578  0.00  0.00    -0.026 S 
ENDBRANCH   4   7
BRANCH   1  16
ATOM     16  O   LIG    1        5.449   2.664   1.454  0.00  0.00    -0.492 OA
BRANCH  16  17
ATOM     17  C   LIG    1        4.240   1.902   1.456  0.00  0.00    +0.234 C 
BRANCH  17  18
ATOM     18  C   LIG    1        3.682   1.830   0.033  0.00  0.00    +0.083 C 
BRANCH  18  21
ATOM     19  C   LIG    1        0.106   0.524   0.169  0.00  0.00    +0.008 A 
ATOM     20  C   LIG    1        1.131   1.450   0.208  0.00  0.00    +0.011 A 
ATOM     21  C   LIG    1        2.407   1.026   0.034  0.00  0.00    -0.007 A 
ATOM     22  S   LIG    1        2.184  -0.730  -0.193  0.00  0.00    -0.101 S 
ATOM     23  C   LIG    1        0.406  -0.781  -0.041  0.00  0.00    +0.045 A 
ENDBRANCH  18  21
ENDBRANCH  17  18
ENDBRANCH  16  17
ENDBRANCH   1  16
TORSDOF 5
