REMARK  Name = ZINC00039111
REMARK                            x       y       z     vdW  Elec       q    Type
REMARK                         _______ _______ _______ _____ _____    ______ ____
ROOT
ATOM      1  C   LIG    1       -1.264  -0.760   0.010  0.00  0.00    +0.181 A 
ATOM      2  C   LIG    1       -2.437  -0.075   0.123  0.00  0.00    +0.208 A 
ATOM      3  C   LIG    1       -3.663  -0.788   0.132  0.00  0.00    +0.234 A 
ATOM      4  C   LIG    1       -3.594  -2.256   0.016  0.00  0.00    +0.068 A 
ATOM      5  C   LIG    1       -4.751  -3.037   0.015  0.00  0.00    +0.019 A 
ATOM      6  C   LIG    1       -4.652  -4.394  -0.095  0.00  0.00    +0.046 A 
ATOM      7  C   LIG    1       -3.404  -5.003  -0.205  0.00  0.00    +0.120 A 
ATOM      8  C   LIG    1       -2.247  -4.242  -0.206  0.00  0.00    +0.092 A 
ATOM      9  C   LIG    1       -2.331  -2.861  -0.096  0.00  0.00    +0.143 A 
ATOM     10  O   LIG    1       -4.732  -0.209   0.232  0.00  0.00    -0.283 OA
ATOM     11  O   LIG    1       -1.218  -2.099  -0.100  0.00  0.00    -0.451 OA
ENDROOT
BRANCH   1  17
ATOM     12  C   LIG    1        0.974  -0.276  -0.964  0.00  0.00    +0.015 A 
ATOM     13  C   LIG    1        2.157   0.433  -0.970  0.00  0.00    +0.050 A 
ATOM     14  C   LIG    1        2.386   1.416  -0.018  0.00  0.00    +0.158 A 
ATOM     15  C   LIG    1        1.420   1.692   0.950  0.00  0.00    +0.159 A 
ATOM     16  C   LIG    1        0.233   0.986   0.962  0.00  0.00    +0.060 A 
ATOM     17  C   LIG    1        0.002  -0.004   0.002  0.00  0.00    +0.025 A 
BRANCH  14  18
ATOM     18  O   LIG    1        3.553   2.110  -0.027  0.00  0.00    -0.503 OA
ATOM     19  H   LIG    1        3.529   2.914  -0.565  0.00  0.00    +0.292 HD
ENDBRANCH  14  18
BRANCH  15  20
ATOM     20  O   LIG    1        1.648   2.656   1.881  0.00  0.00    -0.503 OA
ATOM     21  H   LIG    1        1.351   3.537   1.616  0.00  0.00    +0.292 HD
ENDBRANCH  15  20
ENDBRANCH   1  17
BRANCH   2  22
ATOM     22  O   LIG    1       -2.432   1.282   0.228  0.00  0.00    -0.501 OA
ATOM     23  H   LIG    1       -3.312   1.674   0.304  0.00  0.00    +0.292 HD
ENDBRANCH   2  22
BRANCH   7  24
ATOM     24  O   LIG    1       -3.321  -6.354  -0.313  0.00  0.00    -0.507 OA
ATOM     25  H   LIG    1       -3.343  -6.678  -1.224  0.00  0.00    +0.292 HD
ENDBRANCH   7  24
TORSDOF 5
