REMARK  Name = ZINC17350524
REMARK                            x       y       z     vdW  Elec       q    Type
REMARK                         _______ _______ _______ _____ _____    ______ ____
ROOT
ATOM      1  C   LIG    1        3.673   2.021  -0.023  0.00  0.00    +0.044 C 
ATOM      2  C   LIG    1        4.837   1.290   0.066  0.00  0.00    +0.152 C 
ATOM      3  C   LIG    1        6.213   1.811   0.180  0.00  0.00    +0.364 C 
ATOM      4  O   LIG    1        7.002   0.717   0.237  0.00  0.00    -0.402 OA
ATOM      5  C   LIG    1        6.224  -0.381   0.168  0.00  0.00    +0.232 C 
ATOM      6  O   LIG    1        6.562   2.976   0.215  0.00  0.00    -0.243 OA
ATOM      7  N   LIG    1        4.961  -0.069   0.074  0.00  0.00    -0.205 NA
ENDROOT
BRANCH   5   8
ATOM      8  C   LIG    1        6.737  -1.765   0.201  0.00  0.00    +0.037 A 
ATOM      9  C   LIG    1        5.852  -2.843   0.117  0.00  0.00    +0.014 A 
ATOM     10  C   LIG    1        6.337  -4.133   0.148  0.00  0.00    +0.021 A 
ATOM     11  C   LIG    1        7.698  -4.362   0.262  0.00  0.00    +0.041 A 
ATOM     12 CL   LIG    1        8.300  -5.989   0.301  0.00  0.00    -0.084 Cl
ATOM     13  C   LIG    1        8.581  -3.298   0.346  0.00  0.00    +0.021 A 
ATOM     14  C   LIG    1        8.109  -2.002   0.309  0.00  0.00    +0.014 A 
ENDBRANCH   5   8
BRANCH   1  17
ATOM     15  C   LIG    1        1.056  -0.658  -0.017  0.00  0.00    +0.020 A 
ATOM     16  C   LIG    1        2.305  -0.065  -0.031  0.00  0.00    +0.011 A 
ATOM     17  C   LIG    1        2.375   1.338  -0.010  0.00  0.00    -0.005 A 
ATOM     18  C   LIG    1        1.183   2.072   0.024  0.00  0.00    +0.118 A 
ATOM     19  N   LIG    1        0.019   1.457   0.037  0.00  0.00    -0.263 NA
ATOM     20  C   LIG    1       -0.074   0.140   0.017  0.00  0.00    +0.111 A 
ENDBRANCH   1  17
TORSDOF 2
