REMARK  Name = ZINC36056300
REMARK                            x       y       z     vdW  Elec       q    Type
REMARK                         _______ _______ _______ _____ _____    ______ ____
ROOT
ATOM      1  N   LIG    1       -1.226  -1.027   0.217  0.00  0.00    -0.243 N 
ATOM      2  C   LIG    1       -1.901  -1.389  -0.911  0.00  0.00    +0.164 A 
ATOM      3  C   LIG    1       -3.245  -1.578  -0.541  0.00  0.00    +0.086 A 
ATOM      4  C   LIG    1       -4.167  -1.960  -1.529  0.00  0.00    +0.131 A 
ATOM      5  N   LIG    1       -3.726  -2.127  -2.772  0.00  0.00    -0.220 NA
ATOM      6  C   LIG    1       -2.454  -1.939  -3.076  0.00  0.00    +0.225 A 
ATOM      7  C   LIG    1       -3.322  -1.301   0.894  0.00  0.00    +0.105 A 
ATOM      8  N   LIG    1       -1.556  -1.580  -2.184  0.00  0.00    -0.216 NA
ATOM      9  N   LIG    1       -2.114  -0.987   1.297  0.00  0.00    -0.168 NA
ENDROOT
BRANCH   7  10
ATOM     10  C   LIG    1       -4.539  -1.368   1.737  0.00  0.00    +0.005 A 
ATOM     11  C   LIG    1       -5.411  -2.458   1.615  0.00  0.00    +0.011 A 
ATOM     12  C   LIG    1       -6.534  -2.534   2.383  0.00  0.00    +0.014 A 
ATOM     13  C   LIG    1       -6.822  -1.519   3.302  0.00  0.00    +0.041 A 
ATOM     14  C   LIG    1       -7.911  -1.295   4.254  0.00  0.00    +0.146 A 
ATOM     15  N   LIG    1       -7.675  -0.166   4.868  0.00  0.00    -0.158 NA
ATOM     16  N   LIG    1       -6.487   0.400   4.393  0.00  0.00    -0.275 N 
ATOM     17  H   LIG    1       -6.103   1.237   4.696  0.00  0.00    +0.189 HD
ATOM     18  C   LIG    1       -5.952  -0.419   3.432  0.00  0.00    +0.068 A 
ATOM     19  C   LIG    1       -4.806  -0.354   2.646  0.00  0.00    +0.038 A 
BRANCH  14  20
ATOM     20  N   LIG    1       -9.006  -2.137   4.468  0.00  0.00    -0.341 N 
ATOM     21  H   LIG    1       -9.678  -1.900   5.125  0.00  0.00    +0.144 HD
ATOM     22  H   LIG    1       -9.092  -2.958   3.959  0.00  0.00    +0.144 HD
ENDBRANCH  14  20
ENDBRANCH   7  10
BRANCH   1  24
ATOM     23  C   LIG    1        0.408   0.703   0.780  0.00  0.00    +0.032 C 
ATOM     24  C   LIG    1        0.207  -0.731   0.287  0.00  0.00    +0.103 C 
ATOM     25  C   LIG    1        0.881  -1.703   1.258  0.00  0.00    +0.032 C 
ENDBRANCH   1  24
BRANCH   4  26
ATOM     26  N   LIG    1       -5.498  -2.159  -1.218  0.00  0.00    -0.342 N 
ATOM     27  H   LIG    1       -6.074  -2.639  -1.833  0.00  0.00    +0.144 HD
ATOM     28  H   LIG    1       -5.857  -1.818  -0.383  0.00  0.00    +0.144 HD
ENDBRANCH   4  26
TORSDOF 4
