REMARK  Name = ZINC53524260
REMARK                            x       y       z     vdW  Elec       q    Type
REMARK                         _______ _______ _______ _____ _____    ______ ____
ROOT
ATOM      1  C   LIG    1       -0.017   1.379   0.010  0.00  0.00    +0.002 A 
ATOM      2  C   LIG    1        1.165   2.096   0.002  0.00  0.00    +0.001 A 
ATOM      3  C   LIG    1        2.380   1.430  -0.013  0.00  0.00    +0.017 A 
ATOM      4  C   LIG    1        2.404   0.049  -0.021  0.00  0.00    +0.034 A 
ATOM      5  C   LIG    1        1.212  -0.680  -0.013  0.00  0.00    +0.048 A 
ATOM      6  N   LIG    1        1.239  -2.079  -0.017  0.00  0.00    -0.298 N 
ATOM      7  C   LIG    1        2.202  -2.802   0.695  0.00  0.00    +0.048 A 
ATOM      8  C   LIG    1        1.860  -3.986   1.330  0.00  0.00    +0.024 A 
ATOM      9  C   LIG    1        2.817  -4.695   2.034  0.00  0.00    +0.002 A 
ATOM     10  C   LIG    1        4.117  -4.232   2.109  0.00  0.00    +0.001 A 
ATOM     11  C   LIG    1        4.470  -3.050   1.478  0.00  0.00    +0.017 A 
ATOM     12  C   LIG    1        3.517  -2.338   0.775  0.00  0.00    +0.034 A 
ATOM     13  S   LIG    1        3.936  -0.828  -0.040  0.00  0.00    -0.086 S 
ATOM     14  C   LIG    1        0.002  -0.004   0.002  0.00  0.00    +0.024 A 
ENDROOT
BRANCH   6  15
ATOM     15  C   LIG    1        0.229  -2.808  -0.788  0.00  0.00    +0.111 C 
BRANCH  15  16
ATOM     16  C   LIG    1        0.744  -3.042  -2.210  0.00  0.00    +0.017 C 
BRANCH  16  17
ATOM     17  C   LIG    1       -0.311  -3.802  -3.016  0.00  0.00    -0.018 C 
BRANCH  17  18
ATOM     18  C   LIG    1        0.204  -4.036  -4.438  0.00  0.00    -0.086 C 
BRANCH  18  19
ATOM     19  N   LIG    1       -0.809  -4.767  -5.211  0.00  0.00    +0.378 N 
ATOM     20  H   LIG    1       -1.660  -4.226  -5.247  0.00  0.00    -0.090 HD
ATOM     21  H   LIG    1       -0.993  -5.655  -4.770  0.00  0.00    -0.090 HD
ATOM     22  H   LIG    1       -0.469  -4.921  -6.149  0.00  0.00    -0.090 HD
ENDBRANCH  18  19
ENDBRANCH  17  18
ENDBRANCH  16  17
ENDBRANCH  15  16
ENDBRANCH   6  15
TORSDOF 5
