REMARK  Name = ZINC43152618
REMARK                            x       y       z     vdW  Elec       q    Type
REMARK                         _______ _______ _______ _____ _____    ______ ____
ROOT
ATOM      1  C   LIG    1       -4.869  -1.045   0.036  0.00  0.00    +0.282 C 
ATOM      2  N   LIG    1       -5.399   0.189   0.143  0.00  0.00    -0.299 N 
ATOM      3  C   LIG    1       -4.541   1.384   0.135  0.00  0.00    +0.089 C 
ATOM      4  C   LIG    1       -5.097   2.374  -0.894  0.00  0.00    -0.059 C 
ATOM      5  N   LIG    1       -6.510   2.644  -0.598  0.00  0.00    +0.384 N 
ATOM      6  H   LIG    1       -6.596   2.973   0.352  0.00  0.00    -0.081 HD
ATOM      7  C   LIG    1       -7.299   1.417  -0.764  0.00  0.00    -0.059 C 
ATOM      8  C   LIG    1       -6.853   0.380   0.265  0.00  0.00    +0.089 C 
ATOM      9  O   LIG    1       -5.598  -2.012  -0.086  0.00  0.00    -0.267 OA
ENDROOT
BRANCH   5  10
ATOM     10  C   LIG    1       -7.012   3.675  -1.516  0.00  0.00    -0.068 C 
ATOM     11  C   LIG    1       -6.197   4.958  -1.337  0.00  0.00    -0.015 C 
ATOM     12  C   LIG    1       -6.720   6.032  -2.293  0.00  0.00    -0.002 C 
ATOM     13  C   LIG    1       -8.192   6.315  -1.987  0.00  0.00    -0.000 C 
ATOM     14  C   LIG    1       -9.006   5.032  -2.166  0.00  0.00    -0.002 C 
ATOM     15  C   LIG    1       -8.484   3.958  -1.210  0.00  0.00    -0.015 C 
ENDBRANCH   5  10
BRANCH   1  19
ATOM     16  C   LIG    1       -1.270  -0.791   0.274  0.00  0.00    +0.136 A 
ATOM     17  C   LIG    1       -1.376  -2.115  -0.041  0.00  0.00    +0.050 A 
ATOM     18  C   LIG    1       -2.739  -2.399  -0.175  0.00  0.00    +0.055 A 
ATOM     19  C   LIG    1       -3.415  -1.223   0.067  0.00  0.00    +0.190 A 
ATOM     20  O   LIG    1       -2.505  -0.265   0.342  0.00  0.00    -0.450 OA
BRANCH  16  27
ATOM     21  C   LIG    1       -0.036   1.299   0.829  0.00  0.00    +0.013 A 
ATOM     22  C   LIG    1        1.145   1.977   1.046  0.00  0.00    +0.021 A 
ATOM     23  C   LIG    1        2.357   1.313   0.945  0.00  0.00    +0.041 A 
ATOM     24 CL   LIG    1        3.840   2.173   1.220  0.00  0.00    -0.084 Cl
ATOM     25  C   LIG    1        2.390  -0.034   0.625  0.00  0.00    +0.021 A 
ATOM     26  C   LIG    1        1.216  -0.723   0.406  0.00  0.00    +0.013 A 
ATOM     27  C   LIG    1       -0.009  -0.059   0.507  0.00  0.00    +0.017 A 
ENDBRANCH  16  27
ENDBRANCH   1  19
TORSDOF 3
