REMARK  Name = ZINC19632927
REMARK                            x       y       z     vdW  Elec       q    Type
REMARK                         _______ _______ _______ _____ _____    ______ ____
ROOT
ATOM      1  C   LIG    1        2.367  -4.437   1.071  0.00  0.00    +0.247 C 
ATOM      2  N   LIG    1        2.588  -5.753   1.256  0.00  0.00    -0.262 N 
ATOM      3  C   LIG    1        3.427  -6.193   2.279  0.00  0.00    +0.064 A 
ATOM      4  C   LIG    1        4.756  -5.795   2.307  0.00  0.00    +0.027 A 
ATOM      5  C   LIG    1        5.597  -6.261   3.297  0.00  0.00    +0.002 A 
ATOM      6  C   LIG    1        5.122  -7.129   4.267  0.00  0.00    +0.001 A 
ATOM      7  C   LIG    1        3.801  -7.522   4.262  0.00  0.00    +0.015 A 
ATOM      8  C   LIG    1        2.932  -7.044   3.277  0.00  0.00    +0.063 A 
ATOM      9  C   LIG    1        1.508  -7.394   3.327  0.00  0.00    +0.258 A 
ATOM     10  N   LIG    1        0.731  -7.640   2.283  0.00  0.00    -0.319 N 
ATOM     11  H   LIG    1       -0.200  -7.838   2.474  0.00  0.00    +0.169 HD
ATOM     12  C   LIG    1        1.105  -7.647   0.943  0.00  0.00    +0.085 A 
ATOM     13  C   LIG    1        0.584  -8.618   0.094  0.00  0.00    +0.031 A 
ATOM     14  C   LIG    1        0.914  -8.580  -1.240  0.00  0.00    +0.022 A 
ATOM     15  C   LIG    1        1.753  -7.583  -1.697  0.00  0.00    +0.113 A 
ATOM     16  N   LIG    1        2.252  -6.687  -0.869  0.00  0.00    -0.236 NA
ATOM     17  O   LIG    1        0.994  -7.463   4.427  0.00  0.00    -0.267 OA
ATOM     18  C   LIG    1        1.977  -6.698   0.428  0.00  0.00    +0.164 A 
ATOM     19  O   LIG    1        2.903  -3.624   1.795  0.00  0.00    -0.271 OA
ENDROOT
BRANCH   1  20
ATOM     20  C   LIG    1        1.453  -3.974  -0.034  0.00  0.00    +0.184 C 
BRANCH  20  26
ATOM     21  C   LIG    1       -0.018   1.465   0.010  0.00  0.00    -0.096 C 
ATOM     22  N   LIG    1        0.002  -0.004   0.002  0.00  0.00    +0.379 N 
ATOM     23  H   LIG    1       -0.945  -0.353   0.010  0.00  0.00    -0.082 HD
ATOM     24  C   LIG    1        0.688  -0.477  -1.207  0.00  0.00    -0.064 C 
ATOM     25  C   LIG    1        0.693  -2.008  -1.226  0.00  0.00    +0.066 C 
ATOM     26  N   LIG    1        1.378  -2.507  -0.025  0.00  0.00    -0.297 NA
ATOM     27  C   LIG    1        0.717  -2.021   1.194  0.00  0.00    +0.066 C 
ATOM     28  C   LIG    1        0.713  -0.490   1.192  0.00  0.00    -0.064 C 
ENDBRANCH  20  26
ENDBRANCH   1  20
TORSDOF 2
