REMARK  Name = ZINC25990290
REMARK                            x       y       z     vdW  Elec       q    Type
REMARK                         _______ _______ _______ _____ _____    ______ ____
ROOT
ATOM      1  C   LIG    1       -1.187   1.624   0.017  0.00  0.00    +0.246 C 
ATOM      2  N   LIG    1       -0.011   0.966   0.007  0.00  0.00    -0.311 N 
ATOM      3  H   LIG    1        0.004  -0.134   0.006  0.00  0.00    +0.149 HD
ATOM      4  O   LIG    1       -1.204   2.839   0.023  0.00  0.00    -0.270 OA
ENDROOT
BRANCH   1  11
ATOM      5  C   LIG    1       -3.686   1.540   0.028  0.00  0.00    +0.017 A 
ATOM      6  C   LIG    1       -4.845   0.786   0.029  0.00  0.00    +0.041 A 
ATOM      7  C   LIG    1       -4.755  -0.596   0.021  0.00  0.00    +0.129 A 
ATOM      8 CL   LIG    1       -6.208  -1.547   0.023  0.00  0.00    -0.062 Cl
ATOM      9  N   LIG    1       -3.582  -1.202   0.013  0.00  0.00    -0.243 NA
ATOM     10  C   LIG    1       -2.451  -0.528   0.005  0.00  0.00    +0.125 A 
ATOM     11  C   LIG    1       -2.457   0.868   0.018  0.00  0.00    +0.055 A 
ENDBRANCH   1  11
BRANCH   2  12
ATOM     12  C   LIG    1        1.248   1.716  -0.001  0.00  0.00    +0.104 C 
BRANCH  12  13
ATOM     13  C   LIG    1        2.424   0.737  -0.017  0.00  0.00    +0.020 C 
BRANCH  13  14
ATOM     14  C   LIG    1        3.738   1.520  -0.025  0.00  0.00    +0.023 C 
BRANCH  14  15
ATOM     15  C   LIG    1        4.915   0.542  -0.042  0.00  0.00    +0.123 C 
BRANCH  15  16
ATOM     16  N   LIG    1        6.173   1.292  -0.050  0.00  0.00    -0.337 N 
ATOM     17  C   LIG    1        6.863   1.708  -1.156  0.00  0.00    +0.106 A 
ATOM     18  C   LIG    1        7.955   2.360  -0.712  0.00  0.00    +0.130 A 
ATOM     19  N   LIG    1        7.936   2.334   0.629  0.00  0.00    -0.244 NA
ATOM     20  C   LIG    1        6.872   1.695   1.033  0.00  0.00    +0.199 A 
ENDBRANCH  15  16
ENDBRANCH  14  15
ENDBRANCH  13  14
ENDBRANCH  12  13
ENDBRANCH   2  12
TORSDOF 6
