REMARK  Name = ZINC45338026
REMARK                            x       y       z     vdW  Elec       q    Type
REMARK                         _______ _______ _______ _____ _____    ______ ____
ROOT
ATOM      1  N   LIG    1       -5.444  -2.878  -1.340  0.00  0.00    -0.326 N 
ATOM      2  C   LIG    1       -6.296  -2.104  -2.046  0.00  0.00    +0.200 A 
ATOM      3  N   LIG    1       -6.645  -2.738  -3.132  0.00  0.00    -0.243 NA
ATOM      4  C   LIG    1       -6.039  -3.930  -3.169  0.00  0.00    +0.138 A 
ATOM      5  C   LIG    1       -5.270  -4.042  -2.052  0.00  0.00    +0.069 A 
ENDROOT
BRANCH   5   6
ATOM      6  C   LIG    1       -4.417  -5.191  -1.677  0.00  0.00    +0.000 A 
ATOM      7  C   LIG    1       -3.937  -5.310  -0.372  0.00  0.00    +0.010 A 
ATOM      8  C   LIG    1       -3.143  -6.384  -0.028  0.00  0.00    +0.001 A 
ATOM      9  C   LIG    1       -2.821  -7.341  -0.973  0.00  0.00    +0.000 A 
ATOM     10  C   LIG    1       -3.294  -7.229  -2.268  0.00  0.00    +0.001 A 
ATOM     11  C   LIG    1       -4.094  -6.163  -2.624  0.00  0.00    +0.010 A 
ENDBRANCH   5   6
BRANCH   1  12
ATOM     12  C   LIG    1       -4.817  -2.539  -0.059  0.00  0.00    +0.158 C 
BRANCH  12  16
ATOM     13  C   LIG    1       -5.733   1.512   0.947  0.00  0.00    +0.120 A 
ATOM     14  C   LIG    1       -6.548   0.484   1.397  0.00  0.00    +0.046 A 
ATOM     15  C   LIG    1       -6.250  -0.825   1.070  0.00  0.00    +0.009 A 
ATOM     16  C   LIG    1       -5.140  -1.110   0.295  0.00  0.00    -0.027 A 
ATOM     17  C   LIG    1       -4.327  -0.086  -0.154  0.00  0.00    +0.009 A 
ATOM     18  C   LIG    1       -4.624   1.224   0.164  0.00  0.00    +0.046 A 
BRANCH  13  20
ATOM     19  C   LIG    1       -7.181   3.023   2.075  0.00  0.00    +0.277 C 
ATOM     20  O   LIG    1       -6.024   2.801   1.266  0.00  0.00    -0.495 OA
ENDBRANCH  13  20
ENDBRANCH  12  16
ENDBRANCH   1  12
TORSDOF 4
