REMARK  Name = ZINC26168030
REMARK                            x       y       z     vdW  Elec       q    Type
REMARK                         _______ _______ _______ _____ _____    ______ ____
ROOT
ATOM      1  C   LIG    1       -1.300   3.241   0.032  0.00  0.00    +0.015 A 
ATOM      2  C   LIG    1       -1.256   1.886   0.018  0.00  0.00    +0.071 A 
ATOM      3  C   LIG    1       -0.015   1.215   0.009  0.00  0.00    +0.252 A 
ATOM      4  N   LIG    1        1.150   1.886   0.001  0.00  0.00    -0.297 N 
ATOM      5  C   LIG    1        1.175   3.266   0.008  0.00  0.00    +0.053 A 
ATOM      6  C   LIG    1        2.381   3.958   0.000  0.00  0.00    +0.030 A 
ATOM      7  C   LIG    1        2.384   5.335   0.007  0.00  0.00    +0.047 A 
ATOM      8  C   LIG    1        1.188   6.048   0.023  0.00  0.00    +0.118 A 
ATOM      9  C   LIG    1       -0.021   5.380   0.031  0.00  0.00    +0.055 A 
ATOM     10  O   LIG    1        0.002  -0.004   0.002  0.00  0.00    -0.268 OA
ATOM     11  C   LIG    1       -0.037   3.982   0.024  0.00  0.00    +0.002 A 
ENDROOT
BRANCH   8  12
ATOM     12  O   LIG    1        1.210   7.407   0.030  0.00  0.00    -0.507 OA
ATOM     13  H   LIG    1        2.171   7.942   0.024  0.00  0.00    +0.292 HD
ENDBRANCH   8  12
BRANCH   4  14
ATOM     14  C   LIG    1        2.412   1.142  -0.014  0.00  0.00    +0.245 C 
BRANCH  14  15
ATOM     15  C   LIG    1        2.832   0.894  -1.440  0.00  0.00    +0.325 C 
ATOM     16  O   LIG    1        2.147   1.297  -2.350  0.00  0.00    -0.249 OA
BRANCH  15  17
ATOM     17  O   LIG    1        3.966   0.225  -1.700  0.00  0.00    -0.479 OA
ATOM     18  H   LIG    1        4.497  -0.088  -0.994  0.00  0.00    +0.295 HD
ENDBRANCH  15  17
ENDBRANCH  14  15
ENDBRANCH   4  14
TORSDOF 4
