REMARK  Name = ZINC40976841
REMARK                            x       y       z     vdW  Elec       q    Type
REMARK                         _______ _______ _______ _____ _____    ______ ____
ROOT
ATOM      1  C   LIG    1       -4.506  -4.055  -1.160  0.00  0.00    +0.060 A 
ATOM      2  C   LIG    1       -3.811  -4.746  -2.155  0.00  0.00    +0.047 A 
ATOM      3  C   LIG    1       -3.795  -6.124  -2.152  0.00  0.00    +0.122 A 
ATOM      4  C   LIG    1       -4.465  -6.830  -1.165  0.00  0.00    +0.034 A 
ATOM      5  C   LIG    1       -5.156  -6.162  -0.176  0.00  0.00    +0.026 A 
ATOM      6  C   LIG    1       -5.179  -4.773  -0.159  0.00  0.00    +0.042 A 
ENDROOT
BRANCH   1  11
ATOM      7  N   LIG    1       -1.210  -0.704   0.017  0.00  0.00    -0.327 N 
ATOM      8  C   LIG    1       -2.498  -0.004   0.116  0.00  0.00    +0.124 C 
ATOM      9  C   LIG    1       -3.375  -0.423  -1.071  0.00  0.00    +0.127 C 
ATOM     10  N   LIG    1       -3.371  -1.890  -1.163  0.00  0.00    -0.294 N 
ATOM     11  C   LIG    1       -4.528  -2.581  -1.157  0.00  0.00    +0.249 C 
ATOM     12  O   LIG    1       -5.590  -1.988  -1.150  0.00  0.00    -0.270 OA
ATOM     13  C   LIG    1       -2.082  -2.590  -1.262  0.00  0.00    +0.127 C 
ATOM     14  C   LIG    1       -1.206  -2.170  -0.081  0.00  0.00    +0.124 C 
BRANCH   7  21
ATOM     15  C   LIG    1        1.204  -0.663   0.026  0.00  0.00    +0.024 A 
ATOM     16  C   LIG    1        2.388   0.048   0.019  0.00  0.00    +0.022 A 
ATOM     17  C   LIG    1        2.366   1.431  -0.001  0.00  0.00    +0.041 A 
ATOM     18 CL   LIG    1        3.857   2.321  -0.009  0.00  0.00    -0.084 Cl
ATOM     19  C   LIG    1        1.159   2.107  -0.015  0.00  0.00    +0.022 A 
ATOM     20  C   LIG    1       -0.029   1.401  -0.009  0.00  0.00    +0.024 A 
ATOM     21  C   LIG    1       -0.010   0.012   0.011  0.00  0.00    +0.030 A 
ENDBRANCH   7  21
ENDBRANCH   1  11
BRANCH   6  22
ATOM     22  N   LIG    1       -5.869  -4.098   0.840  0.00  0.00    -0.325 N 
ATOM     23  C   LIG    1       -7.289  -3.749   0.677  0.00  0.00    +0.133 C 
ATOM     24  C   LIG    1       -8.050  -4.224   1.920  0.00  0.00    +0.178 C 
ATOM     25  O   LIG    1       -7.402  -3.718   3.090  0.00  0.00    -0.377 OA
ATOM     26  C   LIG    1       -6.064  -4.188   3.267  0.00  0.00    +0.178 C 
ATOM     27  C   LIG    1       -5.203  -3.716   2.095  0.00  0.00    +0.133 C 
ENDBRANCH   6  22
BRANCH   3  28
ATOM     28  N   LIG    1       -3.058  -6.854  -3.208  0.00  0.00    +0.006 N 
ATOM     29  O   LIG    1       -2.472  -6.241  -4.071  0.00  0.00    -0.130 OA
BRANCH  28  30
ATOM     30  O   LIG    1       -3.041  -8.062  -3.208  0.00  0.00    -0.396 OA
ATOM     31  H   LIG    1       -3.495  -8.537  -2.540  0.00  0.00    +0.329 HD
ENDBRANCH  28  30
ENDBRANCH   3  28
TORSDOF 5
