REMARK  Name = ZINC00005608
REMARK                            x       y       z     vdW  Elec       q    Type
REMARK                         _______ _______ _______ _____ _____    ______ ____
ROOT
ATOM      1  C   LIG    1       -4.742   1.580   3.749  0.00  0.00    -0.038 A 
ATOM      2  C   LIG    1       -6.035   1.177   3.883  0.00  0.00    +0.004 A 
ATOM      3  C   LIG    1       -6.638   0.369   2.921  0.00  0.00    +0.001 A 
ATOM      4  C   LIG    1       -5.951  -0.040   1.819  0.00  0.00    +0.008 A 
ATOM      5  C   LIG    1       -4.614   0.356   1.645  0.00  0.00    -0.017 A 
ATOM      6  C   LIG    1       -3.874  -0.048   0.520  0.00  0.00    +0.012 A 
ATOM      7  C   LIG    1       -2.582   0.353   0.384  0.00  0.00    +0.046 A 
ATOM      8  C   LIG    1       -1.975   1.163   1.348  0.00  0.00    +0.121 A 
ATOM      9  C   LIG    1       -2.662   1.569   2.456  0.00  0.00    +0.054 A 
ATOM     10  C   LIG    1       -4.001   1.178   2.625  0.00  0.00    -0.011 A 
ENDROOT
BRANCH   8  11
ATOM     11  O   LIG    1       -0.682   1.547   1.184  0.00  0.00    -0.495 OA
ATOM     12  C   LIG    1       -0.013   1.086   0.008  0.00  0.00    +0.277 C 
ENDBRANCH   8  11
BRANCH   1  13
ATOM     13  C   LIG    1       -4.108   2.453   4.801  0.00  0.00    +0.054 C 
BRANCH  13  14
ATOM     14  C   LIG    1       -4.224   3.921   4.384  0.00  0.00    +0.109 C 
BRANCH  14  17
ATOM     15  C   LIG    1       -2.957   6.981   6.304  0.00  0.00    +0.109 C 
ATOM     16  C   LIG    1       -3.591   6.108   5.252  0.00  0.00    +0.210 C 
ATOM     17  N   LIG    1       -3.607   4.769   5.407  0.00  0.00    -0.315 N 
ATOM     18  H   LIG    1       -3.211   4.367   6.196  0.00  0.00    +0.149 HD
ATOM     19  O   LIG    1       -4.087   6.610   4.266  0.00  0.00    -0.276 OA
ENDBRANCH  14  17
ENDBRANCH  13  14
ENDBRANCH   1  13
TORSDOF 4
